REMARK  Name = ZINCnE000001I7HS.0
REMARK                            x       y       z     vdW  Elec       q    Type
REMARK                         _______ _______ _______ _____ _____    ______ ____
ROOT
ATOM      1  C   LIG    1       -2.398  -0.007   0.288  0.00  0.00    +0.560 C 
ATOM      2  N   LIG    1       -1.254  -0.564  -0.156  0.00  0.00    -0.540 N 
ATOM      3  C   LIG    1       -1.226  -1.965  -0.596  0.00  0.00    +0.260 C 
ATOM      4  C   LIG    1        0.022  -2.622   0.009  0.00  0.00    +0.040 C 
ATOM      5  C   LIG    1        1.265  -1.930  -0.550  0.00  0.00    -0.040 C 
ATOM      6  C   LIG    1        1.156  -0.437  -0.385  0.00  0.00    -0.080 A 
ATOM      7  C   LIG    1        2.311   0.327  -0.419  0.00  0.00    +0.090 A 
ATOM      8  C   LIG    1        2.243   1.700  -0.279  0.00  0.00    -0.040 A 
ATOM      9  C   LIG    1        1.020   2.320  -0.103  0.00  0.00    -0.010 A 
ATOM     10  C   LIG    1       -0.136   1.566  -0.066  0.00  0.00    +0.000 A 
ATOM     11  C   LIG    1       -0.070   0.184  -0.205  0.00  0.00    +0.140 A 
ATOM     12  O   LIG    1       -2.387   1.115   0.756  0.00  0.00    -0.510 OA
ENDROOT
BRANCH   1  18
ATOM     13  C   LIG    1       -4.512  -0.834   1.313  0.00  0.00    -0.030 A 
ATOM     14  C   LIG    1       -5.695  -1.539   1.229  0.00  0.00    +0.010 A 
ATOM     15  C   LIG    1       -6.044  -2.173   0.050  0.00  0.00    +0.030 A 
ATOM     16  C   LIG    1       -5.211  -2.104  -1.052  0.00  0.00    +0.000 A 
ATOM     17  C   LIG    1       -4.028  -1.397  -0.984  0.00  0.00    +0.050 A 
ATOM     18  C   LIG    1       -3.667  -0.761   0.205  0.00  0.00    -0.120 A 
BRANCH  13  20
ATOM     19  C   LIG    1       -4.649   1.295   2.577  0.00  0.00    +0.040 C 
ATOM     20  C   LIG    1       -4.133  -0.146   2.599  0.00  0.00    +0.050 C 
ENDBRANCH  13  20
ENDBRANCH   1  18
BRANCH   5  21
ATOM     21  C   LIG    1        2.483  -2.425   0.187  0.00  0.00    +0.500 C 
ATOM     22  O   LIG    1        2.758  -3.612   0.182  0.00  0.00    -0.690 OA
ATOM     23  O   LIG    1        3.193  -1.637   0.788  0.00  0.00    -0.680 OA
ENDBRANCH   5  21
TORSDOF 3
