REMARK  Name = ZINCpe000000UF4N.0
REMARK                            x       y       z     vdW  Elec       q    Type
REMARK                         _______ _______ _______ _____ _____    ______ ____
ROOT
ATOM      1  N   LIG    1        5.957   3.612   0.062  0.00  0.00    -0.610 N 
ATOM      2  C   LIG    1        4.804   4.248  -0.228  0.00  0.00    +0.600 C 
ATOM      3  O   LIG    1        4.782   5.462  -0.310  0.00  0.00    -0.520 OA
ATOM      4  C   LIG    1        6.008   2.148   0.054  0.00  0.00    +0.270 C 
ENDROOT
BRANCH   2   5
ATOM      5  C   LIG    1        3.575   3.476  -0.445  0.00  0.00    -0.350 A 
ATOM      6  C   LIG    1        3.350   2.814  -1.660  0.00  0.00    +0.410 A 
ATOM      7  N   LIG    1        2.240   2.126  -1.835  0.00  0.00    -0.540 NA
ATOM      8  C   LIG    1        1.311   2.038  -0.879  0.00  0.00    +0.400 A 
ATOM      9  C   LIG    1        0.147   1.289  -1.121  0.00  0.00    +0.030 A 
ATOM     10  C   LIG    1       -0.805   1.195  -0.148  0.00  0.00    +0.140 A 
ATOM     11  C   LIG    1       -0.609   1.846   1.076  0.00  0.00    +0.000 A 
ATOM     12  C   LIG    1        0.519   2.562   1.290  0.00  0.00    +0.280 A 
ATOM     13  N   LIG    1        1.474   2.661   0.325  0.00  0.00    -0.420 N 
ATOM     14  C   LIG    1        2.590   3.382   0.568  0.00  0.00    +0.530 A 
ATOM     15  O   LIG    1        2.746   3.943   1.639  0.00  0.00    -0.510 OA
ENDBRANCH   2   5
BRANCH   1  16
ATOM     16  C   LIG    1        7.158   4.386   0.385  0.00  0.00    +0.370 C 
BRANCH  16  20
ATOM     17  C   LIG    1        7.310   5.067   4.511  0.00  0.00    +0.560 A 
ATOM     18  N   LIG    1        7.881   3.980   4.013  0.00  0.00    -0.570 NA
ATOM     19  C   LIG    1        7.851   3.735   2.714  0.00  0.00    +0.370 A 
ATOM     20  C   LIG    1        7.213   4.631   1.871  0.00  0.00    -0.280 A 
ATOM     21  C   LIG    1        6.631   5.761   2.424  0.00  0.00    +0.390 A 
ATOM     22  N   LIG    1        6.692   5.944   3.733  0.00  0.00    -0.570 NA
BRANCH  17  24
ATOM     23  C   LIG    1        8.038   4.334   6.752  0.00  0.00    +0.300 C 
ATOM     24  N   LIG    1        7.360   5.293   5.875  0.00  0.00    -0.590 N 
ATOM     25  C   LIG    1        6.734   6.489   6.444  0.00  0.00    +0.300 C 
ENDBRANCH  17  24
ENDBRANCH  16  20
ENDBRANCH   1  16
TORSDOF 4
