REMARK  Name = ZINCrg000000stMd.0
REMARK                            x       y       z     vdW  Elec       q    Type
REMARK                         _______ _______ _______ _____ _____    ______ ____
ROOT
ATOM      1  N   LIG    1        0.002  -0.004   0.002  0.00  0.00    -0.640 N 
ATOM      2  H   LIG    1       -0.827  -0.501   0.085  0.00  0.00    +0.430 HD
ATOM      3  C   LIG    1        1.173  -0.661  -0.114  0.00  0.00    +0.510 C 
ATOM      4  O   LIG    1        2.218  -0.044  -0.121  0.00  0.00    -0.490 OA
ENDROOT
BRANCH   1  11
ATOM      5  C   LIG    1       -0.646   6.665   0.464  0.00  0.00    +0.160 C 
ATOM      6  C   LIG    1        0.143   5.550  -0.173  0.00  0.00    +0.100 A 
ATOM      7  N   LIG    1        1.141   5.700  -0.995  0.00  0.00    -0.260 NA
ATOM      8  N   LIG    1        1.629   4.446  -1.382  0.00  0.00    -0.400 N 
ATOM      9  C   LIG    1        0.878   3.484  -0.755  0.00  0.00    +0.150 A 
ATOM     10  C   LIG    1        0.904   2.094  -0.754  0.00  0.00    +0.000 A 
ATOM     11  C   LIG    1       -0.018   1.393   0.004  0.00  0.00    +0.190 A 
ATOM     12  C   LIG    1       -0.963   2.072   0.774  0.00  0.00    -0.040 A 
ATOM     13  C   LIG    1       -0.997   3.434   0.788  0.00  0.00    +0.120 A 
ATOM     14  C   LIG    1        2.745   4.204  -2.299  0.00  0.00    +0.350 C 
ATOM     15  C   LIG    1       -0.078   4.165   0.024  0.00  0.00    -0.190 A 
ENDBRANCH   1  11
BRANCH   3  16
ATOM     16  C   LIG    1        1.185  -2.150  -0.235  0.00  0.00    +0.520 C 
ATOM     17  N   LIG    1        2.355  -2.807  -0.351  0.00  0.00    -0.580 N 
ATOM     18  C   LIG    1        3.692  -2.185  -0.373  0.00  0.00    +0.280 C 
ATOM     19  C   LIG    1        4.591  -3.203  -1.118  0.00  0.00    +0.030 C 
ATOM     20  C   LIG    1        4.021  -4.553  -0.609  0.00  0.00    +0.260 C 
ATOM     21  C   LIG    1        2.512  -4.264  -0.471  0.00  0.00    +0.270 C 
ATOM     22  O   LIG    1        0.140  -2.768  -0.228  0.00  0.00    -0.510 OA
BRANCH  20  23
ATOM     23  N   LIG    1        4.266  -5.620  -1.583  0.00  0.00    -0.620 N 
ATOM     24  C   LIG    1        5.050  -6.829  -1.308  0.00  0.00    +0.260 C 
ATOM     25  C   LIG    1        4.672  -7.827  -2.428  0.00  0.00    +0.040 C 
ATOM     26  C   LIG    1        4.237  -6.872  -3.564  0.00  0.00    +0.050 C 
ATOM     27  C   LIG    1        3.804  -5.613  -2.846  0.00  0.00    +0.520 C 
ATOM     28  O   LIG    1        3.138  -4.727  -3.337  0.00  0.00    -0.520 OA
ENDBRANCH  20  23
ENDBRANCH   3  16
TORSDOF 3
