REMARK  Name = ZINCAx0000000dKJ.0
REMARK                            x       y       z     vdW  Elec       q    Type
REMARK                         _______ _______ _______ _____ _____    ______ ____
ROOT
ATOM      1  N   LIG    1        0.002  -0.004   0.002  0.00  0.00    -0.560 N 
ATOM      2  C   LIG    1        1.252  -0.481  -0.013  0.00  0.00    +0.710 C 
ATOM      3  N   LIG    1        2.175   0.498  -0.016  0.00  0.00    -0.720 N 
ATOM      4  H   LIG    1        3.139   0.386  -0.025  0.00  0.00    +0.440 HD
ATOM      5  C   LIG    1        1.437   1.773  -0.002  0.00  0.00    +0.170 C 
ATOM      6  C   LIG    1        1.772   2.575   1.257  0.00  0.00    +0.100 C 
ATOM      7  O   LIG    1        1.524  -1.665  -0.021  0.00  0.00    -0.530 OA
ATOM      8  C   LIG    1       -0.016   1.343   0.009  0.00  0.00    +0.540 C 
ATOM      9  O   LIG    1       -0.992   2.062   0.018  0.00  0.00    -0.450 OA
ENDROOT
BRANCH   5  10
ATOM     10  C   LIG    1        1.743   2.576  -1.240  0.00  0.00    -0.070 A 
ATOM     11  C   LIG    1        0.753   3.341  -1.829  0.00  0.00    +0.060 A 
ATOM     12  C   LIG    1        1.030   4.079  -2.966  0.00  0.00    +0.060 A 
ATOM     13  C   LIG    1        2.297   4.053  -3.516  0.00  0.00    +0.030 A 
ATOM     14  C   LIG    1        3.293   3.287  -2.926  0.00  0.00    +0.130 A 
ATOM     15  C   LIG    1        3.014   2.552  -1.782  0.00  0.00    +0.060 A 
BRANCH  14  16
ATOM     16  N   LIG    1        4.580   3.259  -3.482  0.00  0.00    -0.330 N 
ATOM     17  C   LIG    1        5.039   3.986  -4.524  0.00  0.00    +0.470 A 
ATOM     18  N   LIG    1        6.289   3.651  -4.710  0.00  0.00    -0.330 NA
ATOM     19  N   LIG    1        6.652   2.762  -3.857  0.00  0.00    -0.030 NA
ATOM     20  N   LIG    1        5.671   2.474  -3.071  0.00  0.00    -0.080 NA
ENDBRANCH  14  16
ENDBRANCH   5  10
BRANCH   1  21
ATOM     21  C   LIG    1       -1.199  -0.844   0.008  0.00  0.00    +0.340 C 
BRANCH  21  22
ATOM     22  C   LIG    1       -1.623  -1.124  -1.410  0.00  0.00    +0.420 C 
ATOM     23  O   LIG    1       -0.985  -0.667  -2.336  0.00  0.00    -0.460 OA
BRANCH  22  27
ATOM     24  C   LIG    1       -5.762  -4.024  -0.765  0.00  0.00    +0.120 C 
ATOM     25  C   LIG    1       -4.633  -3.228  -1.369  0.00  0.00    +0.020 A 
ATOM     26  C   LIG    1       -3.686  -2.574  -0.677  0.00  0.00    +0.000 A 
ATOM     27  C   LIG    1       -2.805  -1.947  -1.672  0.00  0.00    -0.270 A 
ATOM     28  C   LIG    1       -3.326  -2.290  -2.906  0.00  0.00    +0.120 A 
ATOM     29  C   LIG    1       -2.771  -1.877  -4.245  0.00  0.00    +0.150 C 
ATOM     30  N   LIG    1       -4.411  -3.058  -2.704  0.00  0.00    -0.430 N 
BRANCH  30  31
ATOM     31  C   LIG    1       -5.242  -3.627  -3.769  0.00  0.00    +0.340 C 
BRANCH  31  32
ATOM     32  C   LIG    1       -6.340  -2.657  -4.121  0.00  0.00    -0.120 A 
ATOM     33  C   LIG    1       -7.555  -2.720  -3.465  0.00  0.00    +0.020 A 
ATOM     34  C   LIG    1       -8.560  -1.827  -3.784  0.00  0.00    +0.010 A 
ATOM     35  C   LIG    1       -8.355  -0.878  -4.769  0.00  0.00    +0.020 A 
ATOM     36  C   LIG    1       -7.142  -0.819  -5.429  0.00  0.00    +0.010 A 
ATOM     37  C   LIG    1       -6.135  -1.708  -5.105  0.00  0.00    +0.020 A 
ENDBRANCH  31  32
ENDBRANCH  30  31
ENDBRANCH  22  27
ENDBRANCH  21  22
ENDBRANCH   1  21
TORSDOF 7
