REMARK  Name = ZINCpk000000oNQB.0
REMARK                            x       y       z     vdW  Elec       q    Type
REMARK                         _______ _______ _______ _____ _____    ______ ____
ROOT
ATOM      1  N   LIG    1       -4.494   4.610  -2.313  0.00  0.00    -0.750 N 
ATOM      2  H   LIG    1       -3.670   5.117  -2.374  0.00  0.00    +0.390 HD
ATOM      3  C   LIG    1       -4.465   3.318  -1.930  0.00  0.00    +0.710 C 
ATOM      4  N   LIG    1       -3.283   2.703  -1.728  0.00  0.00    -0.630 N 
ATOM      5  C   LIG    1       -3.231   1.267  -1.419  0.00  0.00    +0.300 C 
ATOM      6  C   LIG    1       -2.458   1.075  -0.109  0.00  0.00    +0.290 C 
ATOM      7  N   LIG    1       -1.198   1.827  -0.193  0.00  0.00    -0.610 N 
ATOM      8  C   LIG    1       -1.250   3.264  -0.496  0.00  0.00    +0.270 C 
ATOM      9  C   LIG    1       -0.016   1.212   0.011  0.00  0.00    +0.560 C 
ATOM     10  O   LIG    1        0.022   0.007   0.167  0.00  0.00    -0.520 OA
ATOM     11  C   LIG    1       -2.023   3.455  -1.812  0.00  0.00    +0.270 C 
ATOM     12  O   LIG    1       -5.504   2.709  -1.767  0.00  0.00    -0.580 OA
ENDROOT
BRANCH   9  13
ATOM     13  C   LIG    1        1.234   2.001   0.037  0.00  0.00    -0.100 A 
ATOM     14  C   LIG    1        1.227   3.300   0.548  0.00  0.00    +0.020 A 
ATOM     15  C   LIG    1        2.398   4.032   0.571  0.00  0.00    +0.070 A 
ATOM     16  C   LIG    1        3.567   3.482   0.091  0.00  0.00    -0.110 A 
ATOM     17  C   LIG    1        3.593   2.189  -0.422  0.00  0.00    +0.140 A 
ATOM     18  N   LIG    1        4.884   1.863  -0.841  0.00  0.00    -0.660 N 
ATOM     19  H   LIG    1        5.126   1.008  -1.231  0.00  0.00    +0.420 HD
ATOM     20  C   LIG    1        5.753   2.869  -0.643  0.00  0.00    +0.540 C 
ATOM     21  O   LIG    1        6.935   2.862  -0.913  0.00  0.00    -0.490 OA
ATOM     22  C   LIG    1        4.979   4.011  -0.020  0.00  0.00    -0.060 C 
ATOM     23  C   LIG    1        5.536   4.347   1.364  0.00  0.00    +0.080 C 
ATOM     24  C   LIG    1        5.019   5.243  -0.927  0.00  0.00    +0.080 C 
ATOM     25  C   LIG    1        2.418   1.446  -0.442  0.00  0.00    +0.060 A 
ENDBRANCH   9  13
BRANCH   1  27
ATOM     26  C   LIG    1       -5.527   6.704  -3.041  0.00  0.00    +0.030 C 
ATOM     27  C   LIG    1       -5.772   5.248  -2.639  0.00  0.00    +0.270 C 
ENDBRANCH   1  27
TORSDOF 2
