REMARK  Name = ZINCpe000000XC8F.0
REMARK                            x       y       z     vdW  Elec       q    Type
REMARK                         _______ _______ _______ _____ _____    ______ ____
ROOT
ATOM      1  C   LIG    1        3.663   1.796  -0.023  0.00  0.00    +0.100 C 
ENDROOT
BRANCH   1   2
ATOM      2  C   LIG    1        2.369   1.025  -0.015  0.00  0.00    +0.540 C 
ATOM      3  N   LIG    1        1.193   1.683  -0.000  0.00  0.00    -0.520 N 
ATOM      4  H   LIG    1        1.179   2.653   0.005  0.00  0.00    +0.440 HD
ATOM      5  O   LIG    1        2.385  -0.188  -0.022  0.00  0.00    -0.510 OA
BRANCH   3   6
ATOM      6  N   LIG    1       -0.011   0.966   0.007  0.00  0.00    -0.520 N 
ATOM      7  H   LIG    1        0.002  -0.004   0.002  0.00  0.00    +0.430 HD
ATOM      8  C   LIG    1       -1.187   1.624   0.017  0.00  0.00    +0.570 C 
ATOM      9  O   LIG    1       -1.204   2.839   0.023  0.00  0.00    -0.530 OA
BRANCH   8  10
ATOM     10  C   LIG    1       -2.458   0.867   0.018  0.00  0.00    -0.190 A 
ATOM     11  C   LIG    1       -3.686   1.539   0.034  0.00  0.00    +0.140 A 
ATOM     12  C   LIG    1       -4.846   0.784   0.030  0.00  0.00    -0.030 A 
ATOM     13  C   LIG    1       -4.755  -0.596   0.023  0.00  0.00    +0.300 A 
ATOM     14  N   LIG    1       -3.583  -1.202   0.013  0.00  0.00    -0.480 NA
ATOM     15  C   LIG    1       -2.452  -0.528   0.011  0.00  0.00    +0.300 A 
ENDBRANCH   8  10
ENDBRANCH   3   6
ENDBRANCH   1   2
BRANCH   1  16
ATOM     16  S   LIG    1        5.058   0.636  -0.043  0.00  0.00    -0.080 S 
BRANCH  16  17
ATOM     17  C   LIG    1        6.502   1.734  -0.051  0.00  0.00    +0.010 C 
ATOM     18  C   LIG    1        6.526   2.535  -1.354  0.00  0.00    +0.080 C 
BRANCH  17  21
ATOM     19  N   LIG    1        8.882   1.458   0.565  0.00  0.00    -0.630 N 
ATOM     20  H   LIG    1        8.880   2.381   0.862  0.00  0.00    +0.420 HD
ATOM     21  C   LIG    1        7.760   0.911   0.057  0.00  0.00    +0.550 C 
ATOM     22  O   LIG    1        7.762  -0.244  -0.314  0.00  0.00    -0.490 OA
BRANCH  19  26
ATOM     23  C   LIG    1       12.225  -2.235   0.367  0.00  0.00    +0.190 C 
ATOM     24  C   LIG    1       11.505  -0.928   0.574  0.00  0.00    -0.020 A 
ATOM     25  C   LIG    1       10.211  -0.662   0.283  0.00  0.00    -0.040 A 
ATOM     26  C   LIG    1       10.046   0.696   0.664  0.00  0.00    +0.240 A 
ATOM     27  N   LIG    1       11.202   1.087   1.133  0.00  0.00    -0.390 NA
ATOM     28  O   LIG    1       12.021   0.198   1.090  0.00  0.00    +0.100 OA
ENDBRANCH  19  26
ENDBRANCH  17  21
ENDBRANCH  16  17
ENDBRANCH   1  16
TORSDOF 7
