REMARK  Name = ZINCrD000000fTu7.0
REMARK                            x       y       z     vdW  Elec       q    Type
REMARK                         _______ _______ _______ _____ _____    ______ ____
ROOT
ATOM      1  C   LIG    1        0.404   3.857  -0.251  0.00  0.00    -0.150 A 
ATOM      2  C   LIG    1       -0.918   4.305  -0.301  0.00  0.00    +0.150 A 
ATOM      3  C   LIG    1       -1.953   3.394  -0.268  0.00  0.00    +0.000 A 
ATOM      4  C   LIG    1       -1.684   2.039  -0.191  0.00  0.00    +0.170 A 
ATOM      5  C   LIG    1       -0.377   1.589  -0.135  0.00  0.00    -0.690 A 
ATOM      6  C   LIG    1        0.668   2.489  -0.167  0.00  0.00    +0.210 A 
ENDROOT
BRANCH   5   7
ATOM      7  S   LIG    1       -0.046  -0.139  -0.029  0.00  0.00    +2.690 S 
ATOM      8  O   LIG    1        1.214  -0.345  -0.653  0.00  0.00    -0.940 OA
ATOM      9  O   LIG    1       -1.234  -0.801  -0.440  0.00  0.00    -0.940 OA
BRANCH   7  10
ATOM     10  N   LIG    1        0.162  -0.501   1.574  0.00  0.00    -1.060 N 
ATOM     11  H   LIG    1        1.017  -0.830   1.890  0.00  0.00    +0.430 HD
BRANCH  10  12
ATOM     12  C   LIG    1       -0.897  -0.331   2.471  0.00  0.00    +0.110 A 
ATOM     13  C   LIG    1       -0.886   0.730   3.367  0.00  0.00    +0.060 A 
ATOM     14  C   LIG    1       -1.935   0.898   4.250  0.00  0.00    -0.010 A 
ATOM     15  C   LIG    1       -2.992   0.004   4.248  0.00  0.00    +0.110 A 
ATOM     16  C   LIG    1       -3.003  -1.058   3.359  0.00  0.00    +0.010 A 
ATOM     17  F   LIG    1       -4.015   0.167   5.116  0.00  0.00    -0.130 F 
ATOM     18  C   LIG    1       -1.958  -1.227   2.472  0.00  0.00    +0.080 A 
ENDBRANCH  10  12
ENDBRANCH   7  10
ENDBRANCH   5   7
BRANCH   1  19
ATOM     19  C   LIG    1        1.517   4.827  -0.286  0.00  0.00    +0.510 C 
ATOM     20  O   LIG    1        2.666   4.435  -0.242  0.00  0.00    -0.500 OA
BRANCH  19  21
ATOM     21  O   LIG    1        1.259   6.147  -0.367  0.00  0.00    -0.330 OA
BRANCH  21  22
ATOM     22  C   LIG    1        2.402   7.042  -0.397  0.00  0.00    +0.230 C 
BRANCH  22  23
ATOM     23  C   LIG    1        1.922   8.467  -0.488  0.00  0.00    +0.370 C 
ATOM     24  O   LIG    1        0.738   8.705  -0.524  0.00  0.00    -0.420 OA
BRANCH  23  26
ATOM     25  C   LIG    1        2.174  10.930  -0.626  0.00  0.00    +0.050 C 
ATOM     26  C   LIG    1        2.918   9.597  -0.535  0.00  0.00    -0.110 C 
ATOM     27  C   LIG    1        3.820   9.431  -1.760  0.00  0.00    +0.050 C 
ATOM     28  C   LIG    1        3.773   9.575   0.734  0.00  0.00    +0.060 C 
ENDBRANCH  23  26
ENDBRANCH  22  23
ENDBRANCH  21  22
ENDBRANCH  19  21
ENDBRANCH   1  19
TORSDOF 8
