REMARK  Name = ZINCnE000001TwfC.1
REMARK                            x       y       z     vdW  Elec       q    Type
REMARK                         _______ _______ _______ _____ _____    ______ ____
ROOT
ATOM      1  C   LIG    1       -1.323  -4.583   0.407  0.00  0.00    +0.420 A 
ATOM      2  N   LIG    1       -0.171  -4.140   0.044  0.00  0.00    -0.560 NA
ATOM      3  C   LIG    1        0.004  -2.803  -0.007  0.00  0.00    +0.160 A 
ATOM      4  C   LIG    1        1.158  -2.078  -0.370  0.00  0.00    +0.020 A 
ATOM      5  C   LIG    1        1.153  -0.700  -0.364  0.00  0.00    +0.070 A 
ATOM      6  C   LIG    1        0.002  -0.004   0.002  0.00  0.00    +0.010 A 
ATOM      7  O   LIG    1       -0.016   1.358   0.009  0.00  0.00    -0.310 OA
ATOM      8  C   LIG    1        1.253   2.019   0.001  0.00  0.00    +0.200 C 
ATOM      9  C   LIG    1        2.135   1.351  -1.063  0.00  0.00    +0.200 C 
ATOM     10  C   LIG    1       -1.137  -0.699   0.362  0.00  0.00    +0.080 A 
ATOM     11  O   LIG    1        2.286  -0.029  -0.718  0.00  0.00    -0.310 OA
ATOM     12  C   LIG    1       -1.142  -2.092   0.359  0.00  0.00    -0.230 A 
ATOM     13  S   LIG    1       -2.411  -3.248   0.757  0.00  0.00    -0.020 S 
ENDROOT
BRANCH   1  16
ATOM     14  O   LIG    1       -3.720  -5.429   1.163  0.00  0.00    -0.590 OA
ATOM     15  C   LIG    1       -2.898  -6.281   0.900  0.00  0.00    +0.470 C 
ATOM     16  N   LIG    1       -1.659  -5.925   0.509  0.00  0.00    -0.650 NA
BRANCH  15  17
ATOM     17  C   LIG    1       -3.263  -7.739   1.010  0.00  0.00    +0.060 C 
BRANCH  17  18
ATOM     18  C   LIG    1       -3.098  -8.411  -0.355  0.00  0.00    -0.030 C 
ATOM     19  C   LIG    1       -2.268  -9.694  -0.415  0.00  0.00    -0.020 C 
ATOM     20  C   LIG    1       -1.706  -8.391  -0.989  0.00  0.00    +0.040 C 
ENDBRANCH  17  18
BRANCH  17  21
ATOM     21  C   LIG    1       -4.716  -7.868   1.470  0.00  0.00    -0.010 C 
ATOM     22  C   LIG    1       -4.966  -8.422   2.874  0.00  0.00    +0.000 C 
ATOM     23  C   LIG    1       -5.279  -9.280   1.646  0.00  0.00    +0.000 C 
ENDBRANCH  17  21
ENDBRANCH  15  17
ENDBRANCH   1  16
TORSDOF 4
