REMARK  Name = ZINCvU00000006yW.0
REMARK                            x       y       z     vdW  Elec       q    Type
REMARK                         _______ _______ _______ _____ _____    ______ ____
ROOT
ATOM      1  C   LIG    1       -6.991   4.206   1.504  0.00  0.00    +0.540 C 
ATOM      2  N   LIG    1       -5.977   3.523   0.936  0.00  0.00    -0.720 N 
ATOM      3  H   LIG    1       -5.870   2.576   1.115  0.00  0.00    +0.400 HD
ATOM      4  O   LIG    1       -7.124   5.391   1.280  0.00  0.00    -0.520 OA
ENDROOT
BRANCH   2   5
ATOM      5  C   LIG    1       -5.037   4.211   0.048  0.00  0.00    +0.290 C 
ATOM      6  C   LIG    1       -5.611   4.251  -1.370  0.00  0.00    +0.040 C 
BRANCH   5   7
ATOM      7  C   LIG    1       -3.724   3.473   0.038  0.00  0.00    -0.090 A 
ATOM      8  C   LIG    1       -2.535   4.181   0.036  0.00  0.00    +0.030 A 
ATOM      9  C   LIG    1       -1.329   3.510   0.027  0.00  0.00    +0.020 A 
ATOM     10  C   LIG    1       -1.310   2.116   0.020  0.00  0.00    -0.040 A 
ATOM     11  C   LIG    1       -2.510   1.408   0.016  0.00  0.00    +0.020 A 
ATOM     12  C   LIG    1       -3.711   2.090   0.030  0.00  0.00    +0.010 A 
BRANCH  10  13
ATOM     13  C   LIG    1       -0.017   1.389   0.010  0.00  0.00    -0.050 A 
ATOM     14  C   LIG    1        1.183   2.097   0.002  0.00  0.00    +0.020 A 
ATOM     15  C   LIG    1        2.383   1.416  -0.014  0.00  0.00    +0.010 A 
ATOM     16  C   LIG    1        2.396   0.033  -0.021  0.00  0.00    +0.000 A 
ATOM     17  C   LIG    1        1.208  -0.675  -0.013  0.00  0.00    +0.010 A 
ATOM     18  C   LIG    1        0.002  -0.004   0.002  0.00  0.00    +0.020 A 
ENDBRANCH  10  13
ENDBRANCH   5   7
ENDBRANCH   2   5
BRANCH   1  19
ATOM     19  C   LIG    1       -7.958   3.498   2.418  0.00  0.00    +0.100 C 
BRANCH  19  20
ATOM     20  S   LIG    1       -9.194   4.677   3.017  0.00  0.00    +0.090 S 
BRANCH  20  25
ATOM     21  C   LIG    1      -12.869   2.682   6.297  0.00  0.00    +0.200 C 
ATOM     22  C   LIG    1      -11.683   2.819   5.377  0.00  0.00    +0.190 A 
ATOM     23  N   LIG    1      -10.864   1.868   5.027  0.00  0.00    -0.290 NA
ATOM     24  N   LIG    1       -9.966   2.330   4.233  0.00  0.00    -0.290 NA
ATOM     25  C   LIG    1      -10.165   3.612   4.031  0.00  0.00    +0.140 A 
ATOM     26  N   LIG    1      -11.264   3.965   4.760  0.00  0.00    -0.450 N 
BRANCH  26  27
ATOM     27  C   LIG    1      -11.871   5.295   4.857  0.00  0.00    +0.240 C 
ATOM     28  C   LIG    1      -12.314   5.757   3.468  0.00  0.00    +0.010 C 
ATOM     29  C   LIG    1      -12.947   7.146   3.570  0.00  0.00    +0.030 C 
ATOM     30  C   LIG    1      -11.924   8.133   4.133  0.00  0.00    +0.010 C 
ATOM     31  C   LIG    1      -11.481   7.671   5.523  0.00  0.00    +0.030 C 
ATOM     32  C   LIG    1      -10.848   6.282   5.421  0.00  0.00    +0.010 C 
ENDBRANCH  26  27
ENDBRANCH  20  25
ENDBRANCH  19  20
ENDBRANCH   1  19
TORSDOF 7
