REMARK  Name = ZINCvU0000000ADP.0
REMARK                            x       y       z     vdW  Elec       q    Type
REMARK                         _______ _______ _______ _____ _____    ______ ____
ROOT
ATOM      1  C   LIG    1       -4.737   0.340   2.966  0.00  0.00    +0.140 A 
ATOM      2  C   LIG    1       -4.058   1.045   3.951  0.00  0.00    -0.010 A 
ATOM      3  C   LIG    1       -4.570   1.104   5.233  0.00  0.00    +0.050 A 
ATOM      4  C   LIG    1       -5.752   0.453   5.538  0.00  0.00    -0.100 A 
ATOM      5  C   LIG    1       -6.427  -0.255   4.560  0.00  0.00    +0.040 A 
ATOM      6  C   LIG    1       -5.923  -0.312   3.275  0.00  0.00    +0.020 A 
ENDROOT
BRANCH   1   9
ATOM      7  O   LIG    1       -6.261   0.217   0.789  0.00  0.00    -0.510 OA
ATOM      8  C   LIG    1       -5.062   0.267   0.610  0.00  0.00    +0.520 C 
ATOM      9  N   LIG    1       -4.224   0.284   1.665  0.00  0.00    -0.670 N 
ATOM     10  H   LIG    1       -3.265   0.256   1.523  0.00  0.00    +0.410 HD
BRANCH   8  11
ATOM     11  C   LIG    1       -4.511   0.311  -0.791  0.00  0.00    +0.130 C 
BRANCH  11  12
ATOM     12  C   LIG    1       -5.647   0.282  -1.780  0.00  0.00    -0.050 A 
ATOM     13  C   LIG    1       -6.080   1.453  -2.372  0.00  0.00    +0.080 A 
ATOM     14  C   LIG    1       -7.119   1.426  -3.283  0.00  0.00    +0.100 A 
ATOM     15  C   LIG    1       -7.731   0.228  -3.599  0.00  0.00    -0.010 A 
ATOM     16  C   LIG    1       -7.303  -0.945  -3.005  0.00  0.00    +0.080 A 
ATOM     17  C   LIG    1       -6.263  -0.919  -2.092  0.00  0.00    +0.120 A 
ATOM     18  F   LIG    1       -5.845  -2.064  -1.511  0.00  0.00    -0.120 F 
BRANCH  15  19
ATOM     19  N   LIG    1       -8.843   0.200  -4.575  0.00  0.00    +0.020 N 
ATOM     20  O   LIG    1       -9.382  -0.856  -4.855  0.00  0.00    -0.150 OA
ATOM     21  O   LIG    1       -9.219   1.233  -5.100  0.00  0.00    -0.150 OA
ENDBRANCH  15  19
ENDBRANCH  11  12
ENDBRANCH   8  11
ENDBRANCH   1   9
BRANCH   4  22
ATOM     22  C   LIG    1       -6.304   0.514   6.938  0.00  0.00    +0.210 C 
BRANCH  22  23
ATOM     23  C   LIG    1       -5.756  -0.635   7.745  0.00  0.00    +0.060 A 
ATOM     24  N   LIG    1       -4.669  -0.595   8.435  0.00  0.00    -0.460 NA
ATOM     25  C   LIG    1       -4.327  -1.696   9.090  0.00  0.00    +0.140 A 
ATOM     26  C   LIG    1       -5.192  -2.721   8.930  0.00  0.00    -0.080 A 
ATOM     27  S   LIG    1       -6.494  -2.171   7.878  0.00  0.00    +0.150 S 
BRANCH  25  28
ATOM     28  C   LIG    1       -3.108  -1.793   9.921  0.00  0.00    -0.130 A 
ATOM     29  C   LIG    1       -2.213  -0.804  10.108  0.00  0.00    +0.050 A 
ATOM     30  C   LIG    1       -1.154  -1.132  10.931  0.00  0.00    +0.010 A 
ATOM     31  C   LIG    1       -1.173  -2.379  11.408  0.00  0.00    -0.040 A 
ATOM     32  S   LIG    1       -2.598  -3.221  10.813  0.00  0.00    +0.130 S 
ENDBRANCH  25  28
ENDBRANCH  22  23
ENDBRANCH   4  22
TORSDOF 7
