REMARK  Name = ZINCrH000004uCi2.0
REMARK                            x       y       z     vdW  Elec       q    Type
REMARK                         _______ _______ _______ _____ _____    ______ ____
ROOT
ATOM      1  O   LIG    1        2.496  -0.142  -0.024  0.00  0.00    -0.520 OA
ATOM      2  C   LIG    1        2.477   1.074  -0.016  0.00  0.00    +0.570 C 
ATOM      3  N   LIG    1        3.634   1.766  -0.024  0.00  0.00    -0.720 N 
ATOM      4  H   LIG    1        3.619   2.736  -0.018  0.00  0.00    +0.400 HD
ENDROOT
BRANCH   2   5
ATOM      5  C   LIG    1        1.188   1.792   0.000  0.00  0.00    -0.110 A 
ATOM      6  C   LIG    1        1.164   3.188   0.008  0.00  0.00    +0.080 A 
ATOM      7  C   LIG    1       -0.042   3.857   0.023  0.00  0.00    -0.030 A 
ATOM      8  C   LIG    1       -1.235   3.146   0.031  0.00  0.00    +0.070 A 
ATOM      9  O   LIG    1       -2.533   3.564   0.047  0.00  0.00    -0.290 OA
ATOM     10  C   LIG    1       -3.308   2.425  -0.383  0.00  0.00    +0.440 C 
ATOM     11  O   LIG    1       -2.506   1.299   0.021  0.00  0.00    -0.300 OA
ATOM     12  C   LIG    1       -1.218   1.751   0.017  0.00  0.00    +0.040 A 
ATOM     13 CL   LIG    1       -0.069   5.593   0.033  0.00  0.00    -0.040 Cl
ATOM     14  C   LIG    1       -0.013   1.076   0.008  0.00  0.00    +0.120 A 
ENDBRANCH   2   5
BRANCH   3  15
ATOM     15  C   LIG    1        4.914   1.053  -0.040  0.00  0.00    +0.330 C 
BRANCH  15  16
ATOM     16  C   LIG    1        6.044   2.050  -0.045  0.00  0.00    -0.200 A 
ATOM     17  C   LIG    1        6.581   2.507   1.150  0.00  0.00    +0.110 A 
ATOM     18  C   LIG    1        7.617   3.422   1.101  0.00  0.00    -0.050 A 
ATOM     19  C   LIG    1        8.083   3.851  -0.137  0.00  0.00    +0.330 A 
ATOM     20  N   LIG    1        7.544   3.392  -1.256  0.00  0.00    -0.520 NA
ATOM     21  C   LIG    1        6.559   2.514  -1.240  0.00  0.00    +0.310 A 
BRANCH  19  22
ATOM     22  N   LIG    1        9.124   4.770  -0.201  0.00  0.00    -0.490 N 
ATOM     23  C   LIG    1        8.844   5.949   0.649  0.00  0.00    +0.200 C 
ATOM     24  C   LIG    1        9.801   7.084   0.407  0.00  0.00    +0.040 C 
ATOM     25  C   LIG    1        9.177   8.036  -0.635  0.00  0.00    +0.000 C 
ATOM     26  C   LIG    1        9.310   7.528  -1.996  0.00  0.00    +0.000 C 
ATOM     27  C   LIG    1        8.595   6.173  -2.184  0.00  0.00    +0.000 C 
ATOM     28  C   LIG    1        9.464   5.090  -1.606  0.00  0.00    +0.230 C 
ENDBRANCH  19  22
ENDBRANCH  15  16
ENDBRANCH   3  15
TORSDOF 4
