REMARK  Name = ZINCrH00000No4yx.0
REMARK                            x       y       z     vdW  Elec       q    Type
REMARK                         _______ _______ _______ _____ _____    ______ ____
ROOT
ATOM      1  C   LIG    1       -0.721   3.382   0.028  0.00  0.00    +0.350 C 
ATOM      2  C   LIG    1        0.772   3.374   0.016  0.00  0.00    -0.240 A 
ATOM      3  C   LIG    1        1.182   2.071   0.002  0.00  0.00    +0.090 A 
ATOM      4  C   LIG    1       -0.014   1.211   0.009  0.00  0.00    +0.570 C 
ATOM      5  O   LIG    1        0.002  -0.004   0.002  0.00  0.00    -0.490 OA
ATOM      6  O   LIG    1        2.482   1.718  -0.020  0.00  0.00    -0.180 OA
ATOM      7  C   LIG    1        3.433   2.651   0.212  0.00  0.00    +0.160 A 
ATOM      8  C   LIG    1        4.747   2.239   0.427  0.00  0.00    +0.030 A 
ATOM      9  C   LIG    1        5.737   3.168   0.654  0.00  0.00    +0.120 A 
ATOM     10  C   LIG    1        5.447   4.526   0.673  0.00  0.00    -0.120 A 
ATOM     11  C   LIG    1        4.155   4.959   0.466  0.00  0.00    +0.160 A 
ATOM     12 BR   LIG    1        6.826   5.783   0.983  0.00  0.00    -0.020 Br
ATOM     13  C   LIG    1        3.144   4.026   0.238  0.00  0.00    -0.210 A 
ATOM     14  C   LIG    1        1.745   4.472   0.020  0.00  0.00    +0.460 A 
ATOM     15  O   LIG    1        1.434   5.639  -0.141  0.00  0.00    -0.430 OA
ATOM     16  N   LIG    1       -1.130   1.968   0.018  0.00  0.00    -0.590 N 
ATOM     17  C   LIG    1       -2.508   1.471   0.019  0.00  0.00    +0.350 C 
ENDROOT
BRANCH   1  21
ATOM     18  C   LIG    1       -2.158   5.322   3.557  0.00  0.00    +0.110 A 
ATOM     19  C   LIG    1       -1.729   4.006   3.613  0.00  0.00    -0.030 A 
ATOM     20  C   LIG    1       -1.265   3.382   2.470  0.00  0.00    +0.020 A 
ATOM     21  C   LIG    1       -1.228   4.068   1.270  0.00  0.00    -0.100 A 
ATOM     22  C   LIG    1       -1.649   5.383   1.209  0.00  0.00    +0.000 A 
ATOM     23  C   LIG    1       -2.120   6.013   2.350  0.00  0.00    +0.100 A 
BRANCH  18  25
ATOM     24  C   LIG    1       -2.626   5.167   5.884  0.00  0.00    +0.240 C 
ATOM     25  O   LIG    1       -2.615   5.938   4.681  0.00  0.00    -0.300 OA
ENDBRANCH  18  25
BRANCH  23  26
ATOM     26  O   LIG    1       -2.541   7.305   2.290  0.00  0.00    -0.300 OA
ATOM     27  C   LIG    1       -2.474   7.951   1.018  0.00  0.00    +0.240 C 
ENDBRANCH  23  26
ENDBRANCH   1  21
TORSDOF 3
