REMARK  Name = ZINCpk000004ATK5.0
REMARK                            x       y       z     vdW  Elec       q    Type
REMARK                         _______ _______ _______ _____ _____    ______ ____
ROOT
ATOM      1  C   LIG    1        2.097  -0.067   0.589  0.00  0.00    +0.130 A 
ATOM      2  C   LIG    1        1.018  -0.517  -0.164  0.00  0.00    +0.060 A 
ATOM      3  C   LIG    1        0.305   0.361  -0.955  0.00  0.00    +0.010 A 
ATOM      4  C   LIG    1        0.661   1.700  -1.004  0.00  0.00    +0.150 A 
ATOM      5  C   LIG    1        1.747   2.162  -0.249  0.00  0.00    -0.140 A 
ATOM      6  C   LIG    1        2.464   1.268   0.549  0.00  0.00    +0.040 A 
ENDROOT
BRANCH   5   7
ATOM      7  C   LIG    1        2.132   3.585  -0.296  0.00  0.00    +0.580 C 
ATOM      8  N   LIG    1        3.406   3.930  -0.568  0.00  0.00    -0.610 N 
ATOM      9  C   LIG    1        4.396   2.908  -0.932  0.00  0.00    +0.270 C 
ATOM     10  C   LIG    1        5.045   3.310  -2.266  0.00  0.00    +0.040 C 
ATOM     11  C   LIG    1        5.602   4.726  -2.151  0.00  0.00    +0.160 C 
ATOM     12  C   LIG    1        4.485   5.717  -1.832  0.00  0.00    +0.030 C 
ATOM     13  C   LIG    1        6.288   5.124  -3.473  0.00  0.00    +0.060 C 
ATOM     14  C   LIG    1        7.474   5.979  -2.966  0.00  0.00    +0.050 C 
ATOM     15  C   LIG    1        7.711   5.485  -1.556  0.00  0.00    +0.520 C 
ATOM     16  O   LIG    1        8.715   5.691  -0.907  0.00  0.00    -0.530 OA
ATOM     17  N   LIG    1        6.646   4.784  -1.126  0.00  0.00    -0.720 N 
ATOM     18  H   LIG    1        6.579   4.371  -0.251  0.00  0.00    +0.410 HD
ATOM     19  C   LIG    1        3.832   5.335  -0.499  0.00  0.00    +0.280 C 
ATOM     20  O   LIG    1        1.299   4.447  -0.090  0.00  0.00    -0.530 OA
ENDBRANCH   5   7
BRANCH   1  22
ATOM     21  C   LIG    1        3.072  -2.209   0.940  0.00  0.00    +0.550 C 
ATOM     22  N   LIG    1        2.814  -0.965   1.389  0.00  0.00    -0.670 N 
ATOM     23  H   LIG    1        3.125  -0.692   2.266  0.00  0.00    +0.410 HD
ATOM     24  O   LIG    1        2.611  -2.581  -0.123  0.00  0.00    -0.520 OA
BRANCH  21  26
ATOM     25  C   LIG    1        4.167  -4.346   1.291  0.00  0.00    +0.160 C 
ATOM     26  C   LIG    1        3.912  -3.118   1.734  0.00  0.00    -0.090 C 
ENDBRANCH  21  26
ENDBRANCH   1  22
BRANCH   4  27
ATOM     27  O   LIG    1       -0.038   2.561  -1.787  0.00  0.00    -0.490 OA
ATOM     28  H   LIG    1       -0.786   2.980  -1.340  0.00  0.00    +0.400 HD
ENDBRANCH   4  27
TORSDOF 4
