REMARK  Name = ZINCrH000004mJCf.1
REMARK                            x       y       z     vdW  Elec       q    Type
REMARK                         _______ _______ _______ _____ _____    ______ ____
ROOT
ATOM      1  C   LIG    1        1.271  -0.438  -0.042  0.00  0.00    +0.280 A 
ATOM      2  N   LIG    1        2.075   0.601  -0.039  0.00  0.00    -0.260 NA
ATOM      3  N   LIG    1        1.263   1.746  -0.015  0.00  0.00    -0.460 N 
ATOM      4  H   LIG    1        1.562   2.669  -0.007  0.00  0.00    +0.450 HD
ATOM      5  C   LIG    1       -0.016   1.310  -0.004  0.00  0.00    +0.240 A 
ATOM      6  N   LIG    1        0.002  -0.004  -0.021  0.00  0.00    -0.530 NA
ENDROOT
BRANCH   1  13
ATOM      7  C   LIG    1        3.056  -2.184  -0.092  0.00  0.00    +0.170 A 
ATOM      8  C   LIG    1        3.446  -3.513  -0.108  0.00  0.00    -0.050 A 
ATOM      9  C   LIG    1        2.493  -4.514  -0.110  0.00  0.00    +0.090 A 
ATOM     10  C   LIG    1        1.146  -4.196  -0.089  0.00  0.00    -0.080 A 
ATOM     11  C   LIG    1        0.744  -2.874  -0.067  0.00  0.00    +0.120 A 
ATOM     12 CL   LIG    1       -0.042  -5.462  -0.091  0.00  0.00    -0.060 Cl
ATOM     13  C   LIG    1        1.697  -1.859  -0.066  0.00  0.00    -0.040 A 
BRANCH   7  15
ATOM     14  C   LIG    1        5.362  -1.606  -0.126  0.00  0.00    +0.240 C 
ATOM     15  O   LIG    1        3.992  -1.199  -0.098  0.00  0.00    -0.290 OA
ENDBRANCH   7  15
ENDBRANCH   1  13
BRANCH   5  16
ATOM     16  S   LIG    1       -1.455   2.326   0.020  0.00  0.00    +0.100 S 
BRANCH  16  17
ATOM     17  C   LIG    1       -2.740   1.051   0.015  0.00  0.00    +0.130 C 
BRANCH  17  18
ATOM     18  C   LIG    1       -4.097   1.705   0.035  0.00  0.00    +0.530 C 
ATOM     19  N   LIG    1       -5.211   0.946   0.035  0.00  0.00    -0.660 N 
ATOM     20  H   LIG    1       -5.141  -0.018  -0.045  0.00  0.00    +0.420 HD
ATOM     21  O   LIG    1       -4.188   2.914   0.050  0.00  0.00    -0.500 OA
BRANCH  19  22
ATOM     22  C   LIG    1       -6.469   1.549   0.150  0.00  0.00    +0.140 A 
ATOM     23  C   LIG    1       -7.487   0.907   0.844  0.00  0.00    +0.030 A 
ATOM     24  C   LIG    1       -8.729   1.500   0.966  0.00  0.00    +0.040 A 
ATOM     25  C   LIG    1       -8.971   2.730   0.389  0.00  0.00    +0.060 A 
ATOM     26  C   LIG    1       -7.956   3.382  -0.316  0.00  0.00    -0.010 A 
ATOM     27  C   LIG    1       -6.701   2.785  -0.434  0.00  0.00    +0.080 A 
BRANCH  26  28
ATOM     28  C   LIG    1       -8.204   4.659  -0.916  0.00  0.00    +0.250 C 
ATOM     29  N   LIG    1       -8.401   5.671  -1.392  0.00  0.00    -0.410 NA
ENDBRANCH  26  28
ENDBRANCH  19  22
ENDBRANCH  17  18
ENDBRANCH  16  17
ENDBRANCH   5  16
TORSDOF 7
