REMARK  Name = ZINCrH000004mJCf.0
REMARK                            x       y       z     vdW  Elec       q    Type
REMARK                         _______ _______ _______ _____ _____    ______ ____
ROOT
ATOM      1  C   LIG    1        0.707   0.559  -4.807  0.00  0.00    +0.350 A 
ATOM      2  N   LIG    1       -0.198   1.193  -4.088  0.00  0.00    -0.480 NA
ATOM      3  C   LIG    1        0.058   1.019  -2.789  0.00  0.00    +0.190 A 
ATOM      4  N   LIG    1        1.133   0.276  -2.660  0.00  0.00    -0.320 NA
ATOM      5  N   LIG    1        1.570  -0.040  -3.957  0.00  0.00    -0.470 N 
ATOM      6  H   LIG    1        2.341  -0.578  -4.195  0.00  0.00    +0.440 HD
ENDROOT
BRANCH   1  13
ATOM      7  C   LIG    1       -0.199   1.177  -7.049  0.00  0.00    +0.190 A 
ATOM      8  C   LIG    1       -0.132   1.133  -8.432  0.00  0.00    -0.050 A 
ATOM      9  C   LIG    1        0.880   0.426  -9.053  0.00  0.00    +0.110 A 
ATOM     10  C   LIG    1        1.835  -0.237  -8.301  0.00  0.00    -0.080 A 
ATOM     11  C   LIG    1        1.784  -0.197  -6.921  0.00  0.00    +0.090 A 
ATOM     12 CL   LIG    1        3.102  -1.121  -9.094  0.00  0.00    -0.060 Cl
ATOM     13  C   LIG    1        0.767   0.513  -6.284  0.00  0.00    -0.070 A 
BRANCH   7  15
ATOM     14  C   LIG    1       -2.147   2.519  -7.282  0.00  0.00    +0.250 C 
ATOM     15  O   LIG    1       -1.196   1.867  -6.437  0.00  0.00    -0.270 OA
ENDBRANCH   7  15
ENDBRANCH   1  13
BRANCH   3  16
ATOM     16  S   LIG    1       -0.890   1.685  -1.462  0.00  0.00    +0.120 S 
BRANCH  16  17
ATOM     17  C   LIG    1       -0.016   1.080   0.008  0.00  0.00    +0.100 C 
BRANCH  17  18
ATOM     18  C   LIG    1       -0.717   1.573   1.248  0.00  0.00    +0.540 C 
ATOM     19  N   LIG    1       -0.242   1.246   2.466  0.00  0.00    -0.670 N 
ATOM     20  H   LIG    1        0.511   0.639   2.546  0.00  0.00    +0.420 HD
ATOM     21  O   LIG    1       -1.708   2.265   1.149  0.00  0.00    -0.500 OA
BRANCH  19  22
ATOM     22  C   LIG    1       -0.833   1.782   3.615  0.00  0.00    +0.140 A 
ATOM     23  C   LIG    1       -0.051   2.086   4.723  0.00  0.00    +0.030 A 
ATOM     24  C   LIG    1       -0.629   2.621   5.858  0.00  0.00    +0.040 A 
ATOM     25  C   LIG    1       -1.990   2.846   5.905  0.00  0.00    +0.060 A 
ATOM     26  C   LIG    1       -2.786   2.539   4.799  0.00  0.00    -0.010 A 
ATOM     27  C   LIG    1       -2.201   2.005   3.651  0.00  0.00    +0.080 A 
BRANCH  26  28
ATOM     28  C   LIG    1       -4.199   2.772   4.844  0.00  0.00    +0.250 C 
ATOM     29  N   LIG    1       -5.319   2.957   4.880  0.00  0.00    -0.410 NA
ENDBRANCH  26  28
ENDBRANCH  19  22
ENDBRANCH  17  18
ENDBRANCH  16  17
ENDBRANCH   3  16
TORSDOF 7
