REMARK  Name = ZINCrg00000BofKV.0
REMARK                            x       y       z     vdW  Elec       q    Type
REMARK                         _______ _______ _______ _____ _____    ______ ____
ROOT
ATOM      1  C   LIG    1       -2.623   1.146  -0.139  0.00  0.00    +0.510 C 
ATOM      2  N   LIG    1       -3.788   1.776   0.115  0.00  0.00    -0.570 N 
ATOM      3  C   LIG    1       -3.829   3.235   0.292  0.00  0.00    +0.300 C 
ATOM      4  C   LIG    1       -4.496   3.541   1.637  0.00  0.00    +0.050 C 
ATOM      5  C   LIG    1       -5.860   2.862   1.703  0.00  0.00    +0.150 C 
ATOM      6  O   LIG    1       -6.716   3.353   0.672  0.00  0.00    -0.370 OA
ATOM      7  C   LIG    1       -8.055   2.852   0.743  0.00  0.00    +0.220 C 
ATOM      8  C   LIG    1       -8.038   1.328   0.586  0.00  0.00    +0.240 C 
ATOM      9  N   LIG    1       -7.071   0.766   1.542  0.00  0.00    -0.610 N 
ATOM     10  C   LIG    1       -7.413  -0.241   2.371  0.00  0.00    +0.570 C 
ATOM     11  O   LIG    1       -6.631  -0.620   3.222  0.00  0.00    -0.520 OA
ATOM     12  C   LIG    1       -5.713   1.344   1.560  0.00  0.00    +0.230 C 
ATOM     13  C   LIG    1       -5.042   1.021   0.215  0.00  0.00    +0.290 C 
ATOM     14  O   LIG    1       -2.615  -0.045  -0.367  0.00  0.00    -0.520 OA
ENDROOT
BRANCH  10  15
ATOM     15  C   LIG    1       -8.738  -0.884   2.246  0.00  0.00    -0.120 A 
ATOM     16  C   LIG    1       -9.378  -1.397   3.375  0.00  0.00    +0.080 A 
ATOM     17  C   LIG    1      -10.617  -1.991   3.253  0.00  0.00    +0.030 A 
ATOM     18  C   LIG    1      -11.221  -2.089   2.013  0.00  0.00    +0.060 A 
ATOM     19  C   LIG    1      -10.590  -1.587   0.887  0.00  0.00    -0.040 A 
ATOM     20 CL   LIG    1      -11.357  -1.714  -0.665  0.00  0.00    -0.060 Cl
ATOM     21  C   LIG    1       -9.353  -0.985   0.997  0.00  0.00    +0.060 A 
ENDBRANCH  10  15
BRANCH   1  23
ATOM     22  O   LIG    1       -1.360   3.123  -0.020  0.00  0.00    -0.500 OA
ATOM     23  C   LIG    1       -1.342   1.916  -0.140  0.00  0.00    +0.520 C 
ATOM     24  N   LIG    1       -0.168   1.269  -0.273  0.00  0.00    -0.670 N 
ATOM     25  H   LIG    1       -0.154   0.304  -0.369  0.00  0.00    +0.420 HD
BRANCH  24  26
ATOM     26  C   LIG    1        1.088   2.024  -0.280  0.00  0.00    +0.210 C 
ATOM     27  C   LIG    1        2.136   1.643  -1.328  0.00  0.00    +0.020 C 
ATOM     28  C   LIG    1        2.359   1.285   0.143  0.00  0.00    +0.030 C 
ENDBRANCH  24  26
ENDBRANCH   1  23
TORSDOF 3
