REMARK  Name = ZINCrH000004qi5z.0
REMARK                            x       y       z     vdW  Elec       q    Type
REMARK                         _______ _______ _______ _____ _____    ______ ____
ROOT
ATOM      1  C   LIG    1        1.799  -1.777  -0.364  0.00  0.00    +0.600 C 
ATOM      2  N   LIG    1        3.109  -1.998  -0.588  0.00  0.00    -0.630 N 
ATOM      3  H   LIG    1        3.729  -1.252  -0.614  0.00  0.00    +0.410 HD
ATOM      4  O   LIG    1        1.021  -2.712  -0.331  0.00  0.00    -0.540 OA
ENDROOT
BRANCH   1   8
ATOM      5  N   LIG    1       -0.009   1.329   0.207  0.00  0.00    -0.370 N 
ATOM      6  C   LIG    1        1.252   1.839   0.059  0.00  0.00    +0.040 A 
ATOM      7  C   LIG    1        2.107   0.828  -0.168  0.00  0.00    +0.000 A 
ATOM      8  C   LIG    1        1.308  -0.403  -0.160  0.00  0.00    -0.220 A 
ATOM      9  C   LIG    1        1.621   3.298   0.139  0.00  0.00    +0.140 C 
ATOM     10  C   LIG    1        0.017  -0.020   0.076  0.00  0.00    +0.130 A 
ATOM     11  C   LIG    1       -1.173  -0.939   0.174  0.00  0.00    +0.150 C 
BRANCH   5  15
ATOM     12  C   LIG    1       -4.612   3.247   0.061  0.00  0.00    +0.210 C 
ATOM     13  C   LIG    1       -3.175   2.923   0.380  0.00  0.00    -0.010 A 
ATOM     14  C   LIG    1       -2.407   1.982  -0.215  0.00  0.00    -0.050 A 
ATOM     15  C   LIG    1       -1.157   2.089   0.450  0.00  0.00    +0.220 A 
ATOM     16  N   LIG    1       -1.297   3.035   1.340  0.00  0.00    -0.350 NA
ATOM     17  O   LIG    1       -2.409   3.511   1.310  0.00  0.00    +0.120 OA
ENDBRANCH   5  15
ENDBRANCH   1   8
BRANCH   2  18
ATOM     18  C   LIG    1        3.578  -3.310  -0.783  0.00  0.00    +0.000 A 
ATOM     19  C   LIG    1        2.825  -4.439  -0.766  0.00  0.00    +0.260 A 
ATOM     20  N   LIG    1        3.655  -5.489  -0.998  0.00  0.00    -0.390 N 
ATOM     21  N   LIG    1        4.952  -4.986  -1.152  0.00  0.00    -0.270 NA
ATOM     22  C   LIG    1        4.908  -3.685  -1.024  0.00  0.00    +0.070 A 
ATOM     23  C   LIG    1        6.085  -2.749  -1.119  0.00  0.00    +0.160 C 
BRANCH  20  24
ATOM     24  C   LIG    1        3.262  -6.899  -1.069  0.00  0.00    +0.370 C 
BRANCH  24  25
ATOM     25  C   LIG    1        3.732  -7.494  -2.398  0.00  0.00    +0.440 C 
ATOM     26  F   LIG    1        3.144  -6.792  -3.456  0.00  0.00    -0.180 F 
ATOM     27  F   LIG    1        3.357  -8.840  -2.465  0.00  0.00    -0.180 F 
ATOM     28  F   LIG    1        5.124  -7.392  -2.488  0.00  0.00    -0.160 F 
ENDBRANCH  24  25
ENDBRANCH  20  24
ENDBRANCH   2  18
TORSDOF 5
