REMARK  Name = ZINCnE000001D5On.0
REMARK                            x       y       z     vdW  Elec       q    Type
REMARK                         _______ _______ _______ _____ _____    ______ ____
ROOT
ATOM      1  S   LIG    1       -1.017   6.439  -1.054  0.00  0.00    +2.690 S 
ATOM      2  O   LIG    1       -0.832   5.764  -2.290  0.00  0.00    -0.950 OA
ATOM      3  O   LIG    1       -0.766   7.827  -0.881  0.00  0.00    -0.960 OA
ENDROOT
BRANCH   1   7
ATOM      4  C   LIG    1       -5.332   5.764   0.138  0.00  0.00    -0.010 A 
ATOM      5  C   LIG    1       -4.663   6.893   0.572  0.00  0.00    -0.010 A 
ATOM      6  C   LIG    1       -3.346   7.099   0.209  0.00  0.00    +0.120 A 
ATOM      7  C   LIG    1       -2.696   6.176  -0.590  0.00  0.00    -0.680 A 
ATOM      8  C   LIG    1       -3.366   5.049  -1.028  0.00  0.00    +0.140 A 
ATOM      9  C   LIG    1       -4.682   4.840  -0.660  0.00  0.00    +0.000 A 
BRANCH   4  11
ATOM     10  C   LIG    1       -7.626   6.697   0.020  0.00  0.00    +0.040 C 
ATOM     11  C   LIG    1       -6.768   5.539   0.534  0.00  0.00    -0.040 C 
ATOM     12  C   LIG    1       -6.871   5.466   2.059  0.00  0.00    +0.040 C 
ATOM     13  C   LIG    1       -7.266   4.226  -0.074  0.00  0.00    +0.030 C 
ENDBRANCH   4  11
ENDBRANCH   1   7
BRANCH   1  14
ATOM     14  N   LIG    1       -0.073   5.651   0.055  0.00  0.00    -1.050 N 
ATOM     15  H   LIG    1        0.527   6.155   0.626  0.00  0.00    +0.420 HD
BRANCH  14  16
ATOM     16  C   LIG    1       -0.141   4.268   0.168  0.00  0.00    +0.100 A 
ATOM     17  C   LIG    1        0.452   3.463  -0.801  0.00  0.00    +0.010 A 
ATOM     18  C   LIG    1        0.388   2.103  -0.694  0.00  0.00    +0.050 A 
ATOM     19  C   LIG    1       -0.275   1.519   0.392  0.00  0.00    -0.120 A 
ATOM     20  C   LIG    1       -0.874   2.332   1.361  0.00  0.00    +0.050 A 
ATOM     21  C   LIG    1       -0.801   3.691   1.250  0.00  0.00    +0.000 A 
BRANCH  19  22
ATOM     22  C   LIG    1       -0.347   0.054   0.511  0.00  0.00    +0.520 C 
ATOM     23  O   LIG    1       -0.926  -0.455   1.460  0.00  0.00    -0.690 OA
ATOM     24  O   LIG    1        0.173  -0.655  -0.340  0.00  0.00    -0.680 OA
ENDBRANCH  19  22
ENDBRANCH  14  16
ENDBRANCH   1  14
TORSDOF 5
