REMARK  Name = ZINCrD000000fFKB.0
REMARK                            x       y       z     vdW  Elec       q    Type
REMARK                         _______ _______ _______ _____ _____    ______ ____
ROOT
ATOM      1  C   LIG    1       -0.886   3.510  -1.160  0.00  0.00    +0.510 C 
ATOM      2  N   LIG    1       -1.507   4.180  -2.151  0.00  0.00    -0.730 N 
ATOM      3  H   LIG    1       -1.872   3.696  -2.909  0.00  0.00    +0.400 HD
ATOM      4  O   LIG    1       -0.430   4.114  -0.212  0.00  0.00    -0.520 OA
ENDROOT
BRANCH   2   5
ATOM      5  C   LIG    1       -1.632   5.638  -2.083  0.00  0.00    +0.290 C 
ATOM      6  C   LIG    1       -0.362   6.284  -2.640  0.00  0.00    +0.040 C 
BRANCH   5   7
ATOM      7  C   LIG    1       -2.819   6.079  -2.898  0.00  0.00    -0.100 A 
ATOM      8  C   LIG    1       -3.082   5.478  -4.116  0.00  0.00    +0.040 A 
ATOM      9  C   LIG    1       -4.173   5.877  -4.863  0.00  0.00    +0.000 A 
ATOM     10  C   LIG    1       -5.000   6.889  -4.396  0.00  0.00    +0.140 A 
ATOM     11  C   LIG    1       -4.731   7.494  -3.176  0.00  0.00    +0.010 A 
ATOM     12  C   LIG    1       -3.641   7.088  -2.431  0.00  0.00    +0.060 A 
BRANCH  10  13
ATOM     13  N   LIG    1       -6.106   7.300  -5.155  0.00  0.00    -0.410 N 
ATOM     14  C   LIG    1       -6.489   6.800  -6.373  0.00  0.00    +0.120 A 
ATOM     15  C   LIG    1       -7.597   7.472  -6.738  0.00  0.00    +0.160 A 
ATOM     16  N   LIG    1       -7.882   8.364  -5.779  0.00  0.00    -0.480 NA
ATOM     17  C   LIG    1       -6.996   8.271  -4.825  0.00  0.00    +0.400 A 
ENDBRANCH  10  13
ENDBRANCH   5   7
ENDBRANCH   2   5
BRANCH   1  18
ATOM     18  C   LIG    1       -0.758   2.010  -1.229  0.00  0.00    +0.060 C 
BRANCH  18  19
ATOM     19  C   LIG    1       -0.018   1.503   0.010  0.00  0.00    +0.350 C 
BRANCH  19  22
ATOM     20  C   LIG    1        3.448   2.663   1.146  0.00  0.00    +0.090 C 
ATOM     21  C   LIG    1        2.035   2.141   1.157  0.00  0.00    +0.520 C 
ATOM     22  N   LIG    1        1.356   2.010  -0.000  0.00  0.00    -0.720 N 
ATOM     23  H   LIG    1        1.778   2.251  -0.840  0.00  0.00    +0.400 HD
ATOM     24  O   LIG    1        1.507   1.840   2.207  0.00  0.00    -0.540 OA
ENDBRANCH  19  22
BRANCH  19  25
ATOM     25  C   LIG    1        0.002  -0.004   0.002  0.00  0.00    -0.190 A 
ATOM     26  C   LIG    1       -0.816  -0.788   0.706  0.00  0.00    +0.020 A 
ATOM     27  C   LIG    1       -0.610  -2.147   0.538  0.00  0.00    +0.010 A 
ATOM     28  C   LIG    1        0.375  -2.466  -0.303  0.00  0.00    -0.050 A 
ATOM     29  S   LIG    1        1.103  -0.998  -0.944  0.00  0.00    +0.100 S 
ENDBRANCH  19  25
ENDBRANCH  18  19
ENDBRANCH   1  18
TORSDOF 7
