REMARK  Name = ZINCkj00000vIgpb.0
REMARK                            x       y       z     vdW  Elec       q    Type
REMARK                         _______ _______ _______ _____ _____    ______ ____
ROOT
ATOM      1  N   LIG    1       -6.777  -0.349   1.883  0.00  0.00    -0.380 N 
ATOM      2  C   LIG    1       -5.651  -1.106   2.446  0.00  0.00    +0.270 C 
ATOM      3  C   LIG    1       -4.451  -0.174   2.632  0.00  0.00    +0.200 C 
ATOM      4  N   LIG    1       -4.076   0.402   1.333  0.00  0.00    -0.530 NA
ATOM      5  C   LIG    1       -5.202   1.143   0.746  0.00  0.00    +0.210 C 
ATOM      6  C   LIG    1       -6.395   0.200   0.575  0.00  0.00    +0.280 C 
ATOM      7  H   LIG    1       -7.019   0.407   2.507  0.00  0.00    +0.420 HD
ENDROOT
BRANCH   1   8
ATOM      8  C   LIG    1       -7.933  -1.240   1.722  0.00  0.00    +0.220 C 
BRANCH   8  10
ATOM      9  C   LIG    1      -10.347  -1.354   1.086  0.00  0.00    +0.050 C 
ATOM     10  C   LIG    1       -9.142  -0.426   1.254  0.00  0.00    +0.200 C 
BRANCH  10  11
ATOM     11  O   LIG    1       -9.446   0.577   2.225  0.00  0.00    -0.560 OA
ATOM     12  H   LIG    1       -9.659   0.226   3.100  0.00  0.00    +0.390 HD
ENDBRANCH  10  11
ENDBRANCH   8  10
ENDBRANCH   1   8
BRANCH   4  13
ATOM     13  C   LIG    1       -2.891   1.261   1.460  0.00  0.00    +0.180 C 
BRANCH  13  14
ATOM     14  C   LIG    1       -1.642   0.388   1.600  0.00  0.00    +0.270 C 
BRANCH  14  15
ATOM     15  C   LIG    1       -0.427   1.268   1.743  0.00  0.00    -0.120 A 
ATOM     16  C   LIG    1        0.323   1.597   0.631  0.00  0.00    +0.030 A 
ATOM     17  C   LIG    1        1.441   2.401   0.763  0.00  0.00    +0.030 A 
ATOM     18  C   LIG    1        1.805   2.880   2.007  0.00  0.00    +0.040 A 
ATOM     19  C   LIG    1        1.052   2.556   3.120  0.00  0.00    +0.040 A 
ATOM     20  C   LIG    1       -0.067   1.752   2.989  0.00  0.00    -0.030 A 
ATOM     21 CL   LIG    1       -1.012   1.345   4.386  0.00  0.00    -0.070 Cl
ENDBRANCH  14  15
BRANCH  14  22
ATOM     22  O   LIG    1       -1.501  -0.432   0.438  0.00  0.00    -0.540 OA
ATOM     23  H   LIG    1       -1.411   0.066  -0.386  0.00  0.00    +0.380 HD
ENDBRANCH  14  22
ENDBRANCH  13  14
ENDBRANCH   4  13
TORSDOF 7
