REMARK  Name = ZINCqH0000001trx.0
REMARK                            x       y       z     vdW  Elec       q    Type
REMARK                         _______ _______ _______ _____ _____    ______ ____
ROOT
ATOM      1  C   LIG    1       -3.729   1.615   2.048  0.00  0.00    +0.370 A 
ATOM      2  N   LIG    1       -4.137   1.450   3.282  0.00  0.00    -0.530 NA
ATOM      3  C   LIG    1       -3.788   0.359   4.004  0.00  0.00    +0.160 A 
ATOM      4  C   LIG    1       -4.222   0.184   5.321  0.00  0.00    +0.030 A 
ATOM      5  C   LIG    1       -3.844  -0.940   6.019  0.00  0.00    +0.070 A 
ATOM      6  C   LIG    1       -3.034  -1.903   5.433  0.00  0.00    +0.000 A 
ATOM      7  C   LIG    1       -2.592  -1.754   4.137  0.00  0.00    +0.100 A 
ATOM      8  C   LIG    1       -2.963  -0.624   3.410  0.00  0.00    -0.200 A 
ATOM      9  C   LIG    1       -2.525  -0.416   2.023  0.00  0.00    +0.560 A 
ATOM     10  O   LIG    1       -1.819  -1.229   1.456  0.00  0.00    -0.500 OA
ATOM     11  N   LIG    1       -2.932   0.715   1.401  0.00  0.00    -0.530 N 
ENDROOT
BRANCH   1  12
ATOM     12  S   LIG    1       -4.232   3.065   1.183  0.00  0.00    -0.000 S 
BRANCH  12  13
ATOM     13  C   LIG    1       -5.230   3.865   2.465  0.00  0.00    +0.100 C 
BRANCH  13  14
ATOM     14  C   LIG    1       -5.789   5.184   1.927  0.00  0.00    +0.050 C 
BRANCH  14  15
ATOM     15  C   LIG    1       -6.632   5.859   3.010  0.00  0.00    +0.170 C 
BRANCH  15  16
ATOM     16  O   LIG    1       -7.154   7.091   2.508  0.00  0.00    -0.380 OA
BRANCH  16  18
ATOM     17  C   LIG    1       -7.849   9.308   3.175  0.00  0.00    +0.040 C 
ATOM     18  C   LIG    1       -7.961   7.806   3.446  0.00  0.00    +0.140 C 
ATOM     19  C   LIG    1       -9.420   7.369   3.301  0.00  0.00    +0.010 C 
ENDBRANCH  16  18
ENDBRANCH  15  16
ENDBRANCH  14  15
ENDBRANCH  13  14
ENDBRANCH  12  13
ENDBRANCH   1  12
BRANCH  11  20
ATOM     20  C   LIG    1       -2.519   0.972   0.019  0.00  0.00    +0.370 C 
BRANCH  20  21
ATOM     21  C   LIG    1       -1.223   1.743   0.017  0.00  0.00    -0.180 A 
ATOM     22  C   LIG    1       -1.231   3.129   0.031  0.00  0.00    +0.090 A 
ATOM     23  C   LIG    1       -0.015   3.796   0.023  0.00  0.00    -0.040 A 
ATOM     24  C   LIG    1        1.155   3.062   0.007  0.00  0.00    +0.270 A 
ATOM     25  N   LIG    1        1.125   1.743   0.001  0.00  0.00    -0.480 NA
ATOM     26  C   LIG    1       -0.013   1.076   0.008  0.00  0.00    +0.290 A 
ENDBRANCH  20  21
ENDBRANCH  11  20
TORSDOF 8
