REMARK  Name = ZINCnE00000dmbS8.0
REMARK                            x       y       z     vdW  Elec       q    Type
REMARK                         _______ _______ _______ _____ _____    ______ ____
ROOT
ATOM      1  N   LIG    1       -2.452   3.788  -0.294  0.00  0.00    -1.080 NA
ENDROOT
BRANCH   1   6
ATOM      2  C   LIG    1        1.162   3.168   0.013  0.00  0.00    +0.170 A 
ATOM      3  C   LIG    1        1.175   1.790   0.186  0.00  0.00    -0.110 A 
ATOM      4  C   LIG    1       -0.012   1.082   0.199  0.00  0.00    +0.060 A 
ATOM      5  C   LIG    1       -1.215   1.742   0.034  0.00  0.00    -0.170 A 
ATOM      6  C   LIG    1       -1.235   3.121  -0.134  0.00  0.00    +0.300 A 
ATOM      7  C   LIG    1       -0.045   3.835  -0.147  0.00  0.00    -0.090 A 
BRANCH   2  10
ATOM      8  C   LIG    1        4.798   4.043  -0.410  0.00  0.00    +0.090 C 
ATOM      9  C   LIG    1        3.479   3.320  -0.505  0.00  0.00    +0.500 C 
ATOM     10  N   LIG    1        2.364   3.884   0.001  0.00  0.00    -0.670 N 
ATOM     11  H   LIG    1        2.395   4.786   0.357  0.00  0.00    +0.400 HD
ATOM     12  O   LIG    1        3.420   2.232  -1.036  0.00  0.00    -0.530 OA
ENDBRANCH   2  10
ENDBRANCH   1   6
BRANCH   1  13
ATOM     13  S   LIG    1       -3.872   2.936  -0.279  0.00  0.00    +2.590 S 
ATOM     14  O   LIG    1       -4.016   2.422   1.038  0.00  0.00    -1.010 OA
ATOM     15  O   LIG    1       -3.858   2.113  -1.437  0.00  0.00    -0.990 OA
BRANCH  13  16
ATOM     16  C   LIG    1       -5.178   4.096  -0.506  0.00  0.00    -0.650 A 
ATOM     17  C   LIG    1       -5.771   4.695   0.592  0.00  0.00    +0.230 A 
ATOM     18  C   LIG    1       -6.795   5.609   0.412  0.00  0.00    -0.050 A 
ATOM     19  C   LIG    1       -7.232   5.916  -0.864  0.00  0.00    +0.170 A 
ATOM     20  C   LIG    1       -6.642   5.312  -1.962  0.00  0.00    -0.010 A 
ATOM     21  F   LIG    1       -8.234   6.805  -1.040  0.00  0.00    -0.120 F 
ATOM     22  F   LIG    1       -5.348   4.390   1.838  0.00  0.00    -0.100 F 
ATOM     23  C   LIG    1       -5.616   4.403  -1.782  0.00  0.00    +0.040 A 
ATOM     24 BR   LIG    1       -4.810   3.579  -3.281  0.00  0.00    +0.030 Br
ENDBRANCH  13  16
ENDBRANCH   1  13
TORSDOF 4
