REMARK  Name = ZINCpk00000y6wUQ.0
REMARK                            x       y       z     vdW  Elec       q    Type
REMARK                         _______ _______ _______ _____ _____    ______ ____
ROOT
ATOM      1  C   LIG    1        0.184  -2.683  -2.182  0.00  0.00    +0.580 C 
ATOM      2  N   LIG    1        0.333  -1.973  -1.046  0.00  0.00    -0.700 N 
ATOM      3  H   LIG    1        0.379  -2.430  -0.191  0.00  0.00    +0.420 HD
ATOM      4  O   LIG    1        0.127  -2.111  -3.252  0.00  0.00    -0.510 OA
ENDROOT
BRANCH   2   5
ATOM      5  C   LIG    1        0.425  -0.512  -1.101  0.00  0.00    +0.230 C 
ATOM      6  C   LIG    1       -0.030   0.080   0.235  0.00  0.00    +0.050 C 
ATOM      7  C   LIG    1        0.033   1.607   0.166  0.00  0.00    +0.060 C 
ATOM      8  C   LIG    1        1.480   2.043  -0.088  0.00  0.00    +0.220 C 
ATOM      9  N   LIG    1        1.974   1.364  -1.294  0.00  0.00    -0.610 N 
ATOM     10  C   LIG    1        2.506   2.070  -2.311  0.00  0.00    +0.500 C 
ATOM     11  O   LIG    1        2.494   3.283  -2.279  0.00  0.00    -0.520 OA
ATOM     12  C   LIG    1        3.118   1.353  -3.486  0.00  0.00    +0.110 C 
ATOM     13  C   LIG    1        1.876  -0.100  -1.370  0.00  0.00    +0.280 C 
BRANCH   8  14
ATOM     14  C   LIG    1        1.530   3.558  -0.296  0.00  0.00    +0.470 C 
ATOM     15  F   LIG    1        0.802   3.896  -1.442  0.00  0.00    -0.170 F 
ATOM     16  F   LIG    1        2.860   3.964  -0.452  0.00  0.00    -0.170 F 
ATOM     17  F   LIG    1        0.974   4.200   0.816  0.00  0.00    -0.190 F 
ENDBRANCH   8  14
ENDBRANCH   2   5
BRANCH   1  20
ATOM     18  C   LIG    1        0.070  -6.119  -0.904  0.00  0.00    +0.570 A 
ATOM     19  N   LIG    1        0.158  -4.800  -0.959  0.00  0.00    -0.560 NA
ATOM     20  C   LIG    1        0.091  -4.163  -2.125  0.00  0.00    +0.170 A 
ATOM     21  C   LIG    1       -0.063  -4.908  -3.294  0.00  0.00    -0.070 A 
ATOM     22  C   LIG    1       -0.145  -6.290  -3.191  0.00  0.00    +0.220 A 
ATOM     23  C   LIG    1       -0.311  -7.138  -4.426  0.00  0.00    +0.160 C 
ATOM     24  N   LIG    1       -0.076  -6.854  -1.999  0.00  0.00    -0.550 NA
BRANCH  18  26
ATOM     25  C   LIG    1        0.048  -8.209   0.408  0.00  0.00    +0.300 C 
ATOM     26  N   LIG    1        0.138  -6.749   0.326  0.00  0.00    -0.700 N 
ATOM     27  H   LIG    1        0.245  -6.223   1.135  0.00  0.00    +0.420 HD
ENDBRANCH  18  26
ENDBRANCH   1  20
TORSDOF 4
