REMARK  Name = ZINCzw0000000bJQ.0
REMARK                            x       y       z     vdW  Elec       q    Type
REMARK                         _______ _______ _______ _____ _____    ______ ____
ROOT
ATOM      1  C   LIG    1       -0.712   3.177   0.159  0.00  0.00    +0.020 A 
ATOM      2  C   LIG    1        0.642   3.263   0.262  0.00  0.00    -0.040 A 
ATOM      3  N   LIG    1        1.088   2.053   0.696  0.00  0.00    -0.460 NA
ATOM      4  C   LIG    1        0.064   1.269   0.852  0.00  0.00    +0.450 A 
ATOM      5  O   LIG    1       -1.054   1.931   0.524  0.00  0.00    -0.190 OA
ENDROOT
BRANCH   2   6
ATOM      6  C   LIG    1        1.470   4.444  -0.042  0.00  0.00    +0.600 C 
ATOM      7  N   LIG    1        2.814   4.348  -0.021  0.00  0.00    -0.590 N 
ATOM      8  C   LIG    1        3.475   3.048   0.166  0.00  0.00    +0.310 C 
ATOM      9  C   LIG    1        4.514   2.870  -0.953  0.00  0.00    +0.180 C 
ATOM     10  N   LIG    1        5.417   4.029  -0.965  0.00  0.00    -0.460 N 
ATOM     11  C   LIG    1        4.690   5.267  -1.278  0.00  0.00    +0.230 C 
ATOM     12  C   LIG    1        3.659   5.542  -0.179  0.00  0.00    +0.300 C 
ATOM     13  O   LIG    1        0.940   5.505  -0.311  0.00  0.00    -0.530 OA
BRANCH  10  14
ATOM     14  C   LIG    1        6.466   3.832  -1.847  0.00  0.00    +0.380 A 
ATOM     15  N   LIG    1        6.789   4.623  -2.843  0.00  0.00    -0.510 NA
ATOM     16  C   LIG    1        7.860   4.119  -3.480  0.00  0.00    +0.160 A 
ATOM     17  C   LIG    1        8.213   2.974  -2.872  0.00  0.00    +0.130 A 
ATOM     18  N   LIG    1        7.332   2.784  -1.832  0.00  0.00    -0.570 N 
ATOM     19  H   LIG    1        7.329   2.042  -1.207  0.00  0.00    +0.420 HD
ENDBRANCH  10  14
ENDBRANCH   2   6
BRANCH   1  25
ATOM     20  C   LIG    1       -2.776   4.589   1.933  0.00  0.00    +0.530 C 
ATOM     21  N   LIG    1       -2.814   4.326   0.611  0.00  0.00    -0.590 N 
ATOM     22  C   LIG    1       -4.029   4.044  -0.180  0.00  0.00    +0.260 C 
ATOM     23  C   LIG    1       -3.654   4.427  -1.633  0.00  0.00    +0.060 C 
ATOM     24  C   LIG    1       -2.174   3.968  -1.704  0.00  0.00    +0.070 C 
ATOM     25  C   LIG    1       -1.649   4.271  -0.285  0.00  0.00    +0.360 C 
ATOM     26  O   LIG    1       -1.714   4.805   2.478  0.00  0.00    -0.510 OA
BRANCH  20  32
ATOM     27  N   LIG    1       -3.738   4.844   4.148  0.00  0.00    -0.360 N 
ATOM     28  C   LIG    1       -2.814   3.808   4.628  0.00  0.00    +0.250 C 
ATOM     29  C   LIG    1       -3.491   2.438   4.546  0.00  0.00    +0.060 C 
ATOM     30  C   LIG    1       -3.873   2.150   3.091  0.00  0.00    +0.040 C 
ATOM     31  C   LIG    1       -4.777   3.275   2.579  0.00  0.00    +0.070 C 
ATOM     32  C   LIG    1       -4.053   4.614   2.733  0.00  0.00    +0.170 C 
ATOM     33  H   LIG    1       -4.588   4.812   4.690  0.00  0.00    +0.420 HD
BRANCH  27  34
ATOM     34  C   LIG    1       -3.113   6.164   4.301  0.00  0.00    +0.240 C 
BRANCH  34  35
ATOM     35  C   LIG    1       -2.898   6.458   5.787  0.00  0.00    +0.030 C 
BRANCH  35  37
ATOM     36  C   LIG    1       -2.032   8.127   7.433  0.00  0.00    +0.030 C 
ATOM     37  C   LIG    1       -2.247   7.833   5.946  0.00  0.00    +0.020 C 
ENDBRANCH  35  37
ENDBRANCH  34  35
ENDBRANCH  27  34
ENDBRANCH  20  32
ENDBRANCH   1  25
TORSDOF 7
