REMARK  Name = ZINCzw0000000bJQ.1
REMARK                            x       y       z     vdW  Elec       q    Type
REMARK                         _______ _______ _______ _____ _____    ______ ____
ROOT
ATOM      1  C   LIG    1        0.780   6.620  -4.038  0.00  0.00    +0.020 A 
ATOM      2  C   LIG    1        0.398   5.539  -3.305  0.00  0.00    -0.040 A 
ATOM      3  N   LIG    1       -0.711   5.022  -3.901  0.00  0.00    -0.460 NA
ATOM      4  C   LIG    1       -0.998   5.751  -4.938  0.00  0.00    +0.450 A 
ATOM      5  O   LIG    1       -0.097   6.738  -5.048  0.00  0.00    -0.190 OA
ENDROOT
BRANCH   2   6
ATOM      6  C   LIG    1        1.063   5.021  -2.096  0.00  0.00    +0.600 C 
ATOM      7  N   LIG    1        0.645   3.867  -1.538  0.00  0.00    -0.590 N 
ATOM      8  C   LIG    1        1.352   3.286  -0.387  0.00  0.00    +0.300 C 
ATOM      9  C   LIG    1        1.663   1.818  -0.698  0.00  0.00    +0.230 C 
ATOM     10  N   LIG    1        0.423   1.128  -1.079  0.00  0.00    -0.460 N 
ATOM     11  C   LIG    1       -0.145   1.694  -2.309  0.00  0.00    +0.180 C 
ATOM     12  C   LIG    1       -0.530   3.157  -2.064  0.00  0.00    +0.310 C 
ATOM     13  O   LIG    1        1.990   5.634  -1.602  0.00  0.00    -0.530 OA
BRANCH  10  14
ATOM     14  C   LIG    1        0.633  -0.235  -1.210  0.00  0.00    +0.380 A 
ATOM     15  N   LIG    1        1.775  -0.856  -1.032  0.00  0.00    -0.510 NA
ATOM     16  C   LIG    1        1.603  -2.172  -1.240  0.00  0.00    +0.160 A 
ATOM     17  C   LIG    1        0.317  -2.382  -1.568  0.00  0.00    +0.130 A 
ATOM     18  N   LIG    1       -0.308  -1.156  -1.552  0.00  0.00    -0.570 N 
ATOM     19  H   LIG    1       -1.242  -0.981  -1.746  0.00  0.00    +0.420 HD
ENDBRANCH  10  14
ENDBRANCH   2   6
BRANCH   1  25
ATOM     20  C   LIG    1        0.610   9.544  -3.192  0.00  0.00    +0.520 C 
ATOM     21  N   LIG    1        1.567   8.922  -3.908  0.00  0.00    -0.600 N 
ATOM     22  C   LIG    1        2.392   9.543  -4.961  0.00  0.00    +0.260 C 
ATOM     23  C   LIG    1        2.844   8.363  -5.857  0.00  0.00    +0.060 C 
ATOM     24  C   LIG    1        3.072   7.244  -4.807  0.00  0.00    +0.060 C 
ATOM     25  C   LIG    1        1.963   7.513  -3.768  0.00  0.00    +0.360 C 
ATOM     26  O   LIG    1        0.056   8.960  -2.284  0.00  0.00    -0.510 OA
BRANCH  20  32
ATOM     27  N   LIG    1       -0.255  11.632  -2.303  0.00  0.00    -0.370 N 
ATOM     28  C   LIG    1       -0.558  13.039  -2.595  0.00  0.00    +0.260 C 
ATOM     29  C   LIG    1       -1.693  13.118  -3.618  0.00  0.00    +0.060 C 
ATOM     30  C   LIG    1       -1.262  12.410  -4.905  0.00  0.00    +0.060 C 
ATOM     31  C   LIG    1       -0.878  10.964  -4.576  0.00  0.00    +0.080 C 
ATOM     32  C   LIG    1        0.228  10.965  -3.518  0.00  0.00    +0.160 C 
ATOM     33  H   LIG    1       -1.089  11.170  -1.975  0.00  0.00    +0.430 HD
BRANCH  27  34
ATOM     34  C   LIG    1        0.781  11.562  -1.264  0.00  0.00    +0.240 C 
BRANCH  34  35
ATOM     35  C   LIG    1        0.227  12.123   0.047  0.00  0.00    +0.040 C 
BRANCH  35  37
ATOM     36  C   LIG    1        0.751  12.611   2.441  0.00  0.00    +0.030 C 
ATOM     37  C   LIG    1        1.305  12.050   1.130  0.00  0.00    +0.020 C 
ENDBRANCH  35  37
ENDBRANCH  34  35
ENDBRANCH  27  34
ENDBRANCH  20  32
ENDBRANCH   1  25
TORSDOF 7
