REMARK  Name = ZINCpk00000e9BaH.0
REMARK                            x       y       z     vdW  Elec       q    Type
REMARK                         _______ _______ _______ _____ _____    ______ ____
ROOT
ATOM      1  C   LIG    1        1.164   7.855  -3.020  0.00  0.00    +0.250 C 
ENDROOT
BRANCH   1   2
ATOM      2  C   LIG    1        1.086   7.355  -1.601  0.00  0.00    +0.520 C 
ATOM      3  N   LIG    1        0.847   6.051  -1.358  0.00  0.00    -0.720 N 
ATOM      4  H   LIG    1        0.725   5.435  -2.097  0.00  0.00    +0.410 HD
ATOM      5  O   LIG    1        1.239   8.126  -0.677  0.00  0.00    -0.510 OA
BRANCH   3   6
ATOM      6  C   LIG    1        0.771   5.565   0.022  0.00  0.00    +0.340 C 
BRANCH   6   7
ATOM      7  C   LIG    1        0.496   4.083   0.018  0.00  0.00    -0.100 A 
ATOM      8  C   LIG    1       -0.808   3.624   0.028  0.00  0.00    +0.050 A 
ATOM      9  C   LIG    1       -1.065   2.265   0.019  0.00  0.00    +0.040 A 
ATOM     10  C   LIG    1       -0.016   1.361   0.009  0.00  0.00    +0.040 A 
ATOM     11  O   LIG    1        0.002  -0.004   0.002  0.00  0.00    -0.310 OA
ATOM     12  C   LIG    1        1.336  -0.373   0.399  0.00  0.00    +0.430 C 
ATOM     13  O   LIG    1        2.139   0.749  -0.014  0.00  0.00    -0.310 OA
ATOM     14  C   LIG    1        1.297   1.824  -0.001  0.00  0.00    +0.030 A 
ATOM     15  C   LIG    1        1.548   3.186   0.004  0.00  0.00    +0.060 A 
ENDBRANCH   6   7
ENDBRANCH   3   6
ENDBRANCH   1   2
BRANCH   1  16
ATOM     16  O   LIG    1        1.425   9.260  -3.016  0.00  0.00    -0.330 OA
BRANCH  16  17
ATOM     17  C   LIG    1        1.526   9.868  -4.217  0.00  0.00    +0.560 C 
ATOM     18  O   LIG    1        1.395   9.221  -5.239  0.00  0.00    -0.500 OA
BRANCH  17  20
ATOM     19  C   LIG    1        1.909  12.000  -5.431  0.00  0.00    +0.240 A 
ATOM     20  C   LIG    1        1.783  11.260  -4.287  0.00  0.00    -0.360 A 
ATOM     21  S   LIG    1        1.992  12.348  -2.917  0.00  0.00    +0.190 S 
ATOM     22  C   LIG    1        2.231  13.663  -3.982  0.00  0.00    +0.330 A 
ATOM     23  N   LIG    1        2.146  13.269  -5.221  0.00  0.00    -0.560 NA
BRANCH  22  24
ATOM     24  N   LIG    1        2.474  14.960  -3.586  0.00  0.00    -0.800 N 
ATOM     25  H   LIG    1        2.524  15.178  -2.642  0.00  0.00    +0.420 HD
ATOM     26  H   LIG    1        2.596  15.656  -4.251  0.00  0.00    +0.420 HD
ENDBRANCH  22  24
BRANCH  19  28
ATOM     27  C   LIG    1        0.325  11.467  -7.263  0.00  0.00    +0.040 C 
ATOM     28  C   LIG    1        1.785  11.406  -6.811  0.00  0.00    +0.120 C 
ENDBRANCH  19  28
ENDBRANCH  17  20
ENDBRANCH  16  17
ENDBRANCH   1  16
TORSDOF 8
