REMARK  Name = ZINCtV00000L6jzH.0
REMARK                            x       y       z     vdW  Elec       q    Type
REMARK                         _______ _______ _______ _____ _____    ______ ____
ROOT
ATOM      1  C   LIG    1        4.186  -4.388  -0.168  0.00  0.00    +0.230 A 
ATOM      2  C   LIG    1        4.398  -5.761  -0.167  0.00  0.00    +0.020 A 
ATOM      3  C   LIG    1        3.328  -6.626  -0.053  0.00  0.00    +0.080 A 
ATOM      4  C   LIG    1        2.039  -6.134   0.068  0.00  0.00    +0.000 A 
ATOM      5  C   LIG    1        1.810  -4.775   0.075  0.00  0.00    +0.070 A 
ATOM      6  C   LIG    1        2.882  -3.887  -0.041  0.00  0.00    -0.180 A 
ENDROOT
BRANCH   1   9
ATOM      7  O   LIG    1        6.286  -4.864  -1.727  0.00  0.00    -0.480 OA
ATOM      8  C   LIG    1        6.317  -3.847  -1.062  0.00  0.00    +0.550 C 
ATOM      9  N   LIG    1        5.263  -3.514  -0.290  0.00  0.00    -0.660 N 
ATOM     10  H   LIG    1        5.255  -2.666   0.181  0.00  0.00    +0.420 HD
BRANCH   8  11
ATOM     11  C   LIG    1        7.509  -2.975  -1.099  0.00  0.00    -0.120 A 
ATOM     12  C   LIG    1        7.547  -1.806  -0.337  0.00  0.00    +0.070 A 
ATOM     13  C   LIG    1        8.663  -0.997  -0.376  0.00  0.00    +0.030 A 
ATOM     14  C   LIG    1        9.744  -1.340  -1.169  0.00  0.00    +0.060 A 
ATOM     15  C   LIG    1        9.713  -2.496  -1.928  0.00  0.00    +0.040 A 
ATOM     16  C   LIG    1        8.605  -3.319  -1.894  0.00  0.00    -0.040 A 
ATOM     17 BR   LIG    1        8.568  -4.903  -2.926  0.00  0.00    -0.010 Br
ENDBRANCH   8  11
ENDBRANCH   1   9
BRANCH   6  18
ATOM     18  C   LIG    1        2.643  -2.432  -0.035  0.00  0.00    +0.580 C 
ATOM     19  N   LIG    1        1.383  -1.955  -0.019  0.00  0.00    -0.610 N 
ATOM     20  H   LIG    1        0.632  -2.570  -0.012  0.00  0.00    +0.430 HD
ATOM     21  O   LIG    1        3.584  -1.662  -0.044  0.00  0.00    -0.510 OA
BRANCH  19  22
ATOM     22  C   LIG    1        1.159  -0.585  -0.014  0.00  0.00    +0.280 A 
ATOM     23  N   LIG    1       -0.007  -0.018   0.001  0.00  0.00    -0.490 NA
ATOM     24  C   LIG    1       -0.029   1.314   0.004  0.00  0.00    +0.160 A 
ATOM     25  C   LIG    1        1.180   1.908  -0.009  0.00  0.00    -0.110 A 
ATOM     26  S   LIG    1        2.413   0.650  -0.026  0.00  0.00    +0.220 S 
BRANCH  24  27
ATOM     27  C   LIG    1       -1.290   2.086   0.014  0.00  0.00    -0.130 A 
ATOM     28  C   LIG    1       -2.528   1.553   0.017  0.00  0.00    +0.050 A 
ATOM     29  C   LIG    1       -3.554   2.478   0.030  0.00  0.00    +0.000 A 
ATOM     30  C   LIG    1       -3.164   3.755   0.030  0.00  0.00    -0.040 A 
ATOM     31  S   LIG    1       -1.407   3.841   0.018  0.00  0.00    +0.130 S 
ENDBRANCH  24  27
ENDBRANCH  19  22
ENDBRANCH   6  18
TORSDOF 5
