REMARK  Name = ZINCpk00000xI8KY.0
REMARK                            x       y       z     vdW  Elec       q    Type
REMARK                         _______ _______ _______ _____ _____    ______ ____
ROOT
ATOM      1  C   LIG    1       -2.364   2.644   3.688  0.00  0.00    -0.020 A 
ATOM      2  C   LIG    1       -2.561   1.383   3.117  0.00  0.00    +0.030 A 
ATOM      3  C   LIG    1       -1.843   1.017   1.998  0.00  0.00    +0.130 A 
ATOM      4  C   LIG    1       -0.930   1.894   1.440  0.00  0.00    -0.670 A 
ATOM      5  C   LIG    1       -0.725   3.142   2.002  0.00  0.00    +0.130 A 
ATOM      6  C   LIG    1       -1.439   3.525   3.117  0.00  0.00    +0.020 A 
ENDROOT
BRANCH   4   7
ATOM      7  S   LIG    1       -0.017   1.417   0.010  0.00  0.00    +2.690 S 
ATOM      8  O   LIG    1        1.162   2.210   0.003  0.00  0.00    -0.950 OA
ATOM      9  O   LIG    1        0.002  -0.004   0.002  0.00  0.00    -0.950 OA
BRANCH   7  10
ATOM     10  N   LIG    1       -0.900   1.880  -1.312  0.00  0.00    -1.000 NA
BRANCH  10  11
ATOM     11  C   LIG    1       -1.879   0.961  -1.898  0.00  0.00    +0.290 C 
ATOM     12  C   LIG    1       -3.266   1.259  -1.323  0.00  0.00    +0.010 C 
ENDBRANCH  10  11
BRANCH  10  13
ATOM     13  C   LIG    1       -0.702   3.208  -1.897  0.00  0.00    +0.280 C 
ATOM     14  C   LIG    1        0.296   3.114  -3.052  0.00  0.00    +0.010 C 
ENDBRANCH  10  13
ENDBRANCH   7  10
ENDBRANCH   4   7
BRANCH   1  16
ATOM     15  C   LIG    1       -2.933   4.261   5.430  0.00  0.00    -0.020 C 
ATOM     16  C   LIG    1       -3.125   3.043   4.882  0.00  0.00    +0.130 C 
BRANCH  15  17
ATOM     17  C   LIG    1       -3.689   4.656   6.617  0.00  0.00    +0.500 C 
ATOM     18  O   LIG    1       -4.492   3.888   7.111  0.00  0.00    -0.510 OA
BRANCH  17  19
ATOM     19  O   LIG    1       -3.496   5.874   7.165  0.00  0.00    -0.320 OA
BRANCH  19  20
ATOM     20  C   LIG    1       -4.269   6.194   8.323  0.00  0.00    +0.250 C 
BRANCH  20  23
ATOM     21  N   LIG    1       -4.531   8.102   9.876  0.00  0.00    -0.730 N 
ATOM     22  H   LIG    1       -5.194   7.580  10.356  0.00  0.00    +0.400 HD
ATOM     23  C   LIG    1       -3.922   7.584   8.791  0.00  0.00    +0.510 C 
ATOM     24  O   LIG    1       -3.093   8.236   8.192  0.00  0.00    -0.510 OA
BRANCH  21  26
ATOM     25  C   LIG    1       -5.021   9.796  11.571  0.00  0.00    +0.030 C 
ATOM     26  C   LIG    1       -4.193   9.453  10.331  0.00  0.00    +0.250 C 
ENDBRANCH  21  26
ENDBRANCH  20  23
ENDBRANCH  19  20
ENDBRANCH  17  19
ENDBRANCH  15  17
ENDBRANCH   1  16
TORSDOF 10
