REMARK  Name = ZINCkj000005f7CC.0
REMARK                            x       y       z     vdW  Elec       q    Type
REMARK                         _______ _______ _______ _____ _____    ______ ____
ROOT
ATOM      1  N   LIG    1       -2.202   9.832  -4.077  0.00  0.00    -0.360 N 
ATOM      2  C   LIG    1       -2.278   8.429  -4.477  0.00  0.00    +0.260 C 
ATOM      3  C   LIG    1       -1.167   8.129  -5.459  0.00  0.00    +0.060 C 
ATOM      4  C   LIG    1        0.055   7.583  -4.699  0.00  0.00    +0.280 C 
ATOM      5  N   LIG    1        0.256   8.307  -3.427  0.00  0.00    -0.630 N 
ATOM      6  C   LIG    1        0.098   9.743  -3.319  0.00  0.00    +0.330 C 
ATOM      7  C   LIG    1        0.593   7.606  -2.326  0.00  0.00    +0.510 C 
ATOM      8  O   LIG    1        0.763   8.178  -1.271  0.00  0.00    -0.510 OA
ATOM      9  C   LIG    1       -1.362  10.091  -2.971  0.00  0.00    +0.230 C 
ATOM     10  H   LIG    1       -1.869  10.370  -4.863  0.00  0.00    +0.410 HD
ENDROOT
BRANCH   1  12
ATOM     11  C   LIG    1       -3.490  11.722  -3.201  0.00  0.00    +0.090 C 
ATOM     12  C   LIG    1       -3.557  10.294  -3.748  0.00  0.00    +0.150 C 
ATOM     13  C   LIG    1       -4.424  10.271  -5.009  0.00  0.00    +0.090 C 
ENDBRANCH   1  12
BRANCH   7  14
ATOM     14  C   LIG    1        0.758   6.110  -2.407  0.00  0.00    +0.060 C 
BRANCH  14  15
ATOM     15  C   LIG    1        1.139   5.564  -1.030  0.00  0.00    +0.120 C 
BRANCH  15  16
ATOM     16  C   LIG    1        1.304   4.068  -1.111  0.00  0.00    -0.200 A 
ATOM     17  C   LIG    1        2.535   3.505  -1.412  0.00  0.00    +0.320 A 
ATOM     18  N   LIG    1        2.642   2.188  -1.474  0.00  0.00    -0.510 NA
ATOM     19  C   LIG    1        1.598   1.414  -1.254  0.00  0.00    +0.500 A 
ATOM     20  N   LIG    1        0.412   1.914  -0.970  0.00  0.00    -0.520 NA
ATOM     21  C   LIG    1        0.230   3.222  -0.886  0.00  0.00    +0.320 A 
ENDBRANCH  15  16
ENDBRANCH  14  15
ENDBRANCH   7  14
TORSDOF 4
