REMARK  Name = ZINCkj000005f7CC.1
REMARK                            x       y       z     vdW  Elec       q    Type
REMARK                         _______ _______ _______ _____ _____    ______ ____
ROOT
ATOM      1  N   LIG    1        1.787  10.018  -3.860  0.00  0.00    -0.360 N 
ATOM      2  C   LIG    1        1.685   8.607  -4.223  0.00  0.00    +0.260 C 
ATOM      3  C   LIG    1        0.386   8.373  -4.961  0.00  0.00    +0.060 C 
ATOM      4  C   LIG    1       -0.699   7.934  -3.961  0.00  0.00    +0.280 C 
ATOM      5  N   LIG    1       -0.596   8.692  -2.698  0.00  0.00    -0.630 N 
ATOM      6  C   LIG    1       -0.332  10.116  -2.668  0.00  0.00    +0.330 C 
ATOM      7  C   LIG    1       -0.759   8.037  -1.531  0.00  0.00    +0.510 C 
ATOM      8  O   LIG    1       -0.679   8.639  -0.482  0.00  0.00    -0.510 OA
ATOM      9  C   LIG    1        1.200  10.358  -2.621  0.00  0.00    +0.220 C 
ATOM     10  H   LIG    1        1.345  10.565  -4.583  0.00  0.00    +0.420 HD
ENDROOT
BRANCH   1  12
ATOM     11  C   LIG    1        3.949   9.440  -2.864  0.00  0.00    +0.090 C 
ATOM     12  C   LIG    1        3.209  10.384  -3.815  0.00  0.00    +0.150 C 
ATOM     13  C   LIG    1        3.810  10.268  -5.218  0.00  0.00    +0.090 C 
ENDBRANCH   1  12
BRANCH   7  14
ATOM     14  C   LIG    1       -1.041   6.557  -1.532  0.00  0.00    +0.060 C 
BRANCH  14  15
ATOM     15  C   LIG    1       -1.182   6.064  -0.090  0.00  0.00    +0.120 C 
BRANCH  15  16
ATOM     16  C   LIG    1       -1.464   4.584  -0.090  0.00  0.00    -0.200 A 
ATOM     17  C   LIG    1       -0.428   3.664  -0.052  0.00  0.00    +0.320 A 
ATOM     18  N   LIG    1       -0.713   2.372  -0.053  0.00  0.00    -0.520 NA
ATOM     19  C   LIG    1       -1.964   1.957  -0.091  0.00  0.00    +0.500 A 
ATOM     20  N   LIG    1       -2.974   2.803  -0.133  0.00  0.00    -0.510 NA
ATOM     21  C   LIG    1       -2.765   4.109  -0.129  0.00  0.00    +0.320 A 
ENDBRANCH  15  16
ENDBRANCH  14  15
ENDBRANCH   7  14
TORSDOF 4
