REMARK  Name = ZINCpe000000Zpm0.0
REMARK                            x       y       z     vdW  Elec       q    Type
REMARK                         _______ _______ _______ _____ _____    ______ ____
ROOT
ATOM      1  O   LIG    1       -1.290   5.570  -0.976  0.00  0.00    -0.560 OA
ATOM      2  C   LIG    1       -1.590   4.398  -0.854  0.00  0.00    +0.720 C 
ATOM      3  N   LIG    1       -0.780   3.562  -0.176  0.00  0.00    -0.630 N 
ATOM      4  C   LIG    1        0.497   4.061   0.308  0.00  0.00    +0.330 C 
ATOM      5  C   LIG    1        1.664   3.168  -0.083  0.00  0.00    +0.320 C 
ATOM      6  N   LIG    1        1.291   1.756  -0.016  0.00  0.00    -0.550 N 
ATOM      7  C   LIG    1        2.121   0.697   0.015  0.00  0.00    +0.650 A 
ATOM      8  N   LIG    1        1.357  -0.416  -0.016  0.00  0.00    -0.550 N 
ATOM      9  H   LIG    1        1.677  -1.332  -0.031  0.00  0.00    +0.460 HD
ATOM     10  N   LIG    1        0.017  -0.004  -0.023  0.00  0.00    -0.260 NA
ATOM     11  O   LIG    1        3.338   0.736   0.061  0.00  0.00    -0.550 OA
ATOM     12  C   LIG    1       -0.005   1.285  -0.009  0.00  0.00    +0.270 A 
ATOM     13  C   LIG    1       -1.216   2.184   0.048  0.00  0.00    +0.440 C 
ATOM     14  N   LIG    1       -2.734   3.935  -1.397  0.00  0.00    -0.650 N 
ATOM     15  H   LIG    1       -3.012   3.020  -1.235  0.00  0.00    +0.410 HD
ENDROOT
BRANCH  14  16
ATOM     16  C   LIG    1       -3.525   4.781  -2.199  0.00  0.00    +0.010 A 
ATOM     17  C   LIG    1       -4.690   4.444  -2.808  0.00  0.00    +0.200 A 
ATOM     18  N   LIG    1       -5.134   5.539  -3.478  0.00  0.00    -0.370 N 
ATOM     19  N   LIG    1       -4.207   6.570  -3.279  0.00  0.00    -0.270 NA
ATOM     20  C   LIG    1       -3.246   6.118  -2.515  0.00  0.00    +0.260 A 
BRANCH  18  21
ATOM     21  C   LIG    1       -6.361   5.624  -4.274  0.00  0.00    +0.380 C 
BRANCH  21  22
ATOM     22  C   LIG    1       -7.200   6.776  -3.782  0.00  0.00    -0.110 A 
ATOM     23  C   LIG    1       -8.139   6.572  -2.789  0.00  0.00    +0.020 A 
ATOM     24  C   LIG    1       -8.905   7.629  -2.334  0.00  0.00    +0.000 A 
ATOM     25  C   LIG    1       -8.739   8.888  -2.880  0.00  0.00    +0.010 A 
ATOM     26  C   LIG    1       -7.803   9.091  -3.877  0.00  0.00    +0.000 A 
ATOM     27  C   LIG    1       -7.033   8.035  -4.328  0.00  0.00    +0.040 A 
ENDBRANCH  21  22
ENDBRANCH  18  21
ENDBRANCH  14  16
TORSDOF 3
