REMARK  Name = ZINCvU0000000ECF.0
REMARK                            x       y       z     vdW  Elec       q    Type
REMARK                         _______ _______ _______ _____ _____    ______ ____
ROOT
ATOM      1  C   LIG    1        2.826   5.572   0.173  0.00  0.00    +0.020 A 
ATOM      2  C   LIG    1        2.659   6.648  -0.723  0.00  0.00    -0.210 A 
ATOM      3  C   LIG    1        1.729   6.922  -1.816  0.00  0.00    +0.150 A 
ATOM      4  N   LIG    1        2.038   8.084  -2.306  0.00  0.00    -0.260 NA
ATOM      5  O   LIG    1        3.138   8.622  -1.600  0.00  0.00    -0.070 OA
ATOM      6  C   LIG    1        0.616   6.022  -2.288  0.00  0.00    +0.190 C 
ATOM      7  C   LIG    1        3.520   7.757  -0.639  0.00  0.00    +0.310 A 
ATOM      8  N   LIG    1        4.478   7.788   0.274  0.00  0.00    -0.460 NA
ATOM      9  C   LIG    1        4.662   6.795   1.129  0.00  0.00    +0.260 A 
ATOM     10  C   LIG    1        3.847   5.661   1.116  0.00  0.00    -0.010 A 
ENDROOT
BRANCH   9  11
ATOM     11  C   LIG    1        5.754   6.891   2.128  0.00  0.00    -0.070 A 
ATOM     12  C   LIG    1        6.031   5.814   2.968  0.00  0.00    +0.040 A 
ATOM     13  C   LIG    1        7.052   5.908   3.892  0.00  0.00    +0.010 A 
ATOM     14  C   LIG    1        7.793   7.072   3.993  0.00  0.00    +0.040 A 
ATOM     15  C   LIG    1        7.519   8.146   3.165  0.00  0.00    +0.010 A 
ATOM     16  C   LIG    1        6.504   8.062   2.234  0.00  0.00    +0.070 A 
ENDBRANCH   9  11
BRANCH   1  18
ATOM     17  N   LIG    1        2.467   3.161  -0.072  0.00  0.00    -0.500 N 
ATOM     18  C   LIG    1        1.941   4.388   0.116  0.00  0.00    +0.560 C 
ATOM     19  O   LIG    1        0.739   4.521   0.239  0.00  0.00    -0.480 OA
BRANCH  17  20
ATOM     20  C   LIG    1        1.631   2.063  -0.223  0.00  0.00    +0.240 A 
ATOM     21  N   LIG    1        2.031   0.848  -0.408  0.00  0.00    -0.500 NA
ATOM     22  C   LIG    1        1.104  -0.094  -0.535  0.00  0.00    +0.090 A 
ATOM     23  C   LIG    1       -0.150   0.382  -0.448  0.00  0.00    -0.270 A 
ATOM     24  C   LIG    1       -1.406  -0.450  -0.556  0.00  0.00    +0.120 C 
ATOM     25  C   LIG    1       -1.043  -1.806  -1.169  0.00  0.00    +0.020 C 
ATOM     26  C   LIG    1        0.161  -2.385  -0.421  0.00  0.00    +0.030 C 
ATOM     27  C   LIG    1        1.410  -1.568  -0.757  0.00  0.00    +0.120 C 
ATOM     28  S   LIG    1       -0.076   2.120  -0.192  0.00  0.00    +0.230 S 
ENDBRANCH  17  20
BRANCH  17  29
ATOM     29  C   LIG    1        3.921   2.987  -0.117  0.00  0.00    +0.330 C 
BRANCH  29  31
ATOM     30  C   LIG    1        5.318   3.876  -1.912  0.00  0.00    +0.050 C 
ATOM     31  C   LIG    1        4.388   3.028  -1.550  0.00  0.00    -0.060 C 
ENDBRANCH  29  31
ENDBRANCH  17  29
ENDBRANCH   1  18
TORSDOF 5
