REMARK  Name = ZINCpk000000oA3r.0
REMARK                            x       y       z     vdW  Elec       q    Type
REMARK                         _______ _______ _______ _____ _____    ______ ____
ROOT
ATOM      1  S   LIG    1        2.732   2.884   3.977  0.00  0.00    +2.710 S 
ATOM      2  O   LIG    1        1.730   3.606   3.274  0.00  0.00    -0.940 OA
ATOM      3  O   LIG    1        3.274   3.316   5.218  0.00  0.00    -0.950 OA
ENDROOT
BRANCH   1   4
ATOM      4  C   LIG    1        2.083   1.270   4.252  0.00  0.00    -0.670 A 
ATOM      5  C   LIG    1        0.948   0.859   3.579  0.00  0.00    +0.180 A 
ATOM      6  C   LIG    1        0.438  -0.409   3.789  0.00  0.00    +0.000 A 
ATOM      7  C   LIG    1        1.059  -1.268   4.683  0.00  0.00    +0.110 A 
ATOM      8  O   LIG    1        0.539  -2.510   4.887  0.00  0.00    -0.300 OA
ATOM      9  C   LIG    1        1.400  -3.474   5.503  0.00  0.00    +0.230 C 
ATOM     10  C   LIG    1        2.079  -2.810   6.709  0.00  0.00    +0.230 C 
ATOM     11  O   LIG    1        2.828  -1.684   6.238  0.00  0.00    -0.300 OA
ATOM     12  C   LIG    1        2.199  -0.854   5.362  0.00  0.00    +0.020 A 
ATOM     13  C   LIG    1        2.707   0.418   5.145  0.00  0.00    +0.130 A 
ENDBRANCH   1   4
BRANCH   1  18
ATOM     14  C   LIG    1        3.971   2.963   1.483  0.00  0.00    +0.230 C 
ATOM     15  C   LIG    1        5.142   2.124   0.913  0.00  0.00    +0.060 C 
ATOM     16  C   LIG    1        6.216   2.297   2.018  0.00  0.00    +0.050 C 
ATOM     17  C   LIG    1        5.378   2.333   3.313  0.00  0.00    +0.260 C 
ATOM     18  N   LIG    1        4.012   2.728   2.938  0.00  0.00    -0.990 NA
BRANCH  14  20
ATOM     19  N   LIG    1        2.003   3.246   0.011  0.00  0.00    -0.600 N 
ATOM     20  C   LIG    1        2.659   2.489   0.912  0.00  0.00    +0.510 C 
ATOM     21  O   LIG    1        2.194   1.425   1.264  0.00  0.00    -0.530 OA
BRANCH  19  23
ATOM     22  C   LIG    1        0.816   1.951  -1.691  0.00  0.00    +0.010 C 
ATOM     23  C   LIG    1        0.674   2.843  -0.456  0.00  0.00    +0.270 C 
ENDBRANCH  19  23
BRANCH  19  24
ATOM     24  C   LIG    1        2.619   4.473  -0.502  0.00  0.00    +0.260 C 
ATOM     25  C   LIG    1        2.186   5.660   0.360  0.00  0.00    +0.010 C 
ENDBRANCH  19  24
ENDBRANCH  14  20
ENDBRANCH   1  18
TORSDOF 5
