REMARK  Name = ZINCtV00000L6klM.0
REMARK                            x       y       z     vdW  Elec       q    Type
REMARK                         _______ _______ _______ _____ _____    ______ ____
ROOT
ATOM      1  C   LIG    1        4.861   1.825   0.141  0.00  0.00    -0.090 C 
ATOM      2  C   LIG    1        5.248   0.507   0.061  0.00  0.00    +0.270 C 
ENDROOT
BRANCH   2   3
ATOM      3  C   LIG    1        4.241  -0.552   0.065  0.00  0.00    -0.200 A 
ATOM      4  C   LIG    1        3.062  -0.564  -0.628  0.00  0.00    +0.330 A 
ATOM      5  N   LIG    1        2.393  -1.717  -0.371  0.00  0.00    -0.580 N 
ATOM      6  H   LIG    1        1.531  -1.953  -0.748  0.00  0.00    +0.420 HD
ATOM      7  C   LIG    1        3.111  -2.506   0.504  0.00  0.00    +0.090 A 
ATOM      8  C   LIG    1        2.875  -3.754   1.071  0.00  0.00    +0.000 A 
ATOM      9  C   LIG    1        3.800  -4.304   1.932  0.00  0.00    +0.020 A 
ATOM     10  C   LIG    1        4.970  -3.625   2.241  0.00  0.00    -0.020 A 
ATOM     11  C   LIG    1        5.221  -2.387   1.689  0.00  0.00    +0.040 A 
ATOM     12  C   LIG    1        4.298  -1.823   0.813  0.00  0.00    -0.070 A 
ENDBRANCH   2   3
BRANCH   1  18
ATOM     13  C   LIG    1        9.898   5.060  -0.887  0.00  0.00    +0.030 A 
ATOM     14  C   LIG    1        9.191   6.245  -0.741  0.00  0.00    +0.040 A 
ATOM     15  C   LIG    1        7.842   6.213  -0.465  0.00  0.00    +0.060 A 
ATOM     16  C   LIG    1        7.182   4.993  -0.332  0.00  0.00    -0.170 A 
ATOM     17  S   LIG    1        5.496   4.618   0.013  0.00  0.00    +0.060 S 
ATOM     18  C   LIG    1        5.850   2.897  -0.061  0.00  0.00    +0.170 A 
ATOM     19  N   LIG    1        7.104   2.707  -0.312  0.00  0.00    -0.460 NA
ATOM     20  C   LIG    1        7.883   3.790  -0.476  0.00  0.00    +0.090 A 
ATOM     21  C   LIG    1        9.266   3.849  -0.758  0.00  0.00    +0.070 A 
ENDBRANCH   1  18
BRANCH   1  22
ATOM     22  C   LIG    1        3.457   2.164   0.429  0.00  0.00    +0.170 A 
ATOM     23  N   LIG    1        2.543   1.310   0.758  0.00  0.00    -0.450 NA
ATOM     24  C   LIG    1        1.303   1.774   0.990  0.00  0.00    +0.090 A 
ATOM     25  C   LIG    1        0.146   1.054   1.361  0.00  0.00    +0.060 A 
ATOM     26  C   LIG    1       -1.046   1.707   1.551  0.00  0.00    +0.030 A 
ATOM     27  C   LIG    1       -1.132   3.082   1.393  0.00  0.00    +0.040 A 
ATOM     28  C   LIG    1       -0.017   3.805   1.032  0.00  0.00    +0.060 A 
ATOM     29  C   LIG    1        1.201   3.161   0.830  0.00  0.00    -0.170 A 
ATOM     30  S   LIG    1        2.783   3.787   0.372  0.00  0.00    +0.060 S 
ENDBRANCH   1  22
TORSDOF 3
