REMARK  Name = ZINCpk00000KfL1G.0
REMARK                            x       y       z     vdW  Elec       q    Type
REMARK                         _______ _______ _______ _____ _____    ______ ____
ROOT
ATOM      1  C   LIG    1        0.059   1.323  -2.401  0.00  0.00    +0.200 C 
ATOM      2  C   LIG    1       -0.587   2.055  -3.581  0.00  0.00    +0.030 C 
ATOM      3  C   LIG    1        0.199   1.741  -4.857  0.00  0.00    +0.050 C 
ATOM      4  C   LIG    1        0.222   0.227  -5.077  0.00  0.00    +0.180 C 
ATOM      5  N   LIG    1        0.849  -0.427  -3.921  0.00  0.00    -0.480 N 
ATOM      6  C   LIG    1        0.086  -0.179  -2.691  0.00  0.00    +0.160 C 
ENDROOT
BRANCH   5   7
ATOM      7  C   LIG    1        1.005  -1.791  -4.144  0.00  0.00    +0.240 A 
ATOM      8  C   LIG    1       -0.099  -2.578  -4.471  0.00  0.00    +0.000 A 
ATOM      9  C   LIG    1        0.110  -3.931  -4.684  0.00  0.00    +0.040 A 
ATOM     10  C   LIG    1        1.403  -4.420  -4.559  0.00  0.00    +0.070 A 
ATOM     11  N   LIG    1        2.389  -3.603  -4.247  0.00  0.00    -0.230 NA
ATOM     12  C   LIG    1        1.680  -5.885  -4.781  0.00  0.00    +0.160 C 
ATOM     13  N   LIG    1        2.204  -2.348  -4.053  0.00  0.00    -0.210 NA
ENDBRANCH   5   7
BRANCH   1  14
ATOM     14  N   LIG    1       -0.723   1.572  -1.182  0.00  0.00    -0.520 NA
ATOM     15  C   LIG    1       -2.059   0.969  -1.281  0.00  0.00    +0.200 C 
BRANCH  14  16
ATOM     16  C   LIG    1       -0.013   1.086   0.008  0.00  0.00    +0.350 C 
BRANCH  16  20
ATOM     17  C   LIG    1       -1.996   1.757   2.924  0.00  0.00    +0.170 A 
ATOM     18  N   LIG    1       -1.224   2.800   2.858  0.00  0.00    -0.370 NA
ATOM     19  O   LIG    1       -0.479   2.711   1.905  0.00  0.00    +0.090 OA
ATOM     20  C   LIG    1       -0.718   1.572   1.248  0.00  0.00    +0.190 A 
ATOM     21  N   LIG    1       -1.680   0.955   1.891  0.00  0.00    -0.470 NA
BRANCH  17  22
ATOM     22  C   LIG    1       -3.051   1.493   3.968  0.00  0.00    +0.180 C 
BRANCH  22  23
ATOM     23  C   LIG    1       -2.429   0.732   5.141  0.00  0.00    +0.180 C 
BRANCH  23  25
ATOM     24  C   LIG    1       -2.949  -0.227   7.275  0.00  0.00    +0.200 C 
ATOM     25  O   LIG    1       -3.429   0.482   6.130  0.00  0.00    -0.390 OA
ENDBRANCH  23  25
ENDBRANCH  22  23
ENDBRANCH  17  22
ENDBRANCH  16  20
ENDBRANCH  14  16
ENDBRANCH   1  14
TORSDOF 7
