REMARK  Name = ZINCpe00000MJJcs.0
REMARK                            x       y       z     vdW  Elec       q    Type
REMARK                         _______ _______ _______ _____ _____    ______ ____
ROOT
ATOM      1  N   LIG    1       -0.721   1.571  -1.179  0.00  0.00    -0.730 N 
ATOM      2  H   LIG    1       -1.516   2.118  -1.079  0.00  0.00    +0.400 HD
ATOM      3  C   LIG    1       -0.268   1.258  -2.409  0.00  0.00    +0.530 C 
ATOM      4  O   LIG    1        0.726   0.575  -2.534  0.00  0.00    -0.530 OA
ENDROOT
BRANCH   3   5
ATOM      5  C   LIG    1       -0.997   1.758  -3.630  0.00  0.00    +0.000 C 
ATOM      6  C   LIG    1       -0.942   3.301  -3.715  0.00  0.00    +0.080 C 
ATOM      7  C   LIG    1       -0.802   3.586  -5.194  0.00  0.00    +0.520 C 
ATOM      8  N   LIG    1       -0.424   2.473  -5.846  0.00  0.00    -0.620 N 
ATOM      9  O   LIG    1       -1.003   4.662  -5.716  0.00  0.00    -0.520 OA
ATOM     10  C   LIG    1       -0.259   1.343  -4.922  0.00  0.00    +0.300 C 
BRANCH   8  11
ATOM     11  C   LIG    1       -0.206   2.396  -7.293  0.00  0.00    +0.430 C 
BRANCH  11  12
ATOM     12  C   LIG    1        1.232   2.724  -7.602  0.00  0.00    -0.040 A 
ATOM     13  C   LIG    1        2.245   1.840  -7.662  0.00  0.00    -0.040 A 
ATOM     14  C   LIG    1        3.410   2.574  -7.981  0.00  0.00    -0.070 A 
ATOM     15  C   LIG    1        3.042   3.864  -8.089  0.00  0.00    +0.170 A 
ATOM     16  O   LIG    1        1.721   3.948  -7.858  0.00  0.00    -0.170 OA
ENDBRANCH  11  12
ENDBRANCH   8  11
ENDBRANCH   3   5
BRANCH   1  17
ATOM     17  C   LIG    1       -0.013   1.086   0.008  0.00  0.00    +0.270 C 
BRANCH  17  18
ATOM     18  C   LIG    1       -0.729   1.579   1.267  0.00  0.00    +0.160 C 
BRANCH  18  22
ATOM     19  C   LIG    1       -0.304   1.849   6.163  0.00  0.00    +0.050 C 
ATOM     20  C   LIG    1        0.275   1.245   4.882  0.00  0.00    +0.160 C 
ATOM     21  C   LIG    1       -0.531   1.735   3.676  0.00  0.00    +0.170 C 
ATOM     22  N   LIG    1       -0.018   1.093   2.457  0.00  0.00    -0.530 NA
ATOM     23  C   LIG    1       -0.108  -0.371   2.562  0.00  0.00    +0.160 C 
ATOM     24  C   LIG    1        0.694  -0.840   3.780  0.00  0.00    +0.200 C 
ATOM     25  C   LIG    1        2.171  -0.496   3.582  0.00  0.00    +0.020 C 
ATOM     26  O   LIG    1        0.202  -0.181   4.950  0.00  0.00    -0.380 OA
ENDBRANCH  18  22
ENDBRANCH  17  18
ENDBRANCH   1  17
TORSDOF 6
