REMARK  Name = ZINCpk00000Fmeyg.0
REMARK                            x       y       z     vdW  Elec       q    Type
REMARK                         _______ _______ _______ _____ _____    ______ ____
ROOT
ATOM      1  C   LIG    1        2.776  -0.824   3.683  0.00  0.00    +0.350 C 
ENDROOT
BRANCH   1   2
ATOM      2  C   LIG    1        1.534   0.028   3.639  0.00  0.00    -0.100 A 
ATOM      3  C   LIG    1        0.938   0.439   4.817  0.00  0.00    +0.030 A 
ATOM      4  C   LIG    1       -0.202   1.221   4.783  0.00  0.00    -0.030 A 
ATOM      5  C   LIG    1       -0.748   1.595   3.566  0.00  0.00    +0.110 A 
ATOM      6  C   LIG    1       -0.148   1.182   2.380  0.00  0.00    +0.110 A 
ATOM      7  C   LIG    1        0.990   0.393   2.422  0.00  0.00    +0.000 A 
BRANCH   6   8
ATOM      8  O   LIG    1       -0.682   1.547   1.184  0.00  0.00    -0.300 OA
ATOM      9  C   LIG    1       -0.013   1.086   0.008  0.00  0.00    +0.240 C 
ENDBRANCH   6   8
BRANCH   5  10
ATOM     10  O   LIG    1       -1.869   2.365   3.531  0.00  0.00    -0.300 OA
ATOM     11  C   LIG    1       -2.430   2.752   4.787  0.00  0.00    +0.240 C 
ENDBRANCH   5  10
ENDBRANCH   1   2
BRANCH   1  12
ATOM     12  N   LIG    1        2.652  -1.815   4.755  0.00  0.00    -0.690 N 
ATOM     13  H   LIG    1        2.071  -1.639   5.512  0.00  0.00    +0.420 HD
ATOM     14  C   LIG    1        3.344  -2.969   4.690  0.00  0.00    +0.590 C 
ATOM     15  O   LIG    1        4.072  -3.188   3.742  0.00  0.00    -0.520 OA
BRANCH  14  16
ATOM     16  C   LIG    1        3.219  -3.970   5.774  0.00  0.00    +0.020 A 
ATOM     17  C   LIG    1        3.930  -5.167   5.706  0.00  0.00    +0.300 A 
ATOM     18  N   LIG    1        3.819  -6.055   6.679  0.00  0.00    -0.440 NA
ATOM     19  C   LIG    1        3.027  -5.814   7.708  0.00  0.00    +0.110 A 
ATOM     20  C   LIG    1        2.313  -4.625   7.776  0.00  0.00    +0.230 A 
ATOM     21  C   LIG    1        2.898  -6.831   8.812  0.00  0.00    +0.160 C 
ATOM     22  N   LIG    1        2.422  -3.732   6.813  0.00  0.00    -0.410 NA
ENDBRANCH  14  16
ENDBRANCH   1  12
BRANCH   1  23
ATOM     23  C   LIG    1        3.976   0.050   3.942  0.00  0.00    +0.460 C 
ATOM     24  O   LIG    1        4.658  -0.136   4.923  0.00  0.00    -0.490 OA
BRANCH  23  26
ATOM     25  C   LIG    1        5.457   1.836   3.398  0.00  0.00    +0.260 C 
ATOM     26  O   LIG    1        4.288   1.034   3.085  0.00  0.00    -0.350 OA
ENDBRANCH  23  26
ENDBRANCH   1  23
TORSDOF 7
