REMARK  Name = ZINCrH00000No4GT.0
REMARK                            x       y       z     vdW  Elec       q    Type
REMARK                         _______ _______ _______ _____ _____    ______ ____
ROOT
ATOM      1  C   LIG    1       -0.067   6.022  -0.369  0.00  0.00    -0.120 A 
ATOM      2  C   LIG    1        0.588   5.543  -1.508  0.00  0.00    +0.120 A 
ATOM      3  C   LIG    1        1.008   6.425  -2.479  0.00  0.00    -0.080 A 
ATOM      4  C   LIG    1        0.792   7.789  -2.323  0.00  0.00    +0.160 A 
ATOM      5  C   LIG    1        0.147   8.269  -1.190  0.00  0.00    -0.020 A 
ATOM      6  C   LIG    1       -0.282   7.395  -0.216  0.00  0.00    +0.110 A 
ENDROOT
BRANCH   1   8
ATOM      7  N   LIG    1       -0.322   3.807   0.526  0.00  0.00    -0.290 NA
ATOM      8  C   LIG    1       -0.523   5.082   0.670  0.00  0.00    +0.350 C 
BRANCH   7  17
ATOM      9  C   LIG    1        1.481   2.379   2.101  0.00  0.00    +0.150 C 
ATOM     10  C   LIG    1       -0.007   2.189   2.246  0.00  0.00    +0.220 A 
ATOM     11  C   LIG    1       -0.480   1.310   3.165  0.00  0.00    -0.080 A 
ATOM     12  C   LIG    1       -1.855   1.123   3.312  0.00  0.00    +0.100 A 
ATOM     13  C   LIG    1       -2.726   1.851   2.504  0.00  0.00    -0.190 A 
ATOM     14  C   LIG    1       -2.184   2.758   1.558  0.00  0.00    +0.530 A 
ATOM     15  O   LIG    1       -2.925   3.407   0.839  0.00  0.00    -0.530 OA
ATOM     16  C   LIG    1       -2.390   0.149   4.330  0.00  0.00    +0.130 C 
ATOM     17  N   LIG    1       -0.849   2.905   1.460  0.00  0.00    -0.360 N 
BRANCH  13  18
ATOM     18  C   LIG    1       -4.143   1.686   2.626  0.00  0.00    +0.280 C 
ATOM     19  N   LIG    1       -5.267   1.555   2.722  0.00  0.00    -0.420 NA
ENDBRANCH  13  18
ENDBRANCH   7  17
ENDBRANCH   1   8
BRANCH   4  20
ATOM     20  O   LIG    1        1.213   8.655  -3.281  0.00  0.00    -0.300 OA
BRANCH  20  21
ATOM     21  C   LIG    1        1.869   8.094  -4.420  0.00  0.00    +0.260 C 
BRANCH  21  22
ATOM     22  C   LIG    1        2.261   9.198  -5.368  0.00  0.00    -0.100 A 
ATOM     23  C   LIG    1        1.389   9.597  -6.363  0.00  0.00    +0.030 A 
ATOM     24  C   LIG    1        1.746  10.613  -7.229  0.00  0.00    +0.010 A 
ATOM     25  C   LIG    1        2.981  11.223  -7.107  0.00  0.00    +0.020 A 
ATOM     26  C   LIG    1        3.856  10.820  -6.115  0.00  0.00    +0.010 A 
ATOM     27  C   LIG    1        3.496   9.808  -5.246  0.00  0.00    +0.030 A 
ENDBRANCH  21  22
ENDBRANCH  20  21
ENDBRANCH   4  20
TORSDOF 6
