REMARK  Name = ZINCrH000004vH47.0
REMARK                            x       y       z     vdW  Elec       q    Type
REMARK                         _______ _______ _______ _____ _____    ______ ____
ROOT
ATOM      1  C   LIG    1       -2.422  -3.311   0.791  0.00  0.00    +0.400 A 
ATOM      2  N   LIG    1       -1.180  -3.425   0.387  0.00  0.00    -0.510 NA
ATOM      3  C   LIG    1       -0.418  -2.339   0.138  0.00  0.00    +0.100 A 
ATOM      4  C   LIG    1       -0.953  -1.071   0.314  0.00  0.00    -0.230 A 
ATOM      5  C   LIG    1        0.002  -0.004   0.002  0.00  0.00    -0.050 A 
ATOM      6  C   LIG    1        1.190  -0.444  -0.387  0.00  0.00    -0.230 A 
ATOM      7  C   LIG    1        2.121   0.727  -0.690  0.00  0.00    +0.120 C 
ATOM      8  C   LIG    1        1.465   1.941  -0.002  0.00  0.00    +0.050 C 
ATOM      9  C   LIG    1       -0.019   1.524   0.010  0.00  0.00    +0.100 C 
ATOM     10  C   LIG    1       -2.305  -0.963   0.757  0.00  0.00    +0.570 A 
ATOM     11  O   LIG    1       -2.818   0.131   0.926  0.00  0.00    -0.520 OA
ATOM     12  S   LIG    1        1.245  -2.206  -0.407  0.00  0.00    +0.210 S 
ATOM     13  N   LIG    1       -3.004  -2.092   0.984  0.00  0.00    -0.510 N 
ENDROOT
BRANCH   1  14
ATOM     14  S   LIG    1       -3.362  -4.770   1.097  0.00  0.00    +0.070 S 
BRANCH  14  21
ATOM     15  O   LIG    1       -2.215  -5.061  -1.471  0.00  0.00    -0.420 OA
ATOM     16  C   LIG    1       -1.803  -5.965  -0.785  0.00  0.00    +0.370 C 
ATOM     17  C   LIG    1       -0.949  -7.063  -1.381  0.00  0.00    +0.030 C 
ATOM     18  C   LIG    1       -1.554  -8.416  -0.991  0.00  0.00    +0.030 C 
ATOM     19  C   LIG    1       -1.702  -8.487   0.529  0.00  0.00    +0.030 C 
ATOM     20  C   LIG    1       -2.690  -7.421   1.004  0.00  0.00    +0.070 C 
ATOM     21  C   LIG    1       -2.128  -6.030   0.690  0.00  0.00    -0.010 C 
ENDBRANCH  14  21
ENDBRANCH   1  14
BRANCH  13  22
ATOM     22  C   LIG    1       -4.394  -2.011   1.441  0.00  0.00    +0.300 C 
BRANCH  22  23
ATOM     23  C   LIG    1       -5.328  -1.980   0.229  0.00  0.00    +0.150 C 
ATOM     24  C   LIG    1       -6.785  -1.779   0.696  0.00  0.00    +0.020 C 
ATOM     25  C   LIG    1       -7.571  -2.715  -0.262  0.00  0.00    +0.010 C 
ATOM     26  C   LIG    1       -6.552  -3.868  -0.447  0.00  0.00    +0.200 C 
ATOM     27  O   LIG    1       -5.265  -3.231  -0.465  0.00  0.00    -0.360 OA
ENDBRANCH  22  23
ENDBRANCH  13  22
TORSDOF 4
