REMARK  Name = ZINCrH00000No4F9.0
REMARK                            x       y       z     vdW  Elec       q    Type
REMARK                         _______ _______ _______ _____ _____    ______ ____
ROOT
ATOM      1  O   LIG    1        0.050   0.161  -2.207  0.00  0.00    -0.520 OA
ATOM      2  C   LIG    1       -0.013  -0.547  -1.218  0.00  0.00    +0.560 C 
ATOM      3  N   LIG    1        0.001   0.008   0.010  0.00  0.00    -0.590 N 
ENDROOT
BRANCH   3   4
ATOM      4  C   LIG    1        0.040  -0.847   1.199  0.00  0.00    +0.270 C 
ATOM      5  C   LIG    1       -1.251  -1.679   1.292  0.00  0.00    +0.060 C 
ATOM      6  C   LIG    1       -1.045  -2.796   2.334  0.00  0.00    -0.290 C 
ATOM      7  S   LIG    1        0.753  -3.134   2.321  0.00  0.00    +2.380 S 
ATOM      8  O   LIG    1        0.986  -4.423   1.769  0.00  0.00    -0.920 OA
ATOM      9  O   LIG    1        1.306  -2.792   3.584  0.00  0.00    -0.920 OA
ATOM     10  C   LIG    1        1.213  -1.855   1.091  0.00  0.00    -0.320 C 
ENDBRANCH   3   4
BRANCH   2  11
ATOM     11  C   LIG    1       -0.106  -2.001  -1.364  0.00  0.00    -0.100 C 
ATOM     12  C   LIG    1       -0.019  -2.563  -2.587  0.00  0.00    +0.150 C 
BRANCH  12  13
ATOM     13  C   LIG    1       -0.112  -4.024  -2.733  0.00  0.00    -0.080 A 
ATOM     14  C   LIG    1       -0.284  -4.834  -1.606  0.00  0.00    +0.040 A 
ATOM     15  C   LIG    1       -0.377  -6.202  -1.751  0.00  0.00    +0.030 A 
ATOM     16  C   LIG    1       -0.287  -6.776  -3.007  0.00  0.00    +0.050 A 
ATOM     17  C   LIG    1       -0.110  -5.983  -4.128  0.00  0.00    +0.030 A 
ATOM     18  C   LIG    1       -0.022  -4.612  -4.000  0.00  0.00    -0.010 A 
ATOM     19 CL   LIG    1        0.198  -3.619  -5.407  0.00  0.00    -0.050 Cl
ENDBRANCH  12  13
ENDBRANCH   2  11
BRANCH   3  20
ATOM     20  C   LIG    1       -0.022   1.466   0.155  0.00  0.00    +0.350 C 
BRANCH  20  21
ATOM     21  C   LIG    1        1.390   1.991   0.177  0.00  0.00    -0.120 A 
ATOM     22  C   LIG    1        2.061   2.118   1.379  0.00  0.00    +0.050 A 
ATOM     23  C   LIG    1        3.358   2.595   1.400  0.00  0.00    -0.020 A 
ATOM     24  C   LIG    1        3.982   2.955   0.217  0.00  0.00    +0.100 A 
ATOM     25  C   LIG    1        3.307   2.832  -0.985  0.00  0.00    -0.020 A 
ATOM     26  F   LIG    1        5.248   3.426   0.237  0.00  0.00    -0.140 F 
ATOM     27  C   LIG    1        2.012   2.350  -1.004  0.00  0.00    +0.080 A 
ENDBRANCH  20  21
ENDBRANCH   3  20
TORSDOF 5
