REMARK  Name = ZINCpk000005Vggk.0
REMARK                            x       y       z     vdW  Elec       q    Type
REMARK                         _______ _______ _______ _____ _____    ______ ____
ROOT
ATOM      1  C   LIG    1        6.272  -0.537   0.383  0.00  0.00    +0.240 C 
ATOM      2  C   LIG    1        5.137  -1.328  -0.282  0.00  0.00    +0.290 C 
ATOM      3  N   LIG    1        4.292  -0.133  -0.142  0.00  0.00    -0.640 N 
ATOM      4  C   LIG    1        2.972   0.115  -0.026  0.00  0.00    +0.590 C 
ATOM      5  O   LIG    1        2.187  -0.808   0.077  0.00  0.00    -0.550 OA
ATOM      6  C   LIG    1        5.520   0.674  -0.192  0.00  0.00    +0.270 C 
ENDROOT
BRANCH   4   7
ATOM      7  C   LIG    1        2.480   1.506  -0.025  0.00  0.00    -0.150 A 
ATOM      8  C   LIG    1        1.252   1.820   0.581  0.00  0.00    +0.150 A 
ATOM      9  N   LIG    1        0.305   1.075   1.235  0.00  0.00    -0.580 N 
ATOM     10  H   LIG    1        0.358   0.118   1.389  0.00  0.00    +0.420 HD
ATOM     11  C   LIG    1       -0.728   1.879   1.635  0.00  0.00    +0.220 A 
ATOM     12  C   LIG    1       -0.487   3.147   1.269  0.00  0.00    -0.050 A 
ATOM     13  C   LIG    1        0.801   3.152   0.571  0.00  0.00    -0.120 A 
ATOM     14  C   LIG    1        1.570   4.145  -0.036  0.00  0.00    +0.090 A 
ATOM     15  C   LIG    1        2.774   3.821  -0.627  0.00  0.00    -0.030 A 
ATOM     16  C   LIG    1        3.230   2.515  -0.624  0.00  0.00    +0.070 A 
ENDBRANCH   4   7
BRANCH   1  19
ATOM     17  O   LIG    1        8.453  -0.190   1.928  0.00  0.00    -0.530 OA
ATOM     18  C   LIG    1        7.424  -0.418   2.527  0.00  0.00    +0.520 C 
ATOM     19  N   LIG    1        6.276  -0.608   1.847  0.00  0.00    -0.710 N 
ATOM     20  H   LIG    1        5.453  -0.790   2.326  0.00  0.00    +0.410 HD
BRANCH  18  21
ATOM     21  C   LIG    1        7.428  -0.490   4.032  0.00  0.00    +0.080 C 
BRANCH  21  22
ATOM     22  C   LIG    1        8.846  -0.241   4.551  0.00  0.00    +0.170 C 
BRANCH  22  23
ATOM     23  C   LIG    1        8.850  -0.313   6.056  0.00  0.00    +0.200 A 
ATOM     24  N   LIG    1        8.094   0.391   6.853  0.00  0.00    -0.490 NA
ATOM     25  C   LIG    1        8.367   0.063   8.125  0.00  0.00    +0.140 A 
ATOM     26  C   LIG    1        9.334  -0.874   8.116  0.00  0.00    +0.120 A 
ATOM     27  N   LIG    1        9.641  -1.113   6.803  0.00  0.00    -0.570 N 
ATOM     28  H   LIG    1       10.303  -1.739   6.472  0.00  0.00    +0.420 HD
ENDBRANCH  22  23
ENDBRANCH  21  22
ENDBRANCH  18  21
ENDBRANCH   1  19
TORSDOF 5
