REMARK  Name = ZINCnE000001NKHD.1
REMARK                            x       y       z     vdW  Elec       q    Type
REMARK                         _______ _______ _______ _____ _____    ______ ____
ROOT
ATOM      1  S   LIG    1       -0.236   0.294   0.393  0.00  0.00    +2.570 S 
ATOM      2  O   LIG    1        1.101   0.264  -0.087  0.00  0.00    -1.020 OA
ATOM      3  O   LIG    1       -1.337  -0.225  -0.341  0.00  0.00    -1.030 OA
ENDROOT
BRANCH   1   4
ATOM      4  C   LIG    1       -0.609   1.985   0.721  0.00  0.00    -0.580 A 
ATOM      5  C   LIG    1       -1.923   2.415   0.723  0.00  0.00    +0.060 A 
ATOM      6  C   LIG    1       -2.216   3.742   0.985  0.00  0.00    +0.040 A 
ATOM      7  C   LIG    1       -1.194   4.639   1.235  0.00  0.00    -0.040 A 
ATOM      8  C   LIG    1        0.120   4.210   1.228  0.00  0.00    +0.040 A 
ATOM      9 BR   LIG    1       -1.595   6.454   1.587  0.00  0.00    -0.030 Br
ATOM     10 CL   LIG    1       -3.206   1.290   0.401  0.00  0.00    -0.010 Cl
ATOM     11  C   LIG    1        0.413   2.883   0.971  0.00  0.00    +0.060 A 
ATOM     12 CL   LIG    1        2.064   2.344   0.963  0.00  0.00    -0.000 Cl
ENDBRANCH   1   4
BRANCH   1  13
ATOM     13  N   LIG    1       -0.228  -0.497   1.847  0.00  0.00    -1.130 NA
BRANCH  13  15
ATOM     14  C   LIG    1        1.448  -2.200   1.325  0.00  0.00    -0.020 C 
ATOM     15  C   LIG    1        0.054  -1.934   1.898  0.00  0.00    +0.190 C 
BRANCH  15  16
ATOM     16  C   LIG    1        0.000  -2.407   3.328  0.00  0.00    +0.540 C 
ATOM     17  N   LIG    1       -0.185  -3.714   3.599  0.00  0.00    -0.630 N 
ATOM     18  C   LIG    1       -0.336  -4.176   4.985  0.00  0.00    +0.260 C 
ATOM     19  C   LIG    1       -1.633  -4.993   5.090  0.00  0.00    +0.010 C 
ATOM     20  C   LIG    1       -1.606  -6.117   4.052  0.00  0.00    +0.000 C 
ATOM     21  C   LIG    1       -1.528  -5.515   2.647  0.00  0.00    +0.000 C 
ATOM     22  C   LIG    1       -0.236  -4.704   2.514  0.00  0.00    +0.260 C 
ATOM     23  O   LIG    1        0.124  -1.611   4.234  0.00  0.00    -0.520 OA
ENDBRANCH  15  16
ENDBRANCH  13  15
ENDBRANCH   1  13
TORSDOF 4
