REMARK  Name = ZINCrH00000tj17i.0
REMARK                            x       y       z     vdW  Elec       q    Type
REMARK                         _______ _______ _______ _____ _____    ______ ____
ROOT
ATOM      1  C   LIG    1        1.171   2.095   0.002  0.00  0.00    +0.180 A 
ATOM      2  C   LIG    1       -0.017   1.399   0.010  0.00  0.00    -0.020 A 
ATOM      3  C   LIG    1        0.002  -0.004   0.002  0.00  0.00    -0.050 A 
ATOM      4  C   LIG    1       -1.197  -0.750   0.009  0.00  0.00    +0.200 A 
ATOM      5  C   LIG    1       -1.098  -2.146  -0.001  0.00  0.00    -0.070 A 
ATOM      6  C   LIG    1        0.172  -2.745  -0.016  0.00  0.00    +0.340 A 
ATOM      7  N   LIG    1        1.268  -2.030  -0.022  0.00  0.00    -0.430 NA
ATOM      8  C   LIG    1        1.240  -0.690  -0.013  0.00  0.00    +0.110 A 
ATOM      9  C   LIG    1        2.437   0.053  -0.020  0.00  0.00    +0.200 A 
ATOM     10  C   LIG    1        2.392   1.418  -0.012  0.00  0.00    -0.130 A 
ENDROOT
BRANCH   1  12
ATOM     11  C   LIG    1        2.421   4.118   0.001  0.00  0.00    +0.250 C 
ATOM     12  O   LIG    1        1.155   3.454   0.010  0.00  0.00    -0.310 OA
ENDBRANCH   1  12
BRANCH   5  13
ATOM     13  C   LIG    1       -2.280  -2.955   0.005  0.00  0.00    +0.250 C 
ATOM     14  N   LIG    1       -3.217  -3.597   0.010  0.00  0.00    -0.390 NA
ENDBRANCH   5  13
BRANCH   9  15
ATOM     15  O   LIG    1        3.635  -0.587  -0.035  0.00  0.00    -0.280 OA
ATOM     16  C   LIG    1        4.808   0.230  -0.041  0.00  0.00    +0.250 C 
ENDBRANCH   9  15
BRANCH   4  17
ATOM     17  O   LIG    1       -2.403  -0.135   0.024  0.00  0.00    -0.320 OA
BRANCH  17  18
ATOM     18  C   LIG    1       -2.993   0.167  -1.242  0.00  0.00    +0.280 C 
BRANCH  18  19
ATOM     19  C   LIG    1       -4.322   0.845  -1.029  0.00  0.00    -0.100 A 
ATOM     20  C   LIG    1       -4.781   1.071   0.256  0.00  0.00    +0.090 A 
ATOM     21  C   LIG    1       -5.994   1.696   0.459  0.00  0.00    +0.070 A 
ATOM     22  C   LIG    1       -6.766   2.090  -0.635  0.00  0.00    +0.010 A 
ATOM     23  C   LIG    1       -6.301   1.855  -1.931  0.00  0.00    +0.050 A 
ATOM     24  C   LIG    1       -5.082   1.233  -2.121  0.00  0.00    +0.110 A 
ATOM     25  F   LIG    1       -4.630   1.004  -3.373  0.00  0.00    -0.130 F 
BRANCH  22  26
ATOM     26  C   LIG    1       -8.029   2.733  -0.430  0.00  0.00    +0.250 C 
ATOM     27  N   LIG    1       -9.030   3.243  -0.268  0.00  0.00    -0.400 NA
ENDBRANCH  22  26
ENDBRANCH  18  19
ENDBRANCH  17  18
ENDBRANCH   4  17
TORSDOF 7
