REMARK  Name = ZINCkj000005kSyu.0
REMARK                            x       y       z     vdW  Elec       q    Type
REMARK                         _______ _______ _______ _____ _____    ______ ____
ROOT
ATOM      1  C   LIG    1       -1.300   2.128   0.020  0.00  0.00    +0.580 C 
ATOM      2  N   LIG    1       -2.462   1.453  -0.080  0.00  0.00    -0.610 N 
ATOM      3  C   LIG    1       -2.476  -0.016  -0.090  0.00  0.00    +0.270 C 
ATOM      4  C   LIG    1       -3.434  -0.507   1.000  0.00  0.00    +0.030 C 
ATOM      5  C   LIG    1       -4.807   0.135   0.794  0.00  0.00    +0.050 C 
ATOM      6  C   LIG    1       -4.683   1.656   0.910  0.00  0.00    -0.040 C 
ATOM      7  C   LIG    1       -3.740   2.172  -0.175  0.00  0.00    +0.280 C 
ATOM      8  O   LIG    1       -1.308   3.338   0.134  0.00  0.00    -0.520 OA
ENDROOT
BRANCH   1  16
ATOM      9  C   LIG    1        1.434  -2.285  -2.668  0.00  0.00    +0.190 C 
ATOM     10  C   LIG    1        2.033  -1.435  -1.577  0.00  0.00    +0.070 A 
ATOM     11  N   LIG    1        3.223  -1.533  -1.062  0.00  0.00    -0.300 NA
ATOM     12  O   LIG    1        3.443  -0.718  -0.197  0.00  0.00    +0.090 OA
ATOM     13  C   LIG    1        2.404   0.103   0.031  0.00  0.00    +0.240 A 
ATOM     14  N   LIG    1        2.174   1.117   0.849  0.00  0.00    -0.450 NA
ATOM     15  C   LIG    1        1.026   1.757   0.854  0.00  0.00    +0.410 A 
ATOM     16  C   LIG    1       -0.016   1.397  -0.009  0.00  0.00    -0.210 A 
ATOM     17  C   LIG    1        0.174   0.331  -0.895  0.00  0.00    +0.200 A 
ATOM     18  C   LIG    1        1.399  -0.317  -0.869  0.00  0.00    -0.230 A 
ENDBRANCH   1  16
BRANCH   6  19
ATOM     19  C   LIG    1       -6.062   2.296   0.737  0.00  0.00    +0.280 C 
BRANCH  19  20
ATOM     20  N   LIG    1       -5.962   3.744   0.966  0.00  0.00    -0.640 N 
ATOM     21  H   LIG    1       -6.872   4.165   0.852  0.00  0.00    +0.440 HD
ATOM     22  H   LIG    1       -5.319   4.146   0.301  0.00  0.00    +0.430 HD
ATOM     23  H   LIG    1       -5.628   3.913   1.903  0.00  0.00    +0.440 HD
ENDBRANCH  19  20
ENDBRANCH   6  19
TORSDOF 3
