REMARK  Name = ZINCrH000004jO25.0
REMARK                            x       y       z     vdW  Elec       q    Type
REMARK                         _______ _______ _______ _____ _____    ______ ____
ROOT
ATOM      1  C   LIG    1       -0.746  -0.108   0.732  0.00  0.00    -0.220 A 
ATOM      2  C   LIG    1       -1.952   0.485   1.132  0.00  0.00    +0.140 A 
ATOM      3  C   LIG    1       -3.088  -0.297   1.168  0.00  0.00    -0.040 A 
ATOM      4  C   LIG    1       -3.001  -1.639   0.808  0.00  0.00    +0.340 A 
ATOM      5  N   LIG    1       -1.847  -2.170   0.434  0.00  0.00    -0.530 NA
ATOM      6  C   LIG    1       -0.740  -1.459   0.381  0.00  0.00    +0.370 A 
ENDROOT
BRANCH   1   9
ATOM      7  C   LIG    1       -0.835   2.631   0.064  0.00  0.00    +0.300 C 
ATOM      8  N   LIG    1        0.443   2.006   0.416  0.00  0.00    -0.600 N 
ATOM      9  C   LIG    1        0.498   0.685   0.677  0.00  0.00    +0.570 C 
ATOM     10  O   LIG    1        1.571   0.147   0.867  0.00  0.00    -0.530 OA
BRANCH   8  11
ATOM     11  C   LIG    1        1.662   2.816   0.477  0.00  0.00    +0.320 C 
BRANCH  11  12
ATOM     12  C   LIG    1        2.333   2.832  -0.898  0.00  0.00    +0.120 C 
ATOM     13  C   LIG    1        2.583   1.395  -1.363  0.00  0.00    -0.000 C 
ATOM     14  C   LIG    1        3.327   1.421  -2.701  0.00  0.00    +0.210 C 
ATOM     15  O   LIG    1        4.549   2.148  -2.553  0.00  0.00    -0.380 OA
ATOM     16  C   LIG    1        4.373   3.512  -2.166  0.00  0.00    +0.210 C 
ATOM     17  C   LIG    1        3.673   3.570  -0.806  0.00  0.00    -0.010 C 
BRANCH  12  18
ATOM     18  O   LIG    1        1.485   3.498  -1.836  0.00  0.00    -0.560 OA
ATOM     19  H   LIG    1        1.849   3.545  -2.731  0.00  0.00    +0.370 HD
ENDBRANCH  12  18
ENDBRANCH  11  12
ENDBRANCH   8  11
ENDBRANCH   1   9
BRANCH   4  20
ATOM     20  O   LIG    1       -4.112  -2.412   0.841  0.00  0.00    -0.230 OA
BRANCH  20  21
ATOM     21  C   LIG    1       -4.015  -3.689   0.385  0.00  0.00    +0.110 A 
ATOM     22  C   LIG    1       -4.344  -3.984  -0.930  0.00  0.00    +0.050 A 
ATOM     23  C   LIG    1       -4.239  -5.281  -1.393  0.00  0.00    +0.060 A 
ATOM     24  C   LIG    1       -3.819  -6.289  -0.545  0.00  0.00    +0.060 A 
ATOM     25  C   LIG    1       -3.496  -6.000   0.769  0.00  0.00    -0.020 A 
ATOM     26 CL   LIG    1       -2.967  -7.267   1.832  0.00  0.00    -0.040 Cl
ATOM     27  C   LIG    1       -3.593  -4.701   1.236  0.00  0.00    -0.030 A 
ATOM     28 CL   LIG    1       -3.188  -4.338   2.885  0.00  0.00    -0.030 Cl
ENDBRANCH  20  21
ENDBRANCH   4  20
TORSDOF 6
