REMARK  Name = ZINCrH000004tZW4.0
REMARK                            x       y       z     vdW  Elec       q    Type
REMARK                         _______ _______ _______ _____ _____    ______ ____
ROOT
ATOM      1  O   LIG    1       -2.319   3.926  -2.299  0.00  0.00    -0.500 OA
ATOM      2  C   LIG    1       -3.021   4.262  -1.369  0.00  0.00    +0.510 C 
ATOM      3  N   LIG    1       -4.213   4.846  -1.601  0.00  0.00    -0.660 N 
ATOM      4  H   LIG    1       -4.803   5.054  -0.860  0.00  0.00    +0.410 HD
ENDROOT
BRANCH   3   5
ATOM      5  C   LIG    1       -4.599   5.151  -2.908  0.00  0.00    +0.150 A 
ATOM      6  C   LIG    1       -4.237   4.326  -3.950  0.00  0.00    +0.020 A 
ATOM      7  C   LIG    1       -4.617   4.620  -5.256  0.00  0.00    +0.030 A 
ATOM      8  C   LIG    1       -5.354   5.729  -5.541  0.00  0.00    +0.010 A 
ATOM      9  C   LIG    1       -5.744   6.597  -4.506  0.00  0.00    -0.040 A 
ATOM     10  C   LIG    1       -6.505   7.748  -4.770  0.00  0.00    +0.030 A 
ATOM     11  C   LIG    1       -6.865   8.568  -3.744  0.00  0.00    +0.010 A 
ATOM     12  C   LIG    1       -6.489   8.283  -2.434  0.00  0.00    +0.020 A 
ATOM     13  C   LIG    1       -5.752   7.176  -2.141  0.00  0.00    +0.010 A 
ATOM     14  C   LIG    1       -5.368   6.305  -3.172  0.00  0.00    -0.060 A 
ENDBRANCH   3   5
BRANCH   2  15
ATOM     15  C   LIG    1       -2.560   4.025   0.046  0.00  0.00    +0.380 C 
BRANCH  15  16
ATOM     16  N   LIG    1       -1.244   3.382   0.030  0.00  0.00    -0.330 N 
ATOM     17  N   LIG    1       -1.175   2.100   0.010  0.00  0.00    -0.210 NA
ATOM     18  C   LIG    1       -0.030   1.460   0.001  0.00  0.00    +0.110 A 
ATOM     19  C   LIG    1        1.188   2.178   0.001  0.00  0.00    +0.100 A 
ATOM     20  C   LIG    1        1.134   3.541   0.016  0.00  0.00    -0.010 A 
ATOM     21  C   LIG    1       -0.139   4.152   0.032  0.00  0.00    +0.480 A 
ATOM     22  O   LIG    1       -0.237   5.368   0.046  0.00  0.00    -0.530 OA
BRANCH  18  23
ATOM     23  C   LIG    1       -0.013  -0.024  -0.017  0.00  0.00    -0.030 A 
ATOM     24  C   LIG    1        1.200  -0.709  -0.039  0.00  0.00    +0.030 A 
ATOM     25  C   LIG    1        1.210  -2.089  -0.050  0.00  0.00    +0.010 A 
ATOM     26  C   LIG    1        0.018  -2.792  -0.050  0.00  0.00    +0.020 A 
ATOM     27  C   LIG    1       -1.189  -2.116  -0.034  0.00  0.00    +0.010 A 
ATOM     28  C   LIG    1       -1.211  -0.737  -0.017  0.00  0.00    +0.050 A 
ENDBRANCH  18  23
ENDBRANCH  15  16
ENDBRANCH   2  15
TORSDOF 4
