REMARK  Name = ZINCnE000004uAPV.0
REMARK                            x       y       z     vdW  Elec       q    Type
REMARK                         _______ _______ _______ _____ _____    ______ ____
ROOT
ATOM      1  C   LIG    1        2.283   3.869   0.007  0.00  0.00    -0.050 A 
ATOM      2  C   LIG    1        1.147   3.062   0.008  0.00  0.00    -0.080 A 
ATOM      3  C   LIG    1       -0.106   3.640   0.023  0.00  0.00    +0.020 A 
ATOM      4  C   LIG    1       -0.236   5.017   0.031  0.00  0.00    +0.000 A 
ATOM      5  C   LIG    1        0.889   5.823   0.024  0.00  0.00    +0.000 A 
ATOM      6  C   LIG    1        2.147   5.256   0.010  0.00  0.00    -0.050 A 
ENDROOT
BRANCH   1  10
ATOM      7  C   LIG    1        6.154   2.105  -0.022  0.00  0.00    +0.090 A 
ATOM      8  C   LIG    1        5.307   1.936  -1.109  0.00  0.00    -0.100 A 
ATOM      9  C   LIG    1        4.052   2.506  -1.103  0.00  0.00    +0.020 A 
ATOM     10  C   LIG    1        3.633   3.253  -0.003  0.00  0.00    -0.030 A 
ATOM     11  C   LIG    1        4.487   3.426   1.085  0.00  0.00    +0.040 A 
ATOM     12  C   LIG    1        5.761   1.128  -2.298  0.00  0.00    +0.090 C 
ATOM     13  C   LIG    1        5.740   2.849   1.074  0.00  0.00    -0.090 A 
ATOM     14  C   LIG    1        6.662   3.031   2.252  0.00  0.00    +0.100 C 
BRANCH   7  16
ATOM     15  C   LIG    1        8.457   2.326  -0.571  0.00  0.00    +0.220 C 
ATOM     16  O   LIG    1        7.391   1.542  -0.032  0.00  0.00    -0.340 OA
ENDBRANCH   7  16
ENDBRANCH   1  10
BRANCH   2  17
ATOM     17  C   LIG    1        1.286   1.562  -0.002  0.00  0.00    +0.240 C 
BRANCH  17  18
ATOM     18  O   LIG    1       -0.011   0.963   0.007  0.00  0.00    -0.570 OA
ATOM     19  H   LIG    1        0.002  -0.004   0.002  0.00  0.00    +0.380 HD
ENDBRANCH  17  18
ENDBRANCH   2  17
BRANCH   6  20
ATOM     20  C   LIG    1        3.371   6.135   0.004  0.00  0.00    +0.090 C 
BRANCH  20  21
ATOM     21  C   LIG    1        3.846   6.337  -1.437  0.00  0.00    -0.060 C 
BRANCH  21  22
ATOM     22  C   LIG    1        5.070   7.216  -1.443  0.00  0.00    +0.490 C 
ATOM     23  O   LIG    1        5.609   7.502  -2.498  0.00  0.00    -0.710 OA
ATOM     24  O   LIG    1        5.521   7.641  -0.393  0.00  0.00    -0.700 OA
ENDBRANCH  21  22
ENDBRANCH  20  21
ENDBRANCH   6  20
TORSDOF 7
