REMARK  Name = ZINCpk000000nvYk.0
REMARK                            x       y       z     vdW  Elec       q    Type
REMARK                         _______ _______ _______ _____ _____    ______ ____
ROOT
ATOM      1  C   LIG    1        2.006   0.663  -0.498  0.00  0.00    +0.250 C 
ATOM      2  C   LIG    1        3.087   1.600  -0.965  0.00  0.00    +0.520 C 
ATOM      3  N   LIG    1        4.192   1.844  -0.259  0.00  0.00    -0.720 N 
ATOM      4  H   LIG    1        4.808   2.510  -0.603  0.00  0.00    +0.400 HD
ATOM      5  C   LIG    1        4.538   1.181   0.991  0.00  0.00    +0.260 C 
ATOM      6  C   LIG    1        3.291   0.602   1.661  0.00  0.00    +0.290 C 
ATOM      7  O   LIG    1        2.947   2.159  -2.033  0.00  0.00    -0.530 OA
ATOM      8  N   LIG    1        2.512  -0.118   0.639  0.00  0.00    -0.620 N 
ATOM      9  C   LIG    1        2.273  -1.441   0.743  0.00  0.00    +0.590 C 
ATOM     10  O   LIG    1        1.367  -1.946   0.110  0.00  0.00    -0.500 OA
ENDROOT
BRANCH   9  11
ATOM     11  C   LIG    1        3.115  -2.278   1.629  0.00  0.00    -0.060 A 
ATOM     12  C   LIG    1        4.511  -2.238   1.542  0.00  0.00    -0.040 A 
ATOM     13  C   LIG    1        5.261  -3.030   2.389  0.00  0.00    +0.310 A 
ATOM     14  N   LIG    1        4.681  -3.826   3.265  0.00  0.00    -0.460 NA
ATOM     15  C   LIG    1        3.365  -3.901   3.379  0.00  0.00    +0.370 A 
ATOM     16  C   LIG    1        2.537  -3.133   2.569  0.00  0.00    -0.010 A 
BRANCH  15  17
ATOM     17  N   LIG    1        2.803  -4.760   4.323  0.00  0.00    -0.660 N 
ATOM     18  H   LIG    1        1.841  -4.878   4.359  0.00  0.00    +0.420 HD
ATOM     19  C   LIG    1        3.596  -5.425   5.186  0.00  0.00    +0.540 C 
ATOM     20  O   LIG    1        4.789  -5.208   5.203  0.00  0.00    -0.470 OA
BRANCH  19  21
ATOM     21  C   LIG    1        3.000  -6.438   6.129  0.00  0.00    -0.070 C 
ATOM     22  C   LIG    1        2.993  -6.095   7.621  0.00  0.00    +0.060 C 
ATOM     23  C   LIG    1        3.953  -7.159   7.085  0.00  0.00    +0.080 C 
ENDBRANCH  19  21
ENDBRANCH  15  17
ENDBRANCH   9  11
BRANCH   1  24
ATOM     24  C   LIG    1        1.619  -0.281  -1.638  0.00  0.00    +0.070 C 
BRANCH  24  26
ATOM     25  C   LIG    1        3.704  -1.625  -1.333  0.00  0.00    +0.000 C 
ATOM     26  C   LIG    1        2.885  -0.796  -2.326  0.00  0.00    -0.030 C 
ATOM     27  C   LIG    1        2.498  -1.669  -3.521  0.00  0.00    +0.030 C 
ENDBRANCH  24  26
ENDBRANCH   1  24
TORSDOF 5
