REMARK  Name = ZINCvU0000000Eu2.0
REMARK                            x       y       z     vdW  Elec       q    Type
REMARK                         _______ _______ _______ _____ _____    ______ ____
ROOT
ATOM      1  C   LIG    1        5.730   4.871  -0.517  0.00  0.00    -0.160 A 
ATOM      2  C   LIG    1        6.430   3.747  -0.076  0.00  0.00    +0.110 A 
ATOM      3  C   LIG    1        5.796   2.811   0.716  0.00  0.00    +0.010 A 
ATOM      4  C   LIG    1        4.473   2.988   1.077  0.00  0.00    +0.160 A 
ATOM      5  C   LIG    1        3.772   4.098   0.639  0.00  0.00    -0.680 A 
ATOM      6  C   LIG    1        4.393   5.041  -0.153  0.00  0.00    +0.210 A 
ENDROOT
BRANCH   1   8
ATOM      7  O   LIG    1        5.790   6.856  -1.749  0.00  0.00    -0.500 OA
ATOM      8  C   LIG    1        6.402   5.878  -1.366  0.00  0.00    +0.560 C 
ATOM      9  N   LIG    1        7.693   5.711  -1.716  0.00  0.00    -0.670 N 
ATOM     10  H   LIG    1        8.200   4.967  -1.356  0.00  0.00    +0.410 HD
BRANCH   9  11
ATOM     11  C   LIG    1        8.300   6.611  -2.599  0.00  0.00    +0.150 A 
ATOM     12  C   LIG    1        7.960   7.956  -2.564  0.00  0.00    +0.070 A 
ATOM     13  C   LIG    1        8.561   8.843  -3.436  0.00  0.00    +0.030 A 
ATOM     14  C   LIG    1        9.502   8.392  -4.345  0.00  0.00    +0.100 A 
ATOM     15  C   LIG    1        9.844   7.049  -4.382  0.00  0.00    -0.060 A 
ATOM     16 CL   LIG    1       11.025   6.486  -5.523  0.00  0.00    -0.040 Cl
ATOM     17  F   LIG    1       10.089   9.261  -5.197  0.00  0.00    -0.120 F 
ATOM     18  C   LIG    1        9.249   6.160  -3.507  0.00  0.00    +0.040 A 
ENDBRANCH   9  11
ENDBRANCH   1   8
BRANCH   5  19
ATOM     19  S   LIG    1        2.085   4.311   1.101  0.00  0.00    +2.690 S 
ATOM     20  O   LIG    1        1.925   3.654   2.351  0.00  0.00    -0.940 OA
ATOM     21  O   LIG    1        1.785   5.686   0.901  0.00  0.00    -0.940 OA
BRANCH  19  22
ATOM     22  N   LIG    1        1.168   3.469   0.009  0.00  0.00    -1.060 N 
ATOM     23  H   LIG    1        0.557   3.941  -0.578  0.00  0.00    +0.430 HD
BRANCH  22  24
ATOM     24  C   LIG    1        1.275   2.078  -0.067  0.00  0.00    +0.120 A 
ATOM     25  C   LIG    1        1.960   1.489  -1.121  0.00  0.00    +0.060 A 
ATOM     26  C   LIG    1        2.063   0.114  -1.194  0.00  0.00    +0.030 A 
ATOM     27  C   LIG    1        1.485  -0.677  -0.218  0.00  0.00    +0.080 A 
ATOM     28  C   LIG    1        0.802  -0.093   0.834  0.00  0.00    -0.170 A 
ATOM     29  C   LIG    1        0.696   1.281   0.913  0.00  0.00    +0.090 A 
BRANCH  28  30
ATOM     30  C   LIG    1        0.174  -0.959   1.896  0.00  0.00    +0.510 C 
ATOM     31  F   LIG    1        0.162  -0.269   3.113  0.00  0.00    -0.170 F 
ATOM     32  F   LIG    1        0.915  -2.137   2.036  0.00  0.00    -0.170 F 
ATOM     33  F   LIG    1       -1.137  -1.274   1.526  0.00  0.00    -0.170 F 
ENDBRANCH  28  30
ENDBRANCH  22  24
ENDBRANCH  19  22
ENDBRANCH   5  19
TORSDOF 6
