REMARK  Name = ZINCrH000004nIWY.0
REMARK                            x       y       z     vdW  Elec       q    Type
REMARK                         _______ _______ _______ _____ _____    ______ ____
ROOT
ATOM      1  C   LIG    1        0.048   1.212   2.360  0.00  0.00    +0.590 C 
ATOM      2  N   LIG    1        0.660   2.411   2.425  0.00  0.00    -0.600 N 
ATOM      3  C   LIG    1        1.677   2.803   3.417  0.00  0.00    +0.260 C 
ATOM      4  C   LIG    1        2.481   3.939   2.736  0.00  0.00    +0.040 C 
ATOM      5  C   LIG    1        1.365   4.688   1.960  0.00  0.00    +0.040 C 
ATOM      6  C   LIG    1        0.427   3.546   1.517  0.00  0.00    +0.230 C 
ATOM      7  O   LIG    1       -0.706   0.964   1.439  0.00  0.00    -0.490 OA
ENDROOT
BRANCH   1  11
ATOM      8  C   LIG    1        0.807  -1.625   5.403  0.00  0.00    -0.040 A 
ATOM      9  C   LIG    1        1.384  -0.399   5.399  0.00  0.00    +0.180 A 
ATOM     10  O   LIG    1        1.127   0.481   4.423  0.00  0.00    -0.190 OA
ATOM     11  C   LIG    1        0.293   0.197   3.410  0.00  0.00    +0.090 A 
ATOM     12  C   LIG    1       -0.333  -1.006   3.338  0.00  0.00    -0.040 A 
ATOM     13  C   LIG    1       -0.083  -1.971   4.352  0.00  0.00    +0.410 A 
ATOM     14  O   LIG    1       -0.622  -3.067   4.322  0.00  0.00    -0.450 OA
BRANCH   8  16
ATOM     15  C   LIG    1        1.981  -2.084   7.420  0.00  0.00    +0.240 C 
ATOM     16  O   LIG    1        1.075  -2.510   6.400  0.00  0.00    -0.280 OA
ENDBRANCH   8  16
ENDBRANCH   1  11
BRANCH   6  17
ATOM     17  C   LIG    1       -1.030   4.000   1.620  0.00  0.00    +0.030 C 
BRANCH  17  18
ATOM     18  C   LIG    1       -1.503   3.876   3.070  0.00  0.00    +0.040 C 
ATOM     19  C   LIG    1       -0.982   5.066   3.873  0.00  0.00    +0.030 C 
ATOM     20  C   LIG    1       -1.639   5.039   5.258  0.00  0.00    +0.010 C 
ATOM     21  C   LIG    1       -3.119   5.383   5.097  0.00  0.00    +0.070 C 
ATOM     22  C   LIG    1       -3.750   4.520   4.036  0.00  0.00    -0.080 A 
ATOM     23  C   LIG    1       -5.136   4.433   4.013  0.00  0.00    +0.000 A 
ATOM     24  C   LIG    1       -5.775   3.668   3.059  0.00  0.00    +0.000 A 
ATOM     25  C   LIG    1       -5.030   2.983   2.117  0.00  0.00    +0.000 A 
ATOM     26  C   LIG    1       -3.653   3.067   2.139  0.00  0.00    +0.010 A 
ATOM     27  C   LIG    1       -3.008   3.834   3.100  0.00  0.00    -0.070 A 
ENDBRANCH  17  18
ENDBRANCH   6  17
TORSDOF 4
