REMARK  Name = ZINCAx0000000dCM.0
REMARK                            x       y       z     vdW  Elec       q    Type
REMARK                         _______ _______ _______ _____ _____    ______ ____
ROOT
ATOM      1  N   LIG    1       11.113  -0.445  -0.760  0.00  0.00    -0.670 N 
ATOM      2  H   LIG    1       10.904   0.492  -0.621  0.00  0.00    +0.410 HD
ATOM      3  C   LIG    1       10.131  -1.368  -0.720  0.00  0.00    +0.560 C 
ATOM      4  O   LIG    1       10.403  -2.550  -0.807  0.00  0.00    -0.510 OA
ENDROOT
BRANCH   1   8
ATOM      5  C   LIG    1       15.044  -1.618  -1.481  0.00  0.00    -0.080 A 
ATOM      6  C   LIG    1       14.585  -0.408  -1.968  0.00  0.00    +0.050 A 
ATOM      7  C   LIG    1       13.282  -0.017  -1.731  0.00  0.00    -0.010 A 
ATOM      8  C   LIG    1       12.433  -0.839  -1.002  0.00  0.00    +0.140 A 
ATOM      9  C   LIG    1       12.899  -2.051  -0.510  0.00  0.00    +0.020 A 
ATOM     10  C   LIG    1       14.201  -2.440  -0.755  0.00  0.00    +0.040 A 
BRANCH   5  11
ATOM     11  C   LIG    1       16.467  -2.042  -1.741  0.00  0.00    +0.120 C 
BRANCH  11  14
ATOM     12  N   LIG    1       18.673  -1.807  -0.648  0.00  0.00    -0.730 N 
ATOM     13  H   LIG    1       19.055  -2.316  -1.380  0.00  0.00    +0.410 HD
ATOM     14  C   LIG    1       17.351  -1.545  -0.627  0.00  0.00    +0.520 C 
ATOM     15  O   LIG    1       16.873  -0.908   0.288  0.00  0.00    -0.520 OA
BRANCH  12  16
ATOM     16  C   LIG    1       19.533  -1.323   0.435  0.00  0.00    +0.350 C 
BRANCH  16  17
ATOM     17  C   LIG    1       20.955  -1.747   0.175  0.00  0.00    +0.460 C 
ATOM     18  O   LIG    1       21.223  -2.388  -0.814  0.00  0.00    -0.500 OA
BRANCH  17  20
ATOM     19  C   LIG    1       23.271  -1.855   0.727  0.00  0.00    +0.290 C 
ATOM     20  O   LIG    1       21.924  -1.413   1.041  0.00  0.00    -0.350 OA
ENDBRANCH  17  20
ENDBRANCH  16  17
ENDBRANCH  12  16
ENDBRANCH  11  14
ENDBRANCH   5  11
ENDBRANCH   1   8
BRANCH   3  21
ATOM     21  C   LIG    1        8.725  -0.943  -0.571  0.00  0.00    -0.120 A 
ATOM     22  C   LIG    1        7.706  -1.898  -0.529  0.00  0.00    +0.110 A 
ATOM     23  C   LIG    1        6.395  -1.498  -0.389  0.00  0.00    +0.030 A 
ATOM     24  C   LIG    1        6.086  -0.145  -0.289  0.00  0.00    +0.140 A 
ATOM     25  C   LIG    1        7.098   0.808  -0.335  0.00  0.00    +0.040 A 
ATOM     26  C   LIG    1        8.411   0.415  -0.470  0.00  0.00    +0.070 A 
BRANCH  24  27
ATOM     27  N   LIG    1        4.756   0.256  -0.147  0.00  0.00    -0.510 N 
ATOM     28  C   LIG    1        4.340   0.797   1.022  0.00  0.00    +0.550 A 
ATOM     29  C   LIG    1        2.929   1.202   1.116  0.00  0.00    -0.200 A 
ATOM     30  C   LIG    1        2.401   1.768   2.274  0.00  0.00    +0.100 A 
ATOM     31  C   LIG    1        1.072   2.130   2.308  0.00  0.00    +0.000 A 
ATOM     32  C   LIG    1        0.259   1.935   1.200  0.00  0.00    +0.070 A 
ATOM     33  C   LIG    1        0.761   1.378   0.045  0.00  0.00    +0.030 A 
ATOM     34  C   LIG    1        2.105   1.003  -0.014  0.00  0.00    +0.150 A 
ATOM     35  N   LIG    1        2.641   0.450  -1.131  0.00  0.00    -0.510 NA
ATOM     36  O   LIG    1        5.103   0.942   1.959  0.00  0.00    -0.490 OA
ATOM     37  C   LIG    1        3.890   0.101  -1.185  0.00  0.00    +0.400 A 
ATOM     38  C   LIG    1        4.407  -0.507  -2.463  0.00  0.00    +0.180 C 
ENDBRANCH  24  27
ENDBRANCH   3  21
TORSDOF 8
