REMARK  Name = ZINCfA000000bggW.1
REMARK                            x       y       z     vdW  Elec       q    Type
REMARK                         _______ _______ _______ _____ _____    ______ ____
ROOT
ATOM      1  N   LIG    1        1.390   4.194   1.317  0.00  0.00    -0.380 N 
ATOM      2  C   LIG    1        1.413   5.661   1.242  0.00  0.00    +0.320 C 
ATOM      3  H   LIG    1        1.946   3.889   2.102  0.00  0.00    +0.430 HD
ENDROOT
BRANCH   1   4
ATOM      4  C   LIG    1        1.944   3.633   0.077  0.00  0.00    +0.200 C 
ATOM      5  C   LIG    1        1.122   4.124  -1.117  0.00  0.00    +0.110 C 
BRANCH   4   6
ATOM      6  C   LIG    1        3.397   4.085  -0.084  0.00  0.00    +0.110 C 
BRANCH   6   7
ATOM      7  S   LIG    1        4.375   3.485   1.321  0.00  0.00    -0.270 S 
BRANCH   7   9
ATOM      8  C   LIG    1        6.999   3.682   2.068  0.00  0.00    +0.080 C 
ATOM      9  C   LIG    1        6.038   4.111   0.957  0.00  0.00    +0.110 C 
ENDBRANCH   7   9
ENDBRANCH   6   7
ENDBRANCH   4   6
ENDBRANCH   1   4
BRANCH   1  10
ATOM     10  C   LIG    1        0.006   3.734   1.487  0.00  0.00    +0.380 C 
BRANCH  10  11
ATOM     11  C   LIG    1       -0.508   4.175   2.834  0.00  0.00    -0.340 A 
ATOM     12  C   LIG    1       -1.131   5.327   3.098  0.00  0.00    +0.130 A 
ATOM     13  N   LIG    1       -1.488   5.479   4.358  0.00  0.00    -0.470 NA
ATOM     14  C   LIG    1       -1.192   4.523   5.172  0.00  0.00    +0.290 A 
ATOM     15  C   LIG    1       -1.407   6.366   2.042  0.00  0.00    +0.170 C 
ATOM     16  S   LIG    1       -0.386   3.267   4.338  0.00  0.00    +0.180 S 
ENDBRANCH  10  11
ENDBRANCH   1  10
TORSDOF 6
