REMARK  Name = ZINCfA000000bggW.0
REMARK                            x       y       z     vdW  Elec       q    Type
REMARK                         _______ _______ _______ _____ _____    ______ ____
ROOT
ATOM      1  N   LIG    1       -0.145   0.833  -0.002  0.00  0.00    -0.390 N 
ATOM      2  C   LIG    1       -0.972   1.276   1.129  0.00  0.00    +0.320 C 
ATOM      3  H   LIG    1       -0.016  -0.166   0.047  0.00  0.00    +0.430 HD
ENDROOT
BRANCH   1   4
ATOM      4  C   LIG    1       -0.815   1.178  -1.263  0.00  0.00    +0.200 C 
ATOM      5  C   LIG    1       -0.890   2.700  -1.400  0.00  0.00    +0.100 C 
BRANCH   4   6
ATOM      6  C   LIG    1       -0.022   0.599  -2.437  0.00  0.00    +0.110 C 
BRANCH   6   7
ATOM      7  S   LIG    1        0.042  -1.208  -2.290  0.00  0.00    -0.270 S 
BRANCH   7   9
ATOM      8  C   LIG    1        1.151  -3.224  -3.767  0.00  0.00    +0.080 C 
ATOM      9  C   LIG    1        1.005  -1.702  -3.745  0.00  0.00    +0.110 C 
ENDBRANCH   7   9
ENDBRANCH   6   7
ENDBRANCH   4   6
ENDBRANCH   1   4
BRANCH   1  10
ATOM     10  C   LIG    1        1.162   1.500   0.057  0.00  0.00    +0.360 C 
BRANCH  10  11
ATOM     11  C   LIG    1        1.901   1.050   1.291  0.00  0.00    -0.340 A 
ATOM     12  C   LIG    1        2.721  -0.002   1.377  0.00  0.00    +0.140 A 
ATOM     13  N   LIG    1        3.251  -0.186   2.569  0.00  0.00    -0.470 NA
ATOM     14  C   LIG    1        2.915   0.646   3.497  0.00  0.00    +0.280 A 
ATOM     15  C   LIG    1        3.020  -0.900   0.204  0.00  0.00    +0.150 C 
ATOM     16  S   LIG    1        1.828   1.812   2.878  0.00  0.00    +0.170 S 
ENDBRANCH  10  11
ENDBRANCH   1  10
TORSDOF 6
