REMARK  Name = ZINCkj000005f3cb.0
REMARK                            x       y       z     vdW  Elec       q    Type
REMARK                         _______ _______ _______ _____ _____    ______ ____
ROOT
ATOM      1  C   LIG    1        4.993   5.523   1.234  0.00  0.00    +0.160 C 
ATOM      2  C   LIG    1        4.947   3.993   1.264  0.00  0.00    +0.080 C 
ATOM      3  C   LIG    1        3.488   3.533   1.311  0.00  0.00    +0.260 C 
ATOM      4  N   LIG    1        2.778   4.023   0.123  0.00  0.00    -0.380 N 
ATOM      5  C   LIG    1        2.757   5.490   0.127  0.00  0.00    +0.260 C 
ATOM      6  H   LIG    1        3.249   3.697  -0.708  0.00  0.00    +0.430 HD
ATOM      7  C   LIG    1        4.187   6.026   0.033  0.00  0.00    +0.040 C 
ENDROOT
BRANCH   1   8
ATOM      8  O   LIG    1        6.349   5.958   1.116  0.00  0.00    -0.370 OA
BRANCH   8   9
ATOM      9  C   LIG    1        6.610   7.222   1.728  0.00  0.00    +0.170 C 
BRANCH   9  11
ATOM     10  C   LIG    1        8.336   8.993   2.086  0.00  0.00    +0.040 C 
ATOM     11  C   LIG    1        8.084   7.585   1.540  0.00  0.00    -0.020 C 
ATOM     12  C   LIG    1        8.957   6.582   2.296  0.00  0.00    +0.020 C 
ENDBRANCH   9  11
ENDBRANCH   8   9
ENDBRANCH   1   8
BRANCH   4  13
ATOM     13  C   LIG    1        1.400   3.514   0.133  0.00  0.00    +0.230 C 
BRANCH  13  14
ATOM     14  C   LIG    1        1.418   1.990  -0.001  0.00  0.00    +0.200 C 
BRANCH  14  15
ATOM     15  O   LIG    1        2.050   1.628  -1.230  0.00  0.00    -0.530 OA
ATOM     16  H   LIG    1        1.610   1.978  -2.017  0.00  0.00    +0.390 HD
ENDBRANCH  14  15
BRANCH  14  17
ATOM     17  C   LIG    1       -0.018   1.461   0.010  0.00  0.00    +0.320 C 
BRANCH  17  18
ATOM     18  N   LIG    1        0.002  -0.004   0.002  0.00  0.00    -0.390 N 
ATOM     19  C   LIG    1       -0.604  -0.811   0.897  0.00  0.00    +0.230 A 
ATOM     20  C   LIG    1       -0.347  -2.091   0.540  0.00  0.00    -0.110 A 
ATOM     21  C   LIG    1        0.444  -2.065  -0.614  0.00  0.00    +0.240 A 
ATOM     22  N   LIG    1        0.649  -0.814  -0.940  0.00  0.00    -0.280 NA
ENDBRANCH  17  18
ENDBRANCH  14  17
ENDBRANCH  13  14
ENDBRANCH   4  13
TORSDOF 8
