REMARK  Name = ZINCpe00000znKdX.0
REMARK                            x       y       z     vdW  Elec       q    Type
REMARK                         _______ _______ _______ _____ _____    ______ ____
ROOT
ATOM      1  O   LIG    1       -2.236   1.510  -0.003  0.00  0.00    -0.520 OA
ATOM      2  C   LIG    1       -1.188   2.120  -0.011  0.00  0.00    +0.520 C 
ATOM      3  N   LIG    1       -0.019   1.451  -0.012  0.00  0.00    -0.610 N 
ATOM      4  C   LIG    1        1.259   2.177  -0.028  0.00  0.00    +0.270 C 
ATOM      5  C   LIG    1        2.106   1.705   1.161  0.00  0.00    +0.270 C 
ATOM      6  N   LIG    1        2.126   0.236   1.169  0.00  0.00    -0.610 N 
ATOM      7  C   LIG    1        0.849  -0.490   1.185  0.00  0.00    +0.280 C 
ATOM      8  C   LIG    1        3.296  -0.434   1.162  0.00  0.00    +0.520 C 
ATOM      9  O   LIG    1        3.303  -1.643   1.253  0.00  0.00    -0.530 OA
ATOM     10  C   LIG    1        0.002  -0.019  -0.004  0.00  0.00    +0.280 C 
ENDROOT
BRANCH   8  11
ATOM     11  C   LIG    1        4.595   0.321   1.040  0.00  0.00    +0.000 C 
ATOM     12  C   LIG    1        4.894   0.583  -0.438  0.00  0.00    +0.040 C 
ATOM     13  C   LIG    1        6.043   1.592  -0.562  0.00  0.00    +0.110 C 
ATOM     14  C   LIG    1        7.181   1.120   0.308  0.00  0.00    -0.240 A 
ATOM     15  C   LIG    1        8.470   1.507   0.279  0.00  0.00    +0.250 A 
ATOM     16  N   LIG    1        9.126   0.815   1.237  0.00  0.00    -0.480 N 
ATOM     17  H   LIG    1       10.070   0.887   1.447  0.00  0.00    +0.440 HD
ATOM     18  N   LIG    1        8.202  -0.027   1.875  0.00  0.00    -0.280 NA
ATOM     19  C   LIG    1        7.039   0.156   1.320  0.00  0.00    +0.080 A 
ATOM     20  C   LIG    1        5.727  -0.510   1.657  0.00  0.00    +0.170 C 
ENDBRANCH   8  11
BRANCH   2  21
ATOM     21  C   LIG    1       -1.194   3.627  -0.019  0.00  0.00    +0.170 C 
BRANCH  21  22
ATOM     22  C   LIG    1       -2.617   4.124  -0.015  0.00  0.00    -0.210 A 
ATOM     23  C   LIG    1       -3.354   4.389   1.067  0.00  0.00    +0.220 A 
ATOM     24  N   LIG    1       -4.574   4.814   0.806  0.00  0.00    -0.470 NA
ATOM     25  C   LIG    1       -4.907   4.921  -0.436  0.00  0.00    +0.220 A 
ATOM     26  S   LIG    1       -3.599   4.465  -1.438  0.00  0.00    +0.140 S 
ENDBRANCH  21  22
ENDBRANCH   2  21
TORSDOF 3
