REMARK  Name = ZINCpe00000gNkDx.0
REMARK                            x       y       z     vdW  Elec       q    Type
REMARK                         _______ _______ _______ _____ _____    ______ ____
ROOT
ATOM      1  C   LIG    1        2.727   1.342   4.750  0.00  0.00    +0.150 C 
ENDROOT
BRANCH   1   2
ATOM      2  C   LIG    1        3.277   0.625   5.955  0.00  0.00    +0.450 A 
ATOM      3  N   LIG    1        2.653  -0.434   6.391  0.00  0.00    -0.580 NA
ATOM      4  C   LIG    1        3.097  -1.119   7.458  0.00  0.00    +0.540 A 
ATOM      5  C   LIG    1        4.313  -0.642   8.147  0.00  0.00    -0.210 A 
ATOM      6  C   LIG    1        4.929   0.486   7.646  0.00  0.00    +0.050 A 
ATOM      7  S   LIG    1        6.341   0.868   8.613  0.00  0.00    +0.200 S 
ATOM      8  C   LIG    1        6.073  -0.509   9.681  0.00  0.00    -0.220 A 
ATOM      9  C   LIG    1        6.724  -1.145  10.905  0.00  0.00    +0.130 C 
ATOM     10  C   LIG    1        5.635  -2.058  11.502  0.00  0.00    +0.050 C 
ATOM     11  C   LIG    1        4.786  -2.381  10.257  0.00  0.00    +0.110 C 
ATOM     12  C   LIG    1        4.996  -1.193   9.319  0.00  0.00    -0.050 A 
ATOM     13  O   LIG    1        2.506  -2.111   7.853  0.00  0.00    -0.480 OA
ATOM     14  N   LIG    1        4.385   1.105   6.540  0.00  0.00    -0.590 N 
ATOM     15  H   LIG    1        4.810   1.899   6.179  0.00  0.00    +0.430 HD
ENDBRANCH   1   2
BRANCH   1  16
ATOM     16  C   LIG    1        1.471   0.622   4.256  0.00  0.00    +0.100 C 
BRANCH  16  19
ATOM     17  N   LIG    1       -0.191   0.880   2.442  0.00  0.00    -0.730 N 
ATOM     18  H   LIG    1       -0.637   0.088   2.780  0.00  0.00    +0.410 HD
ATOM     19  C   LIG    1        0.921   1.339   3.050  0.00  0.00    +0.520 C 
ATOM     20  O   LIG    1        1.478   2.329   2.627  0.00  0.00    -0.540 OA
BRANCH  17  24
ATOM     21  O   LIG    1       -0.148   1.567  -2.272  0.00  0.00    -0.550 OA
ATOM     22  C   LIG    1       -0.736   1.582  -1.211  0.00  0.00    +0.520 C 
ATOM     23  C   LIG    1       -0.013   1.086   0.008  0.00  0.00    +0.060 C 
ATOM     24  C   LIG    1       -0.726   1.578   1.270  0.00  0.00    +0.240 C 
ATOM     25  C   LIG    1       -2.221   1.277   1.132  0.00  0.00    +0.030 C 
ATOM     26  C   LIG    1       -2.795   2.154   0.019  0.00  0.00    +0.270 C 
ATOM     27  N   LIG    1       -1.989   2.037  -1.190  0.00  0.00    -0.720 N 
ATOM     28  H   LIG    1       -2.389   2.308  -2.031  0.00  0.00    +0.400 HD
ENDBRANCH  17  24
ENDBRANCH  16  19
ENDBRANCH   1  16
TORSDOF 4
