REMARK  Name = ZINCrD00000l6RT9.0
REMARK                            x       y       z     vdW  Elec       q    Type
REMARK                         _______ _______ _______ _____ _____    ______ ____
ROOT
ATOM      1  C   LIG    1        4.588   9.997  -4.180  0.00  0.00    +0.090 C 
ATOM      2  C   LIG    1        3.678   9.438  -3.116  0.00  0.00    -0.070 A 
ATOM      3  C   LIG    1        2.805  10.273  -2.443  0.00  0.00    +0.000 A 
ATOM      4  C   LIG    1        1.979   9.754  -1.466  0.00  0.00    -0.070 A 
ATOM      5  C   LIG    1        2.018   8.402  -1.156  0.00  0.00    -0.100 A 
ATOM      6  C   LIG    1        2.880   7.568  -1.832  0.00  0.00    -0.060 A 
ATOM      7  C   LIG    1        2.955   6.087  -1.573  0.00  0.00    +0.070 C 
ATOM      8  C   LIG    1        2.372   5.744  -0.197  0.00  0.00    +0.290 C 
ATOM      9  N   LIG    1        1.079   6.436  -0.075  0.00  0.00    -0.600 N 
ATOM     10  C   LIG    1       -0.076   5.750   0.034  0.00  0.00    +0.570 C 
ATOM     11  O   LIG    1       -0.057   4.537   0.105  0.00  0.00    -0.520 OA
ATOM     12  C   LIG    1        1.098   7.903  -0.070  0.00  0.00    +0.280 C 
ATOM     13  C   LIG    1        1.596   8.402   1.288  0.00  0.00    +0.040 C 
ATOM     14  C   LIG    1        1.028  10.664  -0.732  0.00  0.00    +0.100 C 
ATOM     15  C   LIG    1        3.714   8.094  -2.811  0.00  0.00    -0.010 A 
ENDROOT
BRANCH  10  16
ATOM     16  C   LIG    1       -1.365   6.473   0.067  0.00  0.00    -0.150 A 
ATOM     17  C   LIG    1       -1.524   7.584   0.896  0.00  0.00    +0.100 A 
ATOM     18  C   LIG    1       -2.731   8.254   0.922  0.00  0.00    -0.110 A 
ATOM     19  C   LIG    1       -3.780   7.826   0.130  0.00  0.00    +0.040 A 
ATOM     20  C   LIG    1       -3.631   6.722  -0.690  0.00  0.00    -0.680 A 
ATOM     21  C   LIG    1       -5.095   8.563   0.163  0.00  0.00    +0.110 C 
ATOM     22  C   LIG    1       -2.904   9.455   1.817  0.00  0.00    +0.110 C 
ATOM     23  C   LIG    1       -2.429   6.046  -0.730  0.00  0.00    +0.180 A 
BRANCH  20  24
ATOM     24  S   LIG    1       -4.977   6.180  -1.690  0.00  0.00    +2.700 S 
ATOM     25  O   LIG    1       -4.525   5.022  -2.378  0.00  0.00    -0.960 OA
ATOM     26  O   LIG    1       -5.473   7.335  -2.354  0.00  0.00    -0.950 OA
BRANCH  24  27
ATOM     27  N   LIG    1       -6.177   5.678  -0.666  0.00  0.00    -1.250 NA
ATOM     28  H   LIG    1       -7.012   5.339  -1.026  0.00  0.00    +0.420 HD
ATOM     29  H   LIG    1       -6.046   5.721   0.294  0.00  0.00    +0.420 HD
ENDBRANCH  24  27
ENDBRANCH  20  24
ENDBRANCH  10  16
TORSDOF 3
