REMARK  Name = ZINCkj00000hbuwB.1
REMARK                            x       y       z     vdW  Elec       q    Type
REMARK                         _______ _______ _______ _____ _____    ______ ____
ROOT
ATOM      1  N   LIG    1       -0.016   1.344   0.009  0.00  0.00    -0.760 N 
ATOM      2  H   LIG    1        0.817   1.840   0.004  0.00  0.00    +0.380 HD
ATOM      3  C   LIG    1        0.002  -0.004   0.002  0.00  0.00    +0.710 C 
ATOM      4  N   LIG    1        1.178  -0.662  -0.013  0.00  0.00    -0.740 N 
ATOM      5  H   LIG    1        2.012  -0.166  -0.018  0.00  0.00    +0.400 HD
ATOM      6  O   LIG    1       -1.042  -0.626   0.009  0.00  0.00    -0.570 OA
ENDROOT
BRANCH   1  12
ATOM      7  C   LIG    1        0.114   5.510  -0.412  0.00  0.00    +0.330 C 
ATOM      8  N   LIG    1       -0.121   4.201   0.212  0.00  0.00    -0.390 N 
ATOM      9  C   LIG    1       -0.626   4.396   1.577  0.00  0.00    +0.250 C 
ATOM     10  C   LIG    1       -0.798   3.037   2.260  0.00  0.00    +0.060 C 
ATOM     11  C   LIG    1       -1.794   2.193   1.461  0.00  0.00    +0.040 C 
ATOM     12  C   LIG    1       -1.295   2.059   0.019  0.00  0.00    +0.280 C 
ATOM     13  C   LIG    1       -1.105   3.453  -0.582  0.00  0.00    +0.280 C 
ATOM     14  H   LIG    1        0.745   3.685   0.246  0.00  0.00    +0.420 HD
ENDBRANCH   1  12
BRANCH   4  15
ATOM     15  C   LIG    1        1.198  -2.127  -0.021  0.00  0.00    +0.270 C 
BRANCH  15  16
ATOM     16  C   LIG    1        2.647  -2.617  -0.037  0.00  0.00    +0.030 C 
BRANCH  16  17
ATOM     17  C   LIG    1        2.668  -4.147  -0.046  0.00  0.00    +0.010 C 
ATOM     18  C   LIG    1        2.078  -4.672   1.265  0.00  0.00    +0.020 C 
ATOM     19  C   LIG    1        2.099  -6.202   1.256  0.00  0.00    +0.000 C 
ATOM     20  C   LIG    1        3.541  -6.692   1.114  0.00  0.00    +0.010 C 
ATOM     21  C   LIG    1        4.131  -6.167  -0.196  0.00  0.00    -0.010 C 
ATOM     22  C   LIG    1        4.111  -4.637  -0.188  0.00  0.00    +0.160 C 
BRANCH  22  23
ATOM     23  O   LIG    1        4.887  -4.156   0.911  0.00  0.00    -0.560 OA
ATOM     24  H   LIG    1        5.815  -4.428   0.886  0.00  0.00    +0.380 HD
ENDBRANCH  22  23
ENDBRANCH  16  17
ENDBRANCH  15  16
ENDBRANCH   4  15
TORSDOF 5
