REMARK  Name = ZINCkj00000hbuwB.0
REMARK                            x       y       z     vdW  Elec       q    Type
REMARK                         _______ _______ _______ _____ _____    ______ ____
ROOT
ATOM      1  N   LIG    1        1.178  -0.662  -0.013  0.00  0.00    -0.750 N 
ATOM      2  H   LIG    1        2.012  -0.166  -0.018  0.00  0.00    +0.400 HD
ATOM      3  C   LIG    1        0.002  -0.004   0.002  0.00  0.00    +0.710 C 
ATOM      4  N   LIG    1       -0.016   1.344   0.009  0.00  0.00    -0.740 N 
ATOM      5  H   LIG    1        0.817   1.840   0.004  0.00  0.00    +0.400 HD
ATOM      6  O   LIG    1       -1.042  -0.626   0.009  0.00  0.00    -0.580 OA
ENDROOT
BRANCH   1  12
ATOM      7  C   LIG    1        3.780  -4.563   1.197  0.00  0.00    +0.320 C 
ATOM      8  N   LIG    1        2.544  -4.091   0.559  0.00  0.00    -0.380 N 
ATOM      9  C   LIG    1        2.489  -4.581  -0.823  0.00  0.00    +0.250 C 
ATOM     10  C   LIG    1        1.166  -4.160  -1.466  0.00  0.00    +0.070 C 
ATOM     11  C   LIG    1        1.065  -2.632  -1.460  0.00  0.00    +0.030 C 
ATOM     12  C   LIG    1        1.198  -2.127  -0.021  0.00  0.00    +0.260 C 
ATOM     13  C   LIG    1        2.520  -2.623   0.569  0.00  0.00    +0.250 C 
ATOM     14  H   LIG    1        1.748  -4.441   1.071  0.00  0.00    +0.430 HD
ENDBRANCH   1  12
BRANCH   4  15
ATOM     15  C   LIG    1       -1.295   2.059   0.019  0.00  0.00    +0.270 C 
BRANCH  15  16
ATOM     16  C   LIG    1       -1.036   3.567   0.026  0.00  0.00    +0.030 C 
BRANCH  16  17
ATOM     17  C   LIG    1       -2.371   4.314   0.037  0.00  0.00    +0.010 C 
ATOM     18  C   LIG    1       -3.120   4.038  -1.269  0.00  0.00    +0.020 C 
ATOM     19  C   LIG    1       -4.455   4.785  -1.258  0.00  0.00    +0.000 C 
ATOM     20  C   LIG    1       -4.198   6.287  -1.125  0.00  0.00    +0.010 C 
ATOM     21  C   LIG    1       -3.449   6.563   0.180  0.00  0.00    -0.010 C 
ATOM     22  C   LIG    1       -2.114   5.816   0.169  0.00  0.00    +0.160 C 
BRANCH  22  23
ATOM     23  O   LIG    1       -1.326   6.264  -0.935  0.00  0.00    -0.560 OA
ATOM     24  H   LIG    1       -1.124   7.209  -0.917  0.00  0.00    +0.380 HD
ENDBRANCH  22  23
ENDBRANCH  16  17
ENDBRANCH  15  16
ENDBRANCH   4  15
TORSDOF 5
