REMARK  Name = ZINCrD000006VuXQ.0
REMARK                            x       y       z     vdW  Elec       q    Type
REMARK                         _______ _______ _______ _____ _____    ______ ____
ROOT
ATOM      1  S   LIG    1        1.053   7.502   0.030  0.00  0.00    +2.710 S 
ATOM      2  O   LIG    1        2.364   7.362   0.561  0.00  0.00    -0.940 OA
ATOM      3  O   LIG    1        0.078   8.371   0.589  0.00  0.00    -0.940 OA
ENDROOT
BRANCH   1   9
ATOM      4  O   LIG    1        0.002  -0.004   0.002  0.00  0.00    -0.490 OA
ATOM      5  C   LIG    1       -0.014   1.209   0.009  0.00  0.00    +0.530 C 
ATOM      6  C   LIG    1        1.191   2.124   0.002  0.00  0.00    +0.140 C 
ATOM      7  C   LIG    1        0.597   3.514   0.015  0.00  0.00    -0.160 A 
ATOM      8  C   LIG    1        1.157   4.771   0.016  0.00  0.00    +0.190 A 
ATOM      9  C   LIG    1        0.342   5.890   0.030  0.00  0.00    -0.700 A 
ATOM     10  C   LIG    1       -1.033   5.739   0.042  0.00  0.00    +0.170 A 
ATOM     11  C   LIG    1       -1.596   4.480   0.041  0.00  0.00    -0.020 A 
ATOM     12  C   LIG    1       -0.782   3.349   0.028  0.00  0.00    +0.200 A 
ATOM     13  N   LIG    1       -1.106   1.992   0.017  0.00  0.00    -0.660 N 
ATOM     14  H   LIG    1       -2.015   1.653   0.019  0.00  0.00    +0.420 HD
ENDBRANCH   1   9
BRANCH   1  15
ATOM     15  N   LIG    1        1.236   7.958  -1.551  0.00  0.00    -0.990 NA
ATOM     16  C   LIG    1        0.235   8.679  -2.358  0.00  0.00    +0.280 C 
ATOM     17  C   LIG    1        0.579   8.323  -3.826  0.00  0.00    +0.040 C 
ATOM     18  C   LIG    1        2.129   8.288  -3.783  0.00  0.00    +0.060 C 
ATOM     19  C   LIG    1        2.425   7.716  -2.381  0.00  0.00    +0.330 C 
BRANCH  19  20
ATOM     20  C   LIG    1        3.619   8.415  -1.781  0.00  0.00    +0.070 A 
ATOM     21  N   LIG    1        3.605   9.617  -1.345  0.00  0.00    -0.450 NA
ATOM     22  C   LIG    1        4.746  10.113  -0.830  0.00  0.00    +0.080 A 
ATOM     23  C   LIG    1        5.010  11.385  -0.284  0.00  0.00    +0.070 A 
ATOM     24  C   LIG    1        6.252  11.691   0.184  0.00  0.00    +0.030 A 
ATOM     25  C   LIG    1        7.279  10.760   0.133  0.00  0.00    +0.040 A 
ATOM     26  C   LIG    1        7.051   9.509  -0.396  0.00  0.00    +0.060 A 
ATOM     27  C   LIG    1        5.787   9.179  -0.879  0.00  0.00    -0.180 A 
ATOM     28  S   LIG    1        5.160   7.702  -1.606  0.00  0.00    +0.120 S 
ENDBRANCH  19  20
ENDBRANCH   1  15
TORSDOF 3
