REMARK  Name = ZINCvU0000000IPN.0
REMARK                            x       y       z     vdW  Elec       q    Type
REMARK                         _______ _______ _______ _____ _____    ______ ____
ROOT
ATOM      1  C   LIG    1       -2.893  -0.060  -0.854  0.00  0.00    +0.140 A 
ATOM      2  N   LIG    1       -3.619  -0.586  -1.813  0.00  0.00    -0.280 NA
ATOM      3  N   LIG    1       -3.388   0.018  -2.924  0.00  0.00    -0.270 NA
ATOM      4  C   LIG    1       -2.503   0.971  -2.740  0.00  0.00    +0.280 A 
ATOM      5  N   LIG    1       -2.161   0.953  -1.408  0.00  0.00    -0.430 N 
ENDROOT
BRANCH   4   6
ATOM      6  C   LIG    1       -1.975   1.889  -3.770  0.00  0.00    -0.110 A 
ATOM      7  C   LIG    1       -0.974   2.793  -3.614  0.00  0.00    +0.260 A 
ATOM      8  N   LIG    1       -0.765   3.455  -4.790  0.00  0.00    -0.580 N 
ATOM      9  H   LIG    1       -0.099   4.147  -4.926  0.00  0.00    +0.420 HD
ATOM     10  C   LIG    1       -1.640   3.003  -5.753  0.00  0.00    +0.100 A 
ATOM     11  C   LIG    1       -1.845   3.340  -7.087  0.00  0.00    -0.010 A 
ATOM     12  C   LIG    1       -2.822   2.698  -7.816  0.00  0.00    +0.040 A 
ATOM     13  C   LIG    1       -3.608   1.714  -7.233  0.00  0.00    -0.010 A 
ATOM     14  C   LIG    1       -3.420   1.365  -5.914  0.00  0.00    +0.070 A 
ATOM     15  C   LIG    1       -2.436   2.006  -5.164  0.00  0.00    -0.070 A 
ENDBRANCH   4   6
BRANCH   5  16
ATOM     16  C   LIG    1       -1.207   1.832  -0.727  0.00  0.00    +0.190 C 
ATOM     17  C   LIG    1       -0.096   1.170   0.091  0.00  0.00    +0.060 C 
ATOM     18  C   LIG    1       -1.253   1.875   0.803  0.00  0.00    +0.070 C 
ENDBRANCH   5  16
BRANCH   1  19
ATOM     19  S   LIG    1       -2.870  -0.565   0.835  0.00  0.00    +0.090 S 
BRANCH  19  20
ATOM     20  C   LIG    1       -4.068  -1.919   0.774  0.00  0.00    +0.100 C 
BRANCH  20  22
ATOM     21  N   LIG    1       -5.061  -3.552   2.345  0.00  0.00    -0.600 N 
ATOM     22  C   LIG    1       -4.216  -2.521   2.148  0.00  0.00    +0.540 C 
ATOM     23  O   LIG    1       -3.574  -2.077   3.077  0.00  0.00    -0.520 OA
BRANCH  21  25
ATOM     24  C   LIG    1       -5.042  -5.203   0.542  0.00  0.00    +0.020 C 
ATOM     25  C   LIG    1       -5.837  -4.088   1.224  0.00  0.00    +0.280 C 
ENDBRANCH  21  25
BRANCH  21  26
ATOM     26  C   LIG    1       -5.205  -4.136   3.681  0.00  0.00    +0.390 C 
BRANCH  26  27
ATOM     27  C   LIG    1       -6.302  -3.422   4.427  0.00  0.00    -0.200 A 
ATOM     28  C   LIG    1       -7.590  -3.769   4.418  0.00  0.00    +0.030 A 
ATOM     29  C   LIG    1       -8.418  -2.963   5.180  0.00  0.00    +0.030 A 
ATOM     30  C   LIG    1       -7.800  -1.960   5.809  0.00  0.00    -0.150 A 
ATOM     31 CL   LIG    1       -8.576  -0.791   6.831  0.00  0.00    -0.010 Cl
ATOM     32  S   LIG    1       -6.080  -2.008   5.448  0.00  0.00    +0.190 S 
ENDBRANCH  26  27
ENDBRANCH  21  26
ENDBRANCH  20  22
ENDBRANCH  19  20
ENDBRANCH   1  19
TORSDOF 8
