REMARK  Name = ZINCb70000006kSB.0
REMARK                            x       y       z     vdW  Elec       q    Type
REMARK                         _______ _______ _______ _____ _____    ______ ____
ROOT
ATOM      1  C   LIG    1       -0.940   1.684   1.080  0.00  0.00    -0.020 C 
ATOM      2  C   LIG    1       -0.013   1.086   0.008  0.00  0.00    +0.050 C 
ATOM      3  C   LIG    1       -0.958   1.694  -1.036  0.00  0.00    +0.060 C 
ATOM      4  C   LIG    1       -1.208   0.781  -2.236  0.00  0.00    +0.220 C 
ATOM      5  O   LIG    1       -0.094   0.877  -3.131  0.00  0.00    -0.370 OA
ATOM      6  C   LIG    1        0.188   2.215  -3.550  0.00  0.00    +0.200 C 
ATOM      7  C   LIG    1        0.500   3.079  -2.325  0.00  0.00    +0.200 C 
ATOM      8  O   LIG    1       -0.607   3.023  -1.418  0.00  0.00    -0.350 OA
ATOM      9  C   LIG    1       -2.063   1.629   0.025  0.00  0.00    +0.070 C 
ENDROOT
BRANCH   1  10
ATOM     10  C   LIG    1       -1.174   0.757   2.275  0.00  0.00    +0.280 C 
BRANCH  10  11
ATOM     11  N   LIG    1       -1.969   1.460   3.291  0.00  0.00    -0.640 N 
ATOM     12  H   LIG    1       -1.472   2.284   3.596  0.00  0.00    +0.440 HD
ATOM     13  H   LIG    1       -2.123   0.849   4.079  0.00  0.00    +0.440 HD
ATOM     14  H   LIG    1       -2.857   1.729   2.896  0.00  0.00    +0.440 HD
ENDBRANCH  10  11
ENDBRANCH   1  10
TORSDOF 2
