REMARK  Name = ZINCtV000002IdJE.1
REMARK                            x       y       z     vdW  Elec       q    Type
REMARK                         _______ _______ _______ _____ _____    ______ ____
ROOT
ATOM      1  N   LIG    1       -8.400   3.890   3.096  0.00  0.00    -0.670 N 
ATOM      2  H   LIG    1       -8.904   4.658   3.407  0.00  0.00    +0.410 HD
ATOM      3  C   LIG    1       -8.966   3.014   2.243  0.00  0.00    +0.510 C 
ATOM      4  O   LIG    1       -8.310   2.100   1.788  0.00  0.00    -0.500 OA
ENDROOT
BRANCH   1   8
ATOM      5  C   LIG    1       -4.482   3.300   4.398  0.00  0.00    -0.110 A 
ATOM      6  C   LIG    1       -4.843   2.953   3.101  0.00  0.00    +0.030 A 
ATOM      7  C   LIG    1       -6.141   3.144   2.672  0.00  0.00    +0.040 A 
ATOM      8  C   LIG    1       -7.083   3.692   3.533  0.00  0.00    +0.140 A 
ATOM      9  C   LIG    1       -6.722   4.042   4.827  0.00  0.00    +0.000 A 
ATOM     10  C   LIG    1       -5.425   3.848   5.258  0.00  0.00    +0.050 A 
BRANCH   5  11
ATOM     11  S   LIG    1       -2.826   3.051   4.947  0.00  0.00    -0.010 S 
BRANCH  11  16
ATOM     12  C   LIG    1       -0.011   1.146  -0.041  0.00  0.00    +0.100 C 
ATOM     13  C   LIG    1       -0.713   1.622   1.205  0.00  0.00    -0.050 A 
ATOM     14  C   LIG    1       -1.214   0.702   2.108  0.00  0.00    +0.000 A 
ATOM     15  C   LIG    1       -1.854   1.135   3.253  0.00  0.00    +0.060 A 
ATOM     16  C   LIG    1       -2.004   2.495   3.491  0.00  0.00    -0.140 A 
ATOM     17  C   LIG    1       -1.505   3.417   2.578  0.00  0.00    +0.070 A 
ATOM     18  C   LIG    1       -0.861   2.977   1.439  0.00  0.00    -0.100 A 
ATOM     19  C   LIG    1       -0.319   3.975   0.448  0.00  0.00    +0.090 C 
ENDBRANCH  11  16
ENDBRANCH   5  11
ENDBRANCH   1   8
BRANCH   3  20
ATOM     20  C   LIG    1      -10.413   3.168   1.853  0.00  0.00    +0.220 C 
BRANCH  20  21
ATOM     21  N   LIG    1      -10.787   2.097   0.921  0.00  0.00    -0.670 NA
ATOM     22  H   LIG    1      -10.601   1.189   1.320  0.00  0.00    +0.350 HD
BRANCH  21  23
ATOM     23  C   LIG    1      -12.195   2.216   0.519  0.00  0.00    +0.210 C 
ATOM     24  C   LIG    1      -13.082   1.530   1.560  0.00  0.00    +0.010 C 
BRANCH  23  25
ATOM     25  C   LIG    1      -12.392   1.557  -0.822  0.00  0.00    -0.070 A 
ATOM     26  C   LIG    1      -11.745   0.370  -1.110  0.00  0.00    +0.050 A 
ATOM     27  C   LIG    1      -11.929  -0.238  -2.338  0.00  0.00    +0.020 A 
ATOM     28  C   LIG    1      -12.753   0.347  -3.282  0.00  0.00    -0.040 A 
ATOM     29  C   LIG    1      -13.397   1.538  -2.995  0.00  0.00    +0.020 A 
ATOM     30 CL   LIG    1      -12.980  -0.412  -4.827  0.00  0.00    -0.070 Cl
ATOM     31  C   LIG    1      -13.216   2.142  -1.765  0.00  0.00    +0.030 A 
ENDBRANCH  23  25
ENDBRANCH  21  23
ENDBRANCH  20  21
ENDBRANCH   3  20
TORSDOF 7
