REMARK  Name = ZINCrD00000l5FyD.0
REMARK                            x       y       z     vdW  Elec       q    Type
REMARK                         _______ _______ _______ _____ _____    ______ ____
ROOT
ATOM      1  C   LIG    1        4.384   3.166  -1.630  0.00  0.00    +0.380 C 
ENDROOT
BRANCH   1   4
ATOM      2  N   LIG    1        1.371   2.035   0.022  0.00  0.00    -0.540 N 
ATOM      3  C   LIG    1        2.097   2.310  -1.077  0.00  0.00    +0.690 A 
ATOM      4  N   LIG    1        3.313   2.763  -0.716  0.00  0.00    -0.530 N 
ATOM      5  C   LIG    1        3.378   2.783   0.676  0.00  0.00    +0.100 A 
ATOM      6  C   LIG    1        4.366   3.149   1.577  0.00  0.00    +0.030 A 
ATOM      7  C   LIG    1        4.121   3.070   2.934  0.00  0.00    +0.020 A 
ATOM      8  C   LIG    1        2.900   2.614   3.398  0.00  0.00    +0.020 A 
ATOM      9  C   LIG    1        1.911   2.243   2.508  0.00  0.00    +0.030 A 
ATOM     10  O   LIG    1        1.714   2.170  -2.223  0.00  0.00    -0.550 OA
ATOM     11  C   LIG    1        2.144   2.326   1.144  0.00  0.00    +0.100 A 
BRANCH   2  12
ATOM     12  C   LIG    1       -0.002   1.522   0.037  0.00  0.00    +0.310 C 
BRANCH  12  14
ATOM     13  C   LIG    1       -1.408  -0.543   0.053  0.00  0.00    +0.030 C 
ATOM     14  C   LIG    1        0.025  -0.008   0.038  0.00  0.00    +0.000 C 
ENDBRANCH  12  14
ENDBRANCH   2  12
ENDBRANCH   1   4
BRANCH   1  15
ATOM     15  C   LIG    1        4.255   4.635  -1.939  0.00  0.00    +0.500 C 
ATOM     16  N   LIG    1        5.138   5.230  -2.765  0.00  0.00    -0.650 N 
ATOM     17  H   LIG    1        5.894   4.729  -3.109  0.00  0.00    +0.420 HD
ATOM     18  O   LIG    1        3.356   5.282  -1.444  0.00  0.00    -0.500 OA
BRANCH  16  19
ATOM     19  C   LIG    1        4.964   6.568  -3.126  0.00  0.00    +0.160 A 
ATOM     20  C   LIG    1        4.439   7.467  -2.225  0.00  0.00    +0.040 A 
ATOM     21  C   LIG    1        4.264   8.804  -2.571  0.00  0.00    +0.040 A 
ATOM     22  C   LIG    1        4.599   9.257  -3.811  0.00  0.00    +0.020 A 
ATOM     23  C   LIG    1        5.134   8.370  -4.759  0.00  0.00    -0.090 A 
ATOM     24  C   LIG    1        5.490   8.807  -6.049  0.00  0.00    +0.080 A 
ATOM     25  C   LIG    1        6.004   7.889  -6.921  0.00  0.00    -0.030 A 
ATOM     26  C   LIG    1        6.162   6.564  -6.522  0.00  0.00    +0.290 A 
ATOM     27  N   LIG    1        5.829   6.162  -5.320  0.00  0.00    -0.480 NA
ATOM     28  C   LIG    1        5.321   7.008  -4.420  0.00  0.00    +0.110 A 
ENDBRANCH  16  19
ENDBRANCH   1  15
TORSDOF 5
