REMARK  Name = ZINCpk000005P3KI.0
REMARK                            x       y       z     vdW  Elec       q    Type
REMARK                         _______ _______ _______ _____ _____    ______ ____
ROOT
ATOM      1  C   LIG    1       -4.623  -4.647   0.017  0.00  0.00    +0.230 C 
ATOM      2  C   LIG    1       -5.333  -5.997   0.141  0.00  0.00    +0.040 C 
ENDROOT
BRANCH   1   4
ATOM      3  C   LIG    1       -6.110  -3.064   1.121  0.00  0.00    +0.510 C 
ATOM      4  N   LIG    1       -4.982  -3.800   1.157  0.00  0.00    -0.730 N 
ATOM      5  H   LIG    1       -4.407  -3.769   1.938  0.00  0.00    +0.400 HD
ATOM      6  O   LIG    1       -6.829  -3.103   0.144  0.00  0.00    -0.520 OA
BRANCH   3   7
ATOM      7  C   LIG    1       -6.479  -2.193   2.294  0.00  0.00    +0.160 C 
BRANCH   7  10
ATOM      8  C   LIG    1       -9.364  -3.320   2.752  0.00  0.00    +0.130 C 
ATOM      9  C   LIG    1       -9.018  -1.962   2.198  0.00  0.00    +0.030 A 
ATOM     10  C   LIG    1       -7.775  -1.480   2.002  0.00  0.00    -0.020 A 
ATOM     11  N   LIG    1       -7.915  -0.218   1.493  0.00  0.00    -0.560 N 
ATOM     12  H   LIG    1       -7.198   0.388   1.251  0.00  0.00    +0.420 HD
ATOM     13  C   LIG    1       -9.239   0.026   1.387  0.00  0.00    +0.400 A 
ATOM     14  N   LIG    1       -9.893  -1.020   1.814  0.00  0.00    -0.490 NA
ENDBRANCH   7  10
ENDBRANCH   3   7
ENDBRANCH   1   4
BRANCH   1  15
ATOM     15  C   LIG    1       -3.109  -4.867   0.002  0.00  0.00    +0.280 C 
BRANCH  15  16
ATOM     16  N   LIG    1       -2.427  -3.570   0.003  0.00  0.00    -0.730 N 
ATOM     17  H   LIG    1       -2.945  -2.750   0.013  0.00  0.00    +0.400 HD
ATOM     18  C   LIG    1       -1.081  -3.517  -0.009  0.00  0.00    +0.590 C 
ATOM     19  O   LIG    1       -0.431  -4.545  -0.021  0.00  0.00    -0.540 OA
BRANCH  18  20
ATOM     20  C   LIG    1       -0.394  -2.211  -0.007  0.00  0.00    -0.180 A 
ATOM     21  C   LIG    1        0.971  -2.004  -0.019  0.00  0.00    +0.200 A 
ATOM     22  N   LIG    1        1.208  -0.673  -0.013  0.00  0.00    -0.340 N 
ATOM     23  C   LIG    1        2.384   0.038  -0.020  0.00  0.00    +0.200 A 
ATOM     24  C   LIG    1        2.375   1.383  -0.012  0.00  0.00    +0.020 A 
ATOM     25  C   LIG    1        1.157   2.091   0.002  0.00  0.00    +0.010 A 
ATOM     26  C   LIG    1       -0.017   1.410   0.010  0.00  0.00    +0.060 A 
ATOM     27  C   LIG    1        0.002  -0.004   0.002  0.00  0.00    +0.030 A 
ATOM     28  C   LIG    1       -1.011  -0.941   0.006  0.00  0.00    -0.020 A 
ENDBRANCH  18  20
ENDBRANCH  15  16
ENDBRANCH   1  15
TORSDOF 6
