REMARK  Name = ZINCrD00000F5Lm2.0
REMARK                            x       y       z     vdW  Elec       q    Type
REMARK                         _______ _______ _______ _____ _____    ______ ____
ROOT
ATOM      1  C   LIG    1        5.733  -0.833   0.066  0.00  0.00    +0.440 C 
ATOM      2  O   LIG    1        5.241  -1.883  -0.300  0.00  0.00    -0.470 OA
ENDROOT
BRANCH   1   3
ATOM      3  C   LIG    1        7.036  -0.813   0.591  0.00  0.00    -0.260 C 
ATOM      4  C   LIG    1        7.772  -2.008   0.694  0.00  0.00    +0.220 A 
ATOM      5  N   LIG    1        9.026  -2.139   1.169  0.00  0.00    -0.600 N 
ATOM      6  H   LIG    1        9.522  -1.369   1.487  0.00  0.00    +0.420 HD
ATOM      7  C   LIG    1        9.584  -3.402   1.194  0.00  0.00    +0.120 A 
ATOM      8  C   LIG    1       10.856  -3.788   1.641  0.00  0.00    +0.030 A 
ATOM      9  C   LIG    1       11.248  -5.106   1.584  0.00  0.00    +0.070 A 
ATOM     10  C   LIG    1       10.396  -6.078   1.087  0.00  0.00    +0.020 A 
ATOM     11  C   LIG    1        9.139  -5.720   0.642  0.00  0.00    +0.100 A 
ATOM     12  C   LIG    1        8.740  -4.396   0.696  0.00  0.00    -0.220 A 
ATOM     13  S   LIG    1        7.244  -3.578   0.229  0.00  0.00    +0.290 S 
BRANCH   3  14
ATOM     14  C   LIG    1        7.615   0.423   1.022  0.00  0.00    +0.270 C 
ATOM     15  N   LIG    1        8.075   1.405   1.364  0.00  0.00    -0.430 NA
ENDBRANCH   3  14
ENDBRANCH   1   3
BRANCH   1  17
ATOM     16  C   LIG    1        5.304   1.156  -1.351  0.00  0.00    +0.090 C 
ATOM     17  C   LIG    1        4.945   0.447  -0.043  0.00  0.00    +0.000 C 
BRANCH  17  18
ATOM     18  S   LIG    1        3.175   0.069  -0.028  0.00  0.00    +0.040 S 
BRANCH  18  19
ATOM     19  C   LIG    1        2.514   1.702  -0.013  0.00  0.00    +0.240 A 
ATOM     20  C   LIG    1        1.121   1.916   0.002  0.00  0.00    -0.270 A 
ATOM     21  C   LIG    1       -0.013   1.076   0.008  0.00  0.00    +0.310 A 
ATOM     22  N   LIG    1       -1.080   1.823   0.017  0.00  0.00    -0.240 NA
ATOM     23  N   LIG    1       -0.710   3.174   0.026  0.00  0.00    -0.380 N 
ATOM     24  C   LIG    1       -1.629   4.315   0.041  0.00  0.00    +0.370 C 
ATOM     25  C   LIG    1        0.651   3.244   0.013  0.00  0.00    +0.350 A 
ATOM     26  N   LIG    1        1.537   4.239   0.010  0.00  0.00    -0.540 NA
ATOM     27  C   LIG    1        2.828   3.989  -0.004  0.00  0.00    +0.570 A 
ATOM     28  N   LIG    1        3.316   2.762  -0.016  0.00  0.00    -0.550 NA
ENDBRANCH  18  19
ENDBRANCH  17  18
ENDBRANCH   1  17
TORSDOF 5
