REMARK  Name = ZINCrD00000l6qXa.0
REMARK                            x       y       z     vdW  Elec       q    Type
REMARK                         _______ _______ _______ _____ _____    ______ ____
ROOT
ATOM      1  O   LIG    1       -0.680   2.660  -3.113  0.00  0.00    -0.540 OA
ATOM      2  C   LIG    1       -0.078   2.261  -2.138  0.00  0.00    +0.520 C 
ATOM      3  N   LIG    1       -0.729   1.575  -1.178  0.00  0.00    -0.610 N 
ATOM      4  C   LIG    1       -0.013   1.086   0.008  0.00  0.00    +0.270 C 
ATOM      5  C   LIG    1       -0.736   1.583   1.264  0.00  0.00    +0.030 C 
ATOM      6  C   LIG    1       -2.208   1.161   1.197  0.00  0.00    +0.040 C 
ATOM      7  C   LIG    1       -2.869   1.797  -0.028  0.00  0.00    +0.140 C 
ATOM      8  C   LIG    1       -2.168   1.303  -1.297  0.00  0.00    +0.260 C 
ENDROOT
BRANCH   7   9
ATOM      9  O   LIG    1       -4.249   1.428  -0.071  0.00  0.00    -0.370 OA
BRANCH   9  10
ATOM     10  C   LIG    1       -5.093   2.404  -0.684  0.00  0.00    +0.220 C 
BRANCH  10  11
ATOM     11  C   LIG    1       -6.518   1.913  -0.676  0.00  0.00    -0.090 A 
ATOM     12  C   LIG    1       -7.001   1.173  -1.739  0.00  0.00    +0.020 A 
ATOM     13  C   LIG    1       -8.306   0.718  -1.728  0.00  0.00    +0.000 A 
ATOM     14  C   LIG    1       -9.132   1.012  -0.660  0.00  0.00    +0.010 A 
ATOM     15  C   LIG    1       -8.651   1.757   0.401  0.00  0.00    +0.000 A 
ATOM     16  C   LIG    1       -7.344   2.207   0.393  0.00  0.00    +0.020 A 
ENDBRANCH  10  11
ENDBRANCH   9  10
ENDBRANCH   7   9
BRANCH   2  17
ATOM     17  C   LIG    1        1.398   2.533  -2.002  0.00  0.00    +0.060 C 
BRANCH  17  18
ATOM     18  C   LIG    1        1.886   3.323  -3.218  0.00  0.00    +0.160 C 
BRANCH  18  19
ATOM     19  C   LIG    1        3.362   3.594  -3.081  0.00  0.00    -0.030 A 
ATOM     20  C   LIG    1        4.368   2.768  -3.433  0.00  0.00    +0.150 A 
ATOM     21  N   LIG    1        5.529   3.384  -3.153  0.00  0.00    -0.490 NA
ATOM     22  C   LIG    1        5.281   4.551  -2.636  0.00  0.00    +0.210 A 
ATOM     23  C   LIG    1        6.284   5.580  -2.169  0.00  0.00    +0.160 C 
ATOM     24  C   LIG    1        5.558   6.923  -2.019  0.00  0.00    +0.020 C 
ATOM     25  C   LIG    1        4.273   6.714  -1.212  0.00  0.00    +0.030 C 
ATOM     26  C   LIG    1        3.269   5.912  -2.047  0.00  0.00    +0.280 C 
ATOM     27  N   LIG    1        3.938   4.720  -2.573  0.00  0.00    -0.450 N 
ENDBRANCH  18  19
ENDBRANCH  17  18
ENDBRANCH   2  17
TORSDOF 6
