REMARK  Name = ZINCrD0000071tdx.0
REMARK                            x       y       z     vdW  Elec       q    Type
REMARK                         _______ _______ _______ _____ _____    ______ ____
ROOT
ATOM      1  C   LIG    1        0.762  -2.018   1.233  0.00  0.00    +0.520 C 
ATOM      2  N   LIG    1        1.450  -2.688   2.179  0.00  0.00    -0.620 N 
ATOM      3  C   LIG    1        2.102  -1.973   3.287  0.00  0.00    +0.280 C 
ATOM      4  C   LIG    1        1.667  -2.631   4.607  0.00  0.00    +0.160 C 
ATOM      5  N   LIG    1        1.950  -4.071   4.546  0.00  0.00    -0.530 NA
ATOM      6  C   LIG    1        1.165  -4.724   3.490  0.00  0.00    +0.170 C 
ATOM      7  C   LIG    1        1.574  -4.152   2.128  0.00  0.00    +0.290 C 
ATOM      8  O   LIG    1        0.157  -2.628   0.378  0.00  0.00    -0.530 OA
ENDROOT
BRANCH   1  16
ATOM      9  C   LIG    1       -1.655  -0.534   0.551  0.00  0.00    +0.020 C 
ATOM     10  C   LIG    1       -0.262  -0.008   0.203  0.00  0.00    -0.040 C 
ATOM     11  C   LIG    1       -0.278   1.522   0.208  0.00  0.00    +0.020 C 
ATOM     12  C   LIG    1        1.116   2.048  -0.140  0.00  0.00    +0.010 C 
ATOM     13  C   LIG    1        2.124   1.545   0.895  0.00  0.00    +0.010 C 
ATOM     14  C   LIG    1        2.140   0.015   0.890  0.00  0.00    +0.030 C 
ATOM     15  C   LIG    1        0.141  -0.509  -1.185  0.00  0.00    +0.030 C 
ATOM     16  C   LIG    1        0.747  -0.511   1.238  0.00  0.00    -0.010 C 
ENDBRANCH   1  16
BRANCH   5  17
ATOM     17  C   LIG    1        1.713  -4.709   5.848  0.00  0.00    +0.240 C 
BRANCH  17  18
ATOM     18  C   LIG    1        2.706  -4.183   6.853  0.00  0.00    -0.080 A 
ATOM     19  C   LIG    1        2.400  -3.065   7.605  0.00  0.00    +0.020 A 
ATOM     20  C   LIG    1        3.308  -2.580   8.527  0.00  0.00    +0.030 A 
ATOM     21  C   LIG    1        4.528  -3.214   8.701  0.00  0.00    +0.050 A 
ATOM     22  O   LIG    1        5.414  -2.723   9.610  0.00  0.00    -0.310 OA
ATOM     23  C   LIG    1        6.469  -3.599  10.020  0.00  0.00    +0.220 C 
ATOM     24  C   LIG    1        7.065  -4.253   8.766  0.00  0.00    +0.220 C 
ATOM     25  O   LIG    1        6.026  -4.981   8.103  0.00  0.00    -0.310 OA
ATOM     26  C   LIG    1        4.836  -4.340   7.945  0.00  0.00    +0.050 A 
ATOM     27  C   LIG    1        3.919  -4.824   7.025  0.00  0.00    +0.050 A 
ENDBRANCH  17  18
ENDBRANCH   5  17
TORSDOF 3
