REMARK  Name = ZINCAx0000000hTO.0
REMARK                            x       y       z     vdW  Elec       q    Type
REMARK                         _______ _______ _______ _____ _____    ______ ____
ROOT
ATOM      1  C   LIG    1       -5.566  -2.230   6.255  0.00  0.00    +0.260 C 
ENDROOT
BRANCH   1   2
ATOM      2  O   LIG    1       -5.259  -1.988   4.856  0.00  0.00    -0.350 OA
BRANCH   2   3
ATOM      3  C   LIG    1       -4.579  -0.862   4.565  0.00  0.00    +0.510 C 
ATOM      4  O   LIG    1       -4.251  -0.103   5.455  0.00  0.00    -0.500 OA
BRANCH   3   9
ATOM      5  C   LIG    1       -3.206   0.899   1.547  0.00  0.00    -0.690 A 
ATOM      6  C   LIG    1       -3.585   0.035   0.535  0.00  0.00    +0.160 A 
ATOM      7  C   LIG    1       -4.279  -1.125   0.831  0.00  0.00    +0.000 A 
ATOM      8  C   LIG    1       -4.607  -1.421   2.138  0.00  0.00    +0.140 A 
ATOM      9  C   LIG    1       -4.232  -0.551   3.163  0.00  0.00    -0.140 A 
ATOM     10  C   LIG    1       -3.527   0.615   2.858  0.00  0.00    +0.200 A 
BRANCH   5  11
ATOM     11  S   LIG    1       -2.317   2.371   1.159  0.00  0.00    +2.690 S 
ATOM     12  O   LIG    1       -2.612   2.671  -0.198  0.00  0.00    -0.950 OA
ATOM     13  O   LIG    1       -2.557   3.278   2.226  0.00  0.00    -0.940 OA
BRANCH  11  14
ATOM     14  N   LIG    1       -0.704   1.998   1.216  0.00  0.00    -0.990 NA
BRANCH  14  16
ATOM     15  C   LIG    1        0.002  -0.004   0.002  0.00  0.00    +0.000 C 
ATOM     16  C   LIG    1       -0.019   1.526   0.010  0.00  0.00    +0.300 C 
ENDBRANCH  14  16
BRANCH  14  17
ATOM     17  C   LIG    1        0.036   2.141   2.471  0.00  0.00    +0.280 C 
ATOM     18  C   LIG    1        0.724   3.507   2.505  0.00  0.00    +0.010 C 
ENDBRANCH  14  17
ENDBRANCH  11  14
ENDBRANCH   5  11
ENDBRANCH   3   9
ENDBRANCH   2   3
ENDBRANCH   1   2
BRANCH   1  19
ATOM     19  C   LIG    1       -6.336  -3.545   6.388  0.00  0.00    +0.260 C 
BRANCH  19  20
ATOM     20  O   LIG    1       -5.482  -4.649   5.986  0.00  0.00    -0.350 OA
BRANCH  20  21
ATOM     21  C   LIG    1       -6.012  -5.886   6.045  0.00  0.00    +0.510 C 
ATOM     22  O   LIG    1       -7.157  -6.038   6.422  0.00  0.00    -0.500 OA
BRANCH  21  23
ATOM     23  C   LIG    1       -5.202  -7.056   5.651  0.00  0.00    -0.140 A 
ATOM     24  C   LIG    1       -3.888  -6.884   5.211  0.00  0.00    +0.140 A 
ATOM     25  C   LIG    1       -3.136  -7.982   4.850  0.00  0.00    +0.000 A 
ATOM     26  C   LIG    1       -3.684  -9.251   4.912  0.00  0.00    +0.160 A 
ATOM     27  C   LIG    1       -4.987  -9.429   5.342  0.00  0.00    -0.690 A 
ATOM     28  C   LIG    1       -5.749  -8.340   5.711  0.00  0.00    +0.200 A 
BRANCH  27  29
ATOM     29  S   LIG    1       -5.675 -11.049   5.417  0.00  0.00    +2.690 S 
ATOM     30  O   LIG    1       -6.733 -10.992   6.363  0.00  0.00    -0.950 OA
ATOM     31  O   LIG    1       -4.578 -11.946   5.530  0.00  0.00    -0.950 OA
BRANCH  29  32
ATOM     32  N   LIG    1       -6.377 -11.352   3.948  0.00  0.00    -0.990 NA
BRANCH  32  33
ATOM     33  C   LIG    1       -7.782 -11.002   3.721  0.00  0.00    +0.300 C 
ATOM     34  C   LIG    1       -7.864  -9.622   3.066  0.00  0.00    +0.000 C 
ENDBRANCH  32  33
BRANCH  32  35
ATOM     35  C   LIG    1       -5.594 -11.970   2.875  0.00  0.00    +0.280 C 
ATOM     36  C   LIG    1       -5.820 -13.483   2.885  0.00  0.00    +0.010 C 
ENDBRANCH  32  35
ENDBRANCH  29  32
ENDBRANCH  27  29
ENDBRANCH  21  23
ENDBRANCH  20  21
ENDBRANCH  19  20
ENDBRANCH   1  19
TORSDOF 15
