REMARK  Name = ZINCvU00000005sG.0
REMARK                            x       y       z     vdW  Elec       q    Type
REMARK                         _______ _______ _______ _____ _____    ______ ____
ROOT
ATOM      1  C   LIG    1       -2.717   2.950   4.762  0.00  0.00    +0.360 C 
ATOM      2  C   LIG    1       -3.009   4.410   4.650  0.00  0.00    -0.240 A 
ATOM      3  C   LIG    1       -4.364   4.571   4.717  0.00  0.00    +0.100 A 
ATOM      4  C   LIG    1       -4.980   3.242   4.866  0.00  0.00    +0.570 C 
ATOM      5  O   LIG    1       -6.174   3.034   4.952  0.00  0.00    -0.420 OA
ATOM      6  O   LIG    1       -4.957   5.779   4.653  0.00  0.00    -0.180 OA
ATOM      7  C   LIG    1       -4.234   6.860   4.281  0.00  0.00    +0.140 A 
ATOM      8  C   LIG    1       -4.899   8.049   3.984  0.00  0.00    +0.020 A 
ATOM      9  C   LIG    1       -4.186   9.167   3.612  0.00  0.00    +0.100 A 
ATOM     10  C   LIG    1       -2.802   9.132   3.526  0.00  0.00    +0.000 A 
ATOM     11  C   LIG    1       -2.122   7.969   3.811  0.00  0.00    +0.120 A 
ATOM     12  C   LIG    1       -2.833   6.829   4.186  0.00  0.00    -0.210 A 
ATOM     13  C   LIG    1       -2.118   5.564   4.491  0.00  0.00    +0.460 A 
ATOM     14  O   LIG    1       -0.906   5.491   4.599  0.00  0.00    -0.430 OA
ATOM     15  N   LIG    1       -4.026   2.289   4.894  0.00  0.00    -0.510 N 
ENDROOT
BRANCH  15  16
ATOM     16  C   LIG    1       -4.240   0.928   5.025  0.00  0.00    +0.350 A 
ATOM     17  N   LIG    1       -5.397   0.373   5.139  0.00  0.00    -0.480 NA
ATOM     18  C   LIG    1       -5.444  -0.968   5.258  0.00  0.00    +0.110 A 
ATOM     19  C   LIG    1       -6.573  -1.804   5.395  0.00  0.00    +0.070 A 
ATOM     20  C   LIG    1       -6.423  -3.163   5.504  0.00  0.00    +0.040 A 
ATOM     21  C   LIG    1       -5.161  -3.738   5.482  0.00  0.00    +0.040 A 
ATOM     22  C   LIG    1       -4.044  -2.942   5.350  0.00  0.00    +0.060 A 
ATOM     23  C   LIG    1       -4.178  -1.561   5.238  0.00  0.00    -0.180 A 
ATOM     24  S   LIG    1       -2.972  -0.290   5.051  0.00  0.00    +0.110 S 
ENDBRANCH  15  16
BRANCH   1  29
ATOM     25  C   LIG    1       -0.013   1.086   0.008  0.00  0.00    +0.090 C 
ATOM     26  C   LIG    1       -0.718   1.572   1.248  0.00  0.00    -0.070 A 
ATOM     27  C   LIG    1       -2.083   1.789   1.226  0.00  0.00    +0.010 A 
ATOM     28  C   LIG    1       -2.731   2.230   2.365  0.00  0.00    +0.020 A 
ATOM     29  C   LIG    1       -2.012   2.464   3.522  0.00  0.00    -0.120 A 
ATOM     30  C   LIG    1       -0.646   2.252   3.542  0.00  0.00    +0.050 A 
ATOM     31  C   LIG    1        0.001   1.806   2.405  0.00  0.00    +0.010 A 
ENDBRANCH   1  29
TORSDOF 2
