REMARK  Name = ZINCqH0000000AW1.0
REMARK                            x       y       z     vdW  Elec       q    Type
REMARK                         _______ _______ _______ _____ _____    ______ ____
ROOT
ATOM      1  C   LIG    1        2.430   0.581   1.627  0.00  0.00    +0.160 C 
ENDROOT
BRANCH   1   2
ATOM      2  C   LIG    1        2.847   2.025   1.738  0.00  0.00    +0.440 A 
ATOM      3  N   LIG    1        3.127   2.680   0.645  0.00  0.00    -0.580 NA
ATOM      4  C   LIG    1        3.499   3.970   0.678  0.00  0.00    +0.540 A 
ATOM      5  C   LIG    1        3.600   4.642   1.989  0.00  0.00    -0.210 A 
ATOM      6  C   LIG    1        3.298   3.900   3.111  0.00  0.00    +0.050 A 
ATOM      7  S   LIG    1        3.483   4.892   4.546  0.00  0.00    +0.200 S 
ATOM      8  C   LIG    1        3.969   6.298   3.599  0.00  0.00    -0.220 A 
ATOM      9  C   LIG    1        4.378   7.748   3.840  0.00  0.00    +0.130 C 
ATOM     10  C   LIG    1        4.216   8.437   2.470  0.00  0.00    +0.050 C 
ATOM     11  C   LIG    1        4.409   7.252   1.504  0.00  0.00    +0.110 C 
ATOM     12  C   LIG    1        3.984   6.020   2.302  0.00  0.00    -0.050 A 
ATOM     13  O   LIG    1        3.753   4.573  -0.352  0.00  0.00    -0.480 OA
ATOM     14  N   LIG    1        2.921   2.582   2.956  0.00  0.00    -0.590 N 
ATOM     15  H   LIG    1        2.706   2.051   3.739  0.00  0.00    +0.430 HD
ENDBRANCH   1   2
BRANCH   1  16
ATOM     16  C   LIG    1        2.417   0.165   0.155  0.00  0.00    +0.090 C 
BRANCH  16  19
ATOM     17  N   LIG    1        1.917  -1.866  -1.165  0.00  0.00    -0.720 N 
ATOM     18  H   LIG    1        2.126  -1.359  -1.966  0.00  0.00    +0.410 HD
ATOM     19  C   LIG    1        2.000  -1.279   0.045  0.00  0.00    +0.510 C 
ATOM     20  O   LIG    1        1.740  -1.913   1.046  0.00  0.00    -0.540 OA
BRANCH  17  21
ATOM     21  C   LIG    1        1.512  -3.270  -1.272  0.00  0.00    +0.180 C 
ATOM     22  C   LIG    1        0.080  -3.428  -0.758  0.00  0.00    +0.040 C 
ATOM     23  C   LIG    1        2.454  -4.138  -0.435  0.00  0.00    +0.030 C 
BRANCH  21  24
ATOM     24  C   LIG    1        1.580  -3.710  -2.736  0.00  0.00    +0.040 C 
BRANCH  24  26
ATOM     25  C   LIG    1        0.611  -1.473  -3.281  0.00  0.00    +0.030 C 
ATOM     26  C   LIG    1        0.504  -2.977  -3.539  0.00  0.00    -0.070 C 
ATOM     27  C   LIG    1       -0.879  -3.472  -3.110  0.00  0.00    +0.020 C 
ATOM     28  C   LIG    1        0.703  -3.254  -5.031  0.00  0.00    +0.030 C 
ENDBRANCH  24  26
ENDBRANCH  21  24
ENDBRANCH  17  21
ENDBRANCH  16  19
ENDBRANCH   1  16
TORSDOF 6
