REMARK  Name = ZINCrH000004pqua.0
REMARK                            x       y       z     vdW  Elec       q    Type
REMARK                         _______ _______ _______ _____ _____    ______ ____
ROOT
ATOM      1  N   LIG    1       -3.738  -0.903   0.612  0.00  0.00    -0.720 N 
ATOM      2  H   LIG    1       -4.542  -0.367   0.537  0.00  0.00    +0.400 HD
ATOM      3  C   LIG    1       -3.773  -2.084   1.260  0.00  0.00    +0.560 C 
ATOM      4  O   LIG    1       -2.765  -2.757   1.354  0.00  0.00    -0.510 OA
ENDROOT
BRANCH   3   5
ATOM      5  C   LIG    1       -5.037  -2.562   1.857  0.00  0.00    -0.190 A 
ATOM      6  C   LIG    1       -6.196  -1.790   1.757  0.00  0.00    +0.190 A 
ATOM      7  C   LIG    1       -7.374  -2.243   2.312  0.00  0.00    -0.700 A 
ATOM      8  C   LIG    1       -7.408  -3.457   2.977  0.00  0.00    +0.200 A 
ATOM      9  C   LIG    1       -6.265  -4.226   3.086  0.00  0.00    -0.020 A 
ATOM     10  C   LIG    1       -5.077  -3.787   2.530  0.00  0.00    +0.220 A 
ATOM     11  F   LIG    1       -3.960  -4.539   2.638  0.00  0.00    -0.100 F 
BRANCH   7  12
ATOM     12  S   LIG    1       -8.838  -1.272   2.180  0.00  0.00    +2.710 S 
ATOM     13  O   LIG    1       -9.930  -2.170   2.324  0.00  0.00    -0.950 OA
ATOM     14  O   LIG    1       -8.664  -0.435   1.045  0.00  0.00    -0.960 OA
BRANCH  12  15
ATOM     15  N   LIG    1       -8.881  -0.270   3.498  0.00  0.00    -1.250 NA
ATOM     16  H   LIG    1       -9.618   0.351   3.611  0.00  0.00    +0.420 HD
ATOM     17  H   LIG    1       -8.170  -0.303   4.157  0.00  0.00    +0.420 HD
ENDBRANCH  12  15
ENDBRANCH   7  12
ENDBRANCH   3   5
BRANCH   1  19
ATOM     18  C   LIG    1       -2.346  -0.989  -1.397  0.00  0.00    +0.040 C 
ATOM     19  C   LIG    1       -2.484  -0.430   0.020  0.00  0.00    +0.290 C 
BRANCH  19  20
ATOM     20  C   LIG    1       -2.491   1.076  -0.032  0.00  0.00    -0.070 A 
ATOM     21  C   LIG    1       -3.670   1.752  -0.109  0.00  0.00    +0.020 A 
ATOM     22  C   LIG    1       -3.696   3.145  -0.159  0.00  0.00    +0.040 A 
ATOM     23  C   LIG    1       -2.543   3.870  -0.133  0.00  0.00    -0.020 A 
ATOM     24  C   LIG    1       -1.306   3.206  -0.055  0.00  0.00    -0.040 A 
ATOM     25  C   LIG    1       -0.096   3.918  -0.026  0.00  0.00    +0.030 A 
ATOM     26  C   LIG    1        1.083   3.241   0.051  0.00  0.00    +0.020 A 
ATOM     27  C   LIG    1        1.109   1.849   0.102  0.00  0.00    +0.030 A 
ATOM     28  C   LIG    1       -0.044   1.126   0.076  0.00  0.00    +0.020 A 
ATOM     29 CL   LIG    1       -2.601   5.604  -0.197  0.00  0.00    -0.060 Cl
ATOM     30  C   LIG    1       -1.280   1.789  -0.008  0.00  0.00    -0.030 A 
ENDBRANCH  19  20
ENDBRANCH   1  19
TORSDOF 5
