REMARK  Name = ZINCpe000000SXIJ.0
REMARK                            x       y       z     vdW  Elec       q    Type
REMARK                         _______ _______ _______ _____ _____    ______ ____
ROOT
ATOM      1  C   LIG    1        3.901  -0.425  -1.670  0.00  0.00    +0.310 C 
ENDROOT
BRANCH   1   3
ATOM      2  C   LIG    1        4.559  -1.983  -3.424  0.00  0.00    +0.530 C 
ATOM      3  N   LIG    1        3.811  -0.929  -3.043  0.00  0.00    -0.730 N 
ATOM      4  H   LIG    1        3.212  -0.505  -3.677  0.00  0.00    +0.400 HD
ATOM      5  O   LIG    1        5.307  -2.514  -2.630  0.00  0.00    -0.530 OA
BRANCH   2   8
ATOM      6  N   LIG    1        4.691  -4.615  -5.947  0.00  0.00    -0.620 N 
ATOM      7  C   LIG    1        5.409  -3.708  -5.044  0.00  0.00    +0.300 C 
ATOM      8  C   LIG    1        4.467  -2.502  -4.835  0.00  0.00    -0.010 C 
ATOM      9  C   LIG    1        3.082  -3.135  -5.103  0.00  0.00    +0.070 C 
ATOM     10  C   LIG    1        3.381  -4.319  -5.995  0.00  0.00    +0.520 C 
ATOM     11  O   LIG    1        2.558  -4.915  -6.657  0.00  0.00    -0.520 OA
BRANCH   6  13
ATOM     12  C   LIG    1        4.689  -7.036  -6.293  0.00  0.00    +0.030 C 
ATOM     13  C   LIG    1        5.321  -5.703  -6.699  0.00  0.00    +0.240 C 
ATOM     14  C   LIG    1        5.112  -5.475  -8.198  0.00  0.00    +0.030 C 
ENDBRANCH   6  13
ENDBRANCH   2   8
ENDBRANCH   1   3
BRANCH   1  15
ATOM     15  C   LIG    1        2.878   0.696  -1.471  0.00  0.00    -0.020 C 
BRANCH  15  16
ATOM     16  C   LIG    1        3.244   1.870  -2.342  0.00  0.00    +0.520 C 
ATOM     17  O   LIG    1        4.409   2.159  -2.512  0.00  0.00    -0.530 OA
ATOM     18  N   LIG    1        2.276   2.600  -2.931  0.00  0.00    -0.850 N 
ATOM     19  H   LIG    1        2.511   3.310  -3.548  0.00  0.00    +0.400 HD
ATOM     20  H   LIG    1        1.343   2.414  -2.737  0.00  0.00    +0.400 HD
ENDBRANCH  15  16
BRANCH  15  21
ATOM     21  C   LIG    1        2.877   1.130  -0.004  0.00  0.00    +0.120 C 
BRANCH  21  22
ATOM     22  C   LIG    1        1.790   2.150   0.218  0.00  0.00    -0.110 A 
ATOM     23  C   LIG    1        0.494   1.735   0.463  0.00  0.00    +0.060 A 
ATOM     24  C   LIG    1       -0.505   2.670   0.660  0.00  0.00    -0.010 A 
ATOM     25  C   LIG    1       -0.206   4.021   0.623  0.00  0.00    +0.100 A 
ATOM     26  C   LIG    1        1.093   4.435   0.377  0.00  0.00    -0.010 A 
ATOM     27  F   LIG    1       -1.180   4.935   0.821  0.00  0.00    -0.140 F 
ATOM     28  C   LIG    1        2.089   3.498   0.174  0.00  0.00    +0.050 A 
ENDBRANCH  21  22
ENDBRANCH  15  21
ENDBRANCH   1  15
TORSDOF 7
