REMARK  Name = ZINCrg00000SjSvE.0
REMARK                            x       y       z     vdW  Elec       q    Type
REMARK                         _______ _______ _______ _____ _____    ______ ____
ROOT
ATOM      1  N   LIG    1        6.825   6.535  -0.029  0.00  0.00    -0.510 N 
ATOM      2  H   LIG    1        7.375   5.737  -0.038  0.00  0.00    +0.440 HD
ATOM      3  C   LIG    1        5.482   6.429  -0.018  0.00  0.00    +0.540 C 
ATOM      4  O   LIG    1        4.794   7.427  -0.007  0.00  0.00    -0.520 OA
ENDROOT
BRANCH   1   6
ATOM      5  C   LIG    1        8.771   7.907  -0.041  0.00  0.00    +0.520 C 
ATOM      6  N   LIG    1        7.427   7.801  -0.029  0.00  0.00    -0.520 N 
ATOM      7  H   LIG    1        6.877   8.600  -0.021  0.00  0.00    +0.440 HD
ATOM      8  O   LIG    1        9.459   6.909  -0.052  0.00  0.00    -0.510 OA
BRANCH   5   9
ATOM      9  C   LIG    1        9.418   9.268  -0.041  0.00  0.00    +0.250 C 
BRANCH   9  10
ATOM     10  O   LIG    1       10.840   9.120  -0.055  0.00  0.00    -0.290 OA
BRANCH  10  14
ATOM     11  C   LIG    1       13.087  12.583  -0.061  0.00  0.00    +0.100 A 
ATOM     12  C   LIG    1       13.717  11.347  -0.072  0.00  0.00    +0.030 A 
ATOM     13  C   LIG    1       12.965  10.188  -0.069  0.00  0.00    +0.040 A 
ATOM     14  C   LIG    1       11.580  10.260  -0.056  0.00  0.00    +0.090 A 
ATOM     15  C   LIG    1       10.950  11.496  -0.051  0.00  0.00    -0.040 A 
ATOM     16  C   LIG    1       11.701  12.655  -0.048  0.00  0.00    -0.040 A 
BRANCH  11  18
ATOM     17  C   LIG    1       13.112  14.960  -0.052  0.00  0.00    +0.250 C 
ATOM     18  O   LIG    1       13.827  13.723  -0.063  0.00  0.00    -0.320 OA
ENDBRANCH  11  18
ENDBRANCH  10  14
ENDBRANCH   9  10
ENDBRANCH   5   9
ENDBRANCH   1   6
BRANCH   3  19
ATOM     19  C   LIG    1        4.834   5.068  -0.018  0.00  0.00    +0.140 C 
BRANCH  19  20
ATOM     20  S   LIG    1        3.030   5.257  -0.000  0.00  0.00    +0.090 S 
BRANCH  20  21
ATOM     21  C   LIG    1        2.457   3.590  -0.003  0.00  0.00    +0.100 A 
ATOM     22  N   LIG    1        3.205   2.510  -0.015  0.00  0.00    -0.250 NA
ATOM     23  N   LIG    1        2.467   1.456  -0.013  0.00  0.00    -0.280 NA
ATOM     24  C   LIG    1        1.194   1.805   0.000  0.00  0.00    +0.200 A 
ATOM     25  C   LIG    1       -0.013   1.076   0.008  0.00  0.00    +0.080 A 
ATOM     26  C   LIG    1       -1.194   1.747   0.017  0.00  0.00    +0.070 A 
ATOM     27  C   LIG    1       -1.201   3.155   0.031  0.00  0.00    +0.030 A 
ATOM     28  C   LIG    1       -0.042   3.843   0.022  0.00  0.00    +0.240 A 
ATOM     29  N   LIG    1        1.156   3.183   0.008  0.00  0.00    -0.380 N 
ENDBRANCH  20  21
ENDBRANCH  19  20
ENDBRANCH   3  19
TORSDOF 8
