REMARK  Name = ZINCrg000000sGD2.0
REMARK                            x       y       z     vdW  Elec       q    Type
REMARK                         _______ _______ _______ _____ _____    ______ ____
ROOT
ATOM      1  N   LIG    1       -1.450   3.032  -0.362  0.00  0.00    -0.720 N 
ATOM      2  H   LIG    1       -1.502   2.198   0.131  0.00  0.00    +0.400 HD
ATOM      3  C   LIG    1       -1.838   4.184   0.219  0.00  0.00    +0.520 C 
ATOM      4  O   LIG    1       -1.772   5.227  -0.397  0.00  0.00    -0.530 OA
ENDROOT
BRANCH   3   5
ATOM      5  C   LIG    1       -2.354   4.178   1.635  0.00  0.00    -0.010 C 
ATOM      6  C   LIG    1       -3.592   3.282   1.722  0.00  0.00    +0.030 C 
ATOM      7  C   LIG    1       -4.093   3.251   3.170  0.00  0.00    +0.260 C 
ATOM      8  N   LIG    1       -4.313   4.630   3.625  0.00  0.00    -0.630 N 
ATOM      9  C   LIG    1       -3.214   5.598   3.501  0.00  0.00    +0.300 C 
ATOM     10  C   LIG    1       -5.499   5.001   4.146  0.00  0.00    +0.720 C 
ATOM     11  N   LIG    1       -6.424   4.068   4.446  0.00  0.00    -0.640 N 
ATOM     12  C   LIG    1       -6.045   2.659   4.638  0.00  0.00    +0.250 C 
ATOM     13  C   LIG    1       -6.646   2.178   5.968  0.00  0.00    +0.210 C 
ATOM     14  O   LIG    1       -8.046   2.465   5.982  0.00  0.00    -0.380 OA
ATOM     15  C   LIG    1       -8.358   3.858   5.914  0.00  0.00    +0.220 C 
ATOM     16  C   LIG    1       -7.845   4.427   4.586  0.00  0.00    +0.270 C 
ATOM     17  O   LIG    1       -5.735   6.177   4.345  0.00  0.00    -0.580 OA
ATOM     18  C   LIG    1       -2.723   5.604   2.050  0.00  0.00    +0.050 C 
ENDBRANCH   3   5
BRANCH   1  27
ATOM     19  C   LIG    1        3.593   4.979  -0.804  0.00  0.00    +0.350 C 
ATOM     20  N   LIG    1        2.508   4.159  -1.348  0.00  0.00    -0.380 N 
ATOM     21  C   LIG    1        1.198   4.260  -1.026  0.00  0.00    +0.250 A 
ATOM     22  C   LIG    1        0.531   3.333  -1.740  0.00  0.00    -0.260 A 
ATOM     23  C   LIG    1        1.463   2.640  -2.530  0.00  0.00    +0.080 A 
ATOM     24  C   LIG    1        1.087   1.522  -3.472  0.00  0.00    +0.120 C 
ATOM     25  C   LIG    1       -0.427   1.588  -3.714  0.00  0.00    +0.040 C 
ATOM     26  C   LIG    1       -1.162   1.659  -2.373  0.00  0.00    +0.020 C 
ATOM     27  C   LIG    1       -0.948   3.038  -1.738  0.00  0.00    +0.320 C 
ATOM     28  N   LIG    1        2.644   3.133  -2.295  0.00  0.00    -0.290 NA
ENDBRANCH   1  27
TORSDOF 2
