REMARK  Name = ZINCrD000006Vh3w.0
REMARK                            x       y       z     vdW  Elec       q    Type
REMARK                         _______ _______ _______ _____ _____    ______ ____
ROOT
ATOM      1  N   LIG    1        4.673   5.670   0.933  0.00  0.00    -0.540 NA
ATOM      2  C   LIG    1        3.975   6.014  -0.314  0.00  0.00    +0.190 C 
ATOM      3  C   LIG    1        2.523   5.537  -0.231  0.00  0.00    +0.190 C 
ATOM      4  N   LIG    1        2.499   4.086   0.000  0.00  0.00    -0.520 NA
ATOM      5  C   LIG    1        3.197   3.742   1.247  0.00  0.00    +0.190 C 
ATOM      6  C   LIG    1        4.649   4.219   1.164  0.00  0.00    +0.180 C 
ENDROOT
BRANCH   1   7
ATOM      7  C   LIG    1        6.051   6.178   0.923  0.00  0.00    +0.210 C 
BRANCH   7  12
ATOM      8  C   LIG    1        8.359   5.598   6.189  0.00  0.00    +0.090 C 
ATOM      9  C   LIG    1        7.757   5.749   4.816  0.00  0.00    -0.090 A 
ATOM     10  C   LIG    1        7.881   4.729   3.890  0.00  0.00    +0.000 A 
ATOM     11  C   LIG    1        7.328   4.868   2.631  0.00  0.00    +0.010 A 
ATOM     12  C   LIG    1        6.653   6.027   2.296  0.00  0.00    -0.080 A 
ATOM     13  C   LIG    1        6.534   7.049   3.220  0.00  0.00    +0.030 A 
ATOM     14  C   LIG    1        7.082   6.908   4.481  0.00  0.00    +0.000 A 
ENDBRANCH   7  12
ENDBRANCH   1   7
BRANCH   4  15
ATOM     15  C   LIG    1        1.121   3.578   0.011  0.00  0.00    +0.220 C 
BRANCH  15  16
ATOM     16  C   LIG    1        1.141   2.071   0.002  0.00  0.00    +0.510 C 
ATOM     17  N   LIG    1       -0.017   1.381   0.010  0.00  0.00    -0.640 N 
ATOM     18  H   LIG    1       -0.863   1.855   0.016  0.00  0.00    +0.420 HD
ATOM     19  O   LIG    1        2.200   1.479  -0.011  0.00  0.00    -0.440 OA
BRANCH  17  20
ATOM     20  C   LIG    1        0.002  -0.004   0.002  0.00  0.00    +0.340 A 
ATOM     21  N   LIG    1        1.069  -0.725  -0.018  0.00  0.00    -0.470 NA
ATOM     22  C   LIG    1        0.926  -2.065  -0.018  0.00  0.00    +0.110 A 
ATOM     23  C   LIG    1        1.926  -3.060  -0.033  0.00  0.00    +0.070 A 
ATOM     24  C   LIG    1        1.584  -4.389  -0.037  0.00  0.00    +0.040 A 
ATOM     25  C   LIG    1        0.252  -4.775  -0.027  0.00  0.00    +0.030 A 
ATOM     26  C   LIG    1       -0.742  -3.821  -0.012  0.00  0.00    +0.060 A 
ATOM     27  C   LIG    1       -0.413  -2.468  -0.007  0.00  0.00    -0.180 A 
ATOM     28  S   LIG    1       -1.428  -1.027   0.010  0.00  0.00    +0.060 S 
ENDBRANCH  17  20
ENDBRANCH  15  16
ENDBRANCH   4  15
TORSDOF 5
