REMARK  Name = ZINCrD0000071Aft.0
REMARK                            x       y       z     vdW  Elec       q    Type
REMARK                         _______ _______ _______ _____ _____    ______ ____
ROOT
ATOM      1  C   LIG    1        7.490   0.496  -0.071  0.00  0.00    +0.190 A 
ATOM      2  C   LIG    1        7.287   1.862  -0.248  0.00  0.00    +0.000 A 
ATOM      3  C   LIG    1        6.016   2.376  -0.240  0.00  0.00    +0.110 A 
ATOM      4  C   LIG    1        4.921   1.524  -0.053  0.00  0.00    -0.190 A 
ATOM      5  C   LIG    1        5.129   0.151   0.130  0.00  0.00    +0.090 A 
ATOM      6  C   LIG    1        6.404  -0.354   0.115  0.00  0.00    -0.020 A 
ENDROOT
BRANCH   1   8
ATOM      7  C   LIG    1        9.805   0.710   0.408  0.00  0.00    +0.510 C 
ATOM      8  N   LIG    1        8.783  -0.021  -0.080  0.00  0.00    -0.680 N 
ATOM      9  H   LIG    1        8.949  -0.907  -0.437  0.00  0.00    +0.420 HD
ATOM     10  O   LIG    1        9.586   1.777   0.941  0.00  0.00    -0.510 OA
BRANCH   7  11
ATOM     11  C   LIG    1       11.219   0.202   0.291  0.00  0.00    +0.060 C 
BRANCH  11  12
ATOM     12  C   LIG    1       12.178   1.215   0.919  0.00  0.00    +0.030 C 
BRANCH  12  13
ATOM     13  C   LIG    1       13.614   0.699   0.800  0.00  0.00    +0.000 C 
BRANCH  13  15
ATOM     14  C   LIG    1       16.009   1.196   1.309  0.00  0.00    +0.000 C 
ATOM     15  C   LIG    1       14.573   1.712   1.428  0.00  0.00    -0.010 C 
ENDBRANCH  13  15
ENDBRANCH  12  13
ENDBRANCH  11  12
ENDBRANCH   7  11
ENDBRANCH   1   8
BRANCH   4  16
ATOM     16  C   LIG    1        3.557   2.069  -0.042  0.00  0.00    +0.400 C 
ATOM     17  O   LIG    1        3.379   3.259  -0.196  0.00  0.00    -0.420 OA
BRANCH  16  18
ATOM     18  C   LIG    1        2.380   1.150   0.159  0.00  0.00    +0.240 C 
BRANCH  18  19
ATOM     19  O   LIG    1        1.151   1.924   0.129  0.00  0.00    -0.310 OA
BRANCH  19  20
ATOM     20  C   LIG    1       -0.001   1.248   0.296  0.00  0.00    +0.530 C 
ATOM     21  O   LIG    1        0.019   0.045   0.461  0.00  0.00    -0.490 OA
BRANCH  20  22
ATOM     22  C   LIG    1       -1.294   1.970   0.271  0.00  0.00    +0.030 A 
ATOM     23  C   LIG    1       -2.489   1.271   0.431  0.00  0.00    +0.320 A 
ATOM     24  N   LIG    1       -3.639   1.921   0.414  0.00  0.00    -0.440 NA
ATOM     25  C   LIG    1       -3.657   3.229   0.234  0.00  0.00    +0.120 A 
ATOM     26  C   LIG    1       -2.470   3.928   0.068  0.00  0.00    +0.230 A 
ATOM     27  C   LIG    1       -4.972   3.966   0.209  0.00  0.00    +0.160 C 
ATOM     28  N   LIG    1       -1.318   3.288   0.090  0.00  0.00    -0.380 NA
ENDBRANCH  20  22
ENDBRANCH  19  20
ENDBRANCH  18  19
ENDBRANCH  16  18
ENDBRANCH   4  16
TORSDOF 10
