REMARK  Name = ZINCAx0000000hP6.0
REMARK                            x       y       z     vdW  Elec       q    Type
REMARK                         _______ _______ _______ _____ _____    ______ ____
ROOT
ATOM      1  C   LIG    1        0.050  -3.675  -0.159  0.00  0.00    +0.350 C 
ATOM      2  C   LIG    1        0.206  -4.565  -1.370  0.00  0.00    -0.220 C 
ATOM      3  C   LIG    1        1.263  -5.375  -1.127  0.00  0.00    +0.100 C 
ATOM      4  C   LIG    1        1.821  -5.058   0.205  0.00  0.00    +0.520 C 
ATOM      5  O   LIG    1        2.776  -5.613   0.710  0.00  0.00    -0.510 OA
ATOM      6  N   LIG    1        1.114  -4.065   0.774  0.00  0.00    -0.590 N 
ENDROOT
BRANCH   1  10
ATOM      7  C   LIG    1        0.505   0.423  -1.278  0.00  0.00    +0.140 A 
ATOM      8  C   LIG    1        1.615  -0.406  -1.211  0.00  0.00    -0.080 A 
ATOM      9  C   LIG    1        1.466  -1.729  -0.843  0.00  0.00    +0.070 A 
ATOM     10  C   LIG    1        0.211  -2.230  -0.553  0.00  0.00    -0.140 A 
ATOM     11  C   LIG    1       -0.898  -1.407  -0.625  0.00  0.00    +0.070 A 
ATOM     12  C   LIG    1       -0.754  -0.082  -0.987  0.00  0.00    -0.010 A 
BRANCH   7  14
ATOM     13  C   LIG    1        1.975   2.178  -1.920  0.00  0.00    +0.250 C 
ATOM     14  O   LIG    1        0.650   1.727  -1.634  0.00  0.00    -0.320 OA
ENDBRANCH   7  14
ENDBRANCH   1  10
BRANCH   3  15
ATOM     15  O   LIG    1        1.734  -6.323  -1.969  0.00  0.00    -0.430 OA
ATOM     16  H   LIG    1        2.499  -6.806  -1.629  0.00  0.00    +0.410 HD
ENDBRANCH   3  15
BRANCH   2  17
ATOM     17  C   LIG    1       -0.628  -4.554  -2.576  0.00  0.00    +0.480 C 
ATOM     18  O   LIG    1       -0.142  -4.252  -3.649  0.00  0.00    -0.420 OA
BRANCH  17  19
ATOM     19  C   LIG    1       -2.058  -4.910  -2.488  0.00  0.00    -0.160 A 
ATOM     20  C   LIG    1       -2.591  -5.376  -1.283  0.00  0.00    +0.080 A 
ATOM     21  C   LIG    1       -3.927  -5.704  -1.202  0.00  0.00    +0.020 A 
ATOM     22  C   LIG    1       -4.746  -5.583  -2.319  0.00  0.00    +0.090 A 
ATOM     23  O   LIG    1       -6.059  -5.921  -2.219  0.00  0.00    -0.300 OA
ATOM     24  C   LIG    1       -6.929  -5.434  -3.246  0.00  0.00    +0.230 C 
ATOM     25  C   LIG    1       -6.261  -5.690  -4.604  0.00  0.00    +0.230 C 
ATOM     26  O   LIG    1       -5.010  -4.995  -4.626  0.00  0.00    -0.300 OA
ATOM     27  C   LIG    1       -4.220  -5.123  -3.525  0.00  0.00    +0.040 A 
ATOM     28  C   LIG    1       -2.882  -4.788  -3.611  0.00  0.00    +0.100 A 
ENDBRANCH  17  19
ENDBRANCH   2  17
BRANCH   6  29
ATOM     29  C   LIG    1        1.364  -3.476   2.092  0.00  0.00    +0.320 C 
BRANCH  29  30
ATOM     30  C   LIG    1        0.569  -4.242   3.152  0.00  0.00    +0.020 C 
BRANCH  30  31
ATOM     31  C   LIG    1        0.829  -3.626   4.528  0.00  0.00    +0.180 C 
BRANCH  31  32
ATOM     32  N   LIG    1        0.066  -4.362   5.545  0.00  0.00    -0.540 NA
ATOM     33  C   LIG    1       -1.380  -4.177   5.355  0.00  0.00    +0.140 C 
ATOM     34  C   LIG    1       -2.137  -5.006   6.396  0.00  0.00    +0.220 C 
ATOM     35  O   LIG    1       -1.710  -4.621   7.706  0.00  0.00    -0.390 OA
ATOM     36  C   LIG    1       -0.307  -4.789   7.926  0.00  0.00    +0.220 C 
ATOM     37  C   LIG    1        0.468  -3.958   6.900  0.00  0.00    +0.150 C 
ENDBRANCH  31  32
ENDBRANCH  30  31
ENDBRANCH  29  30
ENDBRANCH   6  29
TORSDOF 9
