REMARK  Name = ZINCpe000000XOOF.0
REMARK                            x       y       z     vdW  Elec       q    Type
REMARK                         _______ _______ _______ _____ _____    ______ ____
ROOT
ATOM      1  C   LIG    1       -2.555  11.226   5.595  0.00  0.00    +0.100 C 
ATOM      2  C   LIG    1       -2.392   9.742   5.799  0.00  0.00    -0.070 A 
ATOM      3  C   LIG    1       -1.381   9.063   5.145  0.00  0.00    +0.050 A 
ATOM      4  C   LIG    1       -1.224   7.704   5.335  0.00  0.00    +0.050 A 
ATOM      5  C   LIG    1       -2.090   7.014   6.174  0.00  0.00    +0.160 A 
ATOM      6  C   LIG    1       -3.105   7.693   6.832  0.00  0.00    +0.010 A 
ATOM      7  C   LIG    1       -3.256   9.059   6.644  0.00  0.00    +0.130 A 
ENDROOT
BRANCH   7   8
ATOM      8  N   LIG    1       -4.282   9.749   7.306  0.00  0.00    -0.330 N 
ATOM      9  N   LIG    1       -4.174  10.950   8.030  0.00  0.00    -0.070 NA
ATOM     10  N   LIG    1       -5.356  11.226   8.466  0.00  0.00    -0.030 NA
ATOM     11  N   LIG    1       -6.187  10.320   8.098  0.00  0.00    -0.330 NA
ATOM     12  C   LIG    1       -5.584   9.400   7.391  0.00  0.00    +0.250 A 
ATOM     13  C   LIG    1       -6.223   8.178   6.784  0.00  0.00    +0.220 C 
ENDBRANCH   7   8
BRANCH   5  14
ATOM     14  N   LIG    1       -1.934   5.636   6.361  0.00  0.00    -0.670 N 
ATOM     15  H   LIG    1       -2.116   5.240   7.228  0.00  0.00    +0.410 HD
ATOM     16  C   LIG    1       -1.531   4.858   5.336  0.00  0.00    +0.530 C 
ATOM     17  O   LIG    1       -1.224   5.362   4.277  0.00  0.00    -0.500 OA
BRANCH  16  18
ATOM     18  C   LIG    1       -1.462   3.362   5.508  0.00  0.00    +0.180 C 
ATOM     19  C   LIG    1       -0.264   3.005   6.389  0.00  0.00    +0.030 C 
BRANCH  18  20
ATOM     20  N   LIG    1       -1.310   2.725   4.193  0.00  0.00    -0.520 NA
ATOM     21  C   LIG    1        0.040   2.946   3.654  0.00  0.00    +0.200 C 
ATOM     22  C   LIG    1        0.133   2.338   2.253  0.00  0.00    +0.180 C 
ATOM     23  N   LIG    1       -0.174   0.902   2.324  0.00  0.00    -0.550 NA
ATOM     24  C   LIG    1       -1.524   0.681   2.863  0.00  0.00    +0.180 C 
ATOM     25  C   LIG    1       -0.022   0.266   1.009  0.00  0.00    +0.190 C 
ATOM     26  C   LIG    1       -1.616   1.290   4.264  0.00  0.00    +0.190 C 
ENDBRANCH  18  20
ENDBRANCH  16  18
ENDBRANCH   5  14
TORSDOF 4
