REMARK  Name = ZINCrH000004jREx.0
REMARK                            x       y       z     vdW  Elec       q    Type
REMARK                         _______ _______ _______ _____ _____    ______ ____
ROOT
ATOM      1  C   LIG    1       -4.831   4.315   1.758  0.00  0.00    +0.290 C 
ATOM      2  N   LIG    1       -4.581   5.758   1.739  0.00  0.00    -0.610 N 
ATOM      3  C   LIG    1       -3.329   6.223   1.556  0.00  0.00    +0.520 C 
ATOM      4  O   LIG    1       -3.134   7.416   1.452  0.00  0.00    -0.530 OA
ENDROOT
BRANCH   3   5
ATOM      5  C   LIG    1       -2.172   5.261   1.480  0.00  0.00    -0.020 C 
ATOM      6  C   LIG    1       -0.865   6.011   1.752  0.00  0.00    +0.050 C 
ATOM      7  C   LIG    1        0.307   5.029   1.708  0.00  0.00    +0.030 C 
ATOM      8  C   LIG    1        0.390   4.400   0.318  0.00  0.00    +0.260 C 
ATOM      9  N   LIG    1       -0.910   3.803  -0.015  0.00  0.00    -0.600 N 
ATOM     10  C   LIG    1       -0.996   2.514  -0.399  0.00  0.00    +0.600 C 
ATOM     11  O   LIG    1       -2.068   2.050  -0.738  0.00  0.00    -0.520 OA
ATOM     12  C   LIG    1       -2.116   4.637   0.083  0.00  0.00    +0.300 C 
BRANCH  10  13
ATOM     13  C   LIG    1        0.204   1.671  -0.408  0.00  0.00    -0.270 A 
ATOM     14  C   LIG    1        0.273   0.387   0.053  0.00  0.00    +0.090 A 
ATOM     15  C   LIG    1        1.522  -0.173  -0.083  0.00  0.00    +0.000 A 
ATOM     16  C   LIG    1        2.444   0.624  -0.635  0.00  0.00    -0.070 A 
ATOM     17  S   LIG    1        1.781   2.148  -1.022  0.00  0.00    +0.220 S 
ENDBRANCH  10  13
ENDBRANCH   3   5
BRANCH   2  18
ATOM     18  C   LIG    1       -5.692   6.697   1.918  0.00  0.00    +0.320 C 
BRANCH  18  19
ATOM     19  C   LIG    1       -6.293   7.041   0.555  0.00  0.00    +0.190 C 
BRANCH  19  20
ATOM     20  O   LIG    1       -6.877   5.870  -0.018  0.00  0.00    -0.310 OA
BRANCH  20  21
ATOM     21  C   LIG    1       -7.459   6.004  -1.239  0.00  0.00    +0.140 A 
ATOM     22  C   LIG    1       -7.474   7.240  -1.869  0.00  0.00    -0.060 A 
ATOM     23  C   LIG    1       -8.062   7.373  -3.112  0.00  0.00    +0.070 A 
ATOM     24  C   LIG    1       -8.646   6.278  -3.724  0.00  0.00    -0.070 A 
ATOM     25  C   LIG    1       -8.637   5.046  -3.094  0.00  0.00    +0.070 A 
ATOM     26 CL   LIG    1       -9.389   6.450  -5.283  0.00  0.00    -0.070 Cl
ATOM     27  C   LIG    1       -8.045   4.907  -1.854  0.00  0.00    +0.000 A 
ENDBRANCH  20  21
ENDBRANCH  19  20
ENDBRANCH  18  19
ENDBRANCH   2  18
TORSDOF 6
