REMARK  Name = ZINCvU0000000IC9.0
REMARK                            x       y       z     vdW  Elec       q    Type
REMARK                         _______ _______ _______ _____ _____    ______ ____
ROOT
ATOM      1  C   LIG    1        1.757   5.659   0.200  0.00  0.00    +0.170 A 
ATOM      2  N   LIG    1        0.455   5.566   0.045  0.00  0.00    -0.280 NA
ATOM      3  N   LIG    1        0.118   4.341  -0.142  0.00  0.00    -0.230 NA
ATOM      4  C   LIG    1        1.183   3.573  -0.119  0.00  0.00    +0.230 A 
ATOM      5  N   LIG    1        2.267   4.393   0.107  0.00  0.00    -0.410 N 
ENDROOT
BRANCH   4   6
ATOM      6  C   LIG    1        1.213   2.106  -0.294  0.00  0.00    -0.010 A 
ATOM      7  C   LIG    1        2.135   1.523  -1.165  0.00  0.00    +0.070 A 
ATOM      8  C   LIG    1        2.158   0.153  -1.325  0.00  0.00    +0.050 A 
ATOM      9  C   LIG    1        1.269  -0.644  -0.624  0.00  0.00    -0.010 A 
ATOM     10  C   LIG    1        0.351  -0.073   0.241  0.00  0.00    +0.060 A 
ATOM     11 CL   LIG    1        1.304  -2.368  -0.831  0.00  0.00    -0.040 Cl
ATOM     12  C   LIG    1        0.318   1.297   0.410  0.00  0.00    +0.010 A 
ATOM     13 CL   LIG    1       -0.832   2.012   1.496  0.00  0.00    -0.030 Cl
ENDBRANCH   4   6
BRANCH   5  14
ATOM     14  C   LIG    1        3.612   4.011   0.215  0.00  0.00    +0.100 A 
ATOM     15  C   LIG    1        4.031   3.241   1.292  0.00  0.00    +0.090 A 
ATOM     16  C   LIG    1        5.355   2.860   1.394  0.00  0.00    +0.040 A 
ATOM     17  C   LIG    1        6.267   3.255   0.431  0.00  0.00    +0.140 A 
ATOM     18  C   LIG    1        5.852   4.028  -0.642  0.00  0.00    -0.060 A 
ATOM     19 CL   LIG    1        6.997   4.523  -1.849  0.00  0.00    -0.020 Cl
ATOM     20  F   LIG    1        7.562   2.885   0.535  0.00  0.00    -0.110 F 
ATOM     21  C   LIG    1        4.527   4.406  -0.751  0.00  0.00    +0.100 A 
ENDBRANCH   5  14
BRANCH   1  22
ATOM     22  S   LIG    1        2.673   7.138   0.483  0.00  0.00    +0.040 S 
BRANCH  22  23
ATOM     23  C   LIG    1        1.327   8.347   0.482  0.00  0.00    +0.090 C 
BRANCH  23  24
ATOM     24  C   LIG    1        1.898   9.747   0.718  0.00  0.00    +0.330 C 
BRANCH  24  31
ATOM     25  O   LIG    1        0.859  11.190  -1.502  0.00  0.00    -0.470 OA
ATOM     26  C   LIG    1        0.396  11.350  -0.393  0.00  0.00    +0.530 C 
ATOM     27  C   LIG    1       -0.741  12.286  -0.044  0.00  0.00    +0.080 C 
ATOM     28  C   LIG    1       -0.909  12.099   1.477  0.00  0.00    +0.080 C 
ATOM     29  C   LIG    1        0.146  11.073   1.828  0.00  0.00    +0.530 C 
ATOM     30  O   LIG    1        0.359  10.635   2.938  0.00  0.00    -0.470 OA
ATOM     31  N   LIG    1        0.808  10.726   0.717  0.00  0.00    -0.570 N 
ENDBRANCH  24  31
ENDBRANCH  23  24
ENDBRANCH  22  23
ENDBRANCH   1  22
TORSDOF 6
