REMARK  Name = ZINCvU0000000IWl.0
REMARK                            x       y       z     vdW  Elec       q    Type
REMARK                         _______ _______ _______ _____ _____    ______ ____
ROOT
ATOM      1  C   LIG    1        0.001  -0.023   0.171  0.00  0.00    -0.280 A 
ATOM      2  C   LIG    1        0.004   1.347   0.008  0.00  0.00    +0.300 A 
ATOM      3  N   LIG    1        1.281   1.766   0.059  0.00  0.00    -0.300 N 
ATOM      4  N   LIG    1        2.126   0.670   0.257  0.00  0.00    -0.270 NA
ATOM      5  C   LIG    1        1.402  -0.424   0.330  0.00  0.00    +0.190 A 
ENDROOT
BRANCH   5   6
ATOM      6  C   LIG    1        1.907  -1.803   0.534  0.00  0.00    -0.030 A 
ATOM      7  C   LIG    1        3.124  -2.192  -0.022  0.00  0.00    +0.050 A 
ATOM      8  C   LIG    1        3.590  -3.477   0.171  0.00  0.00    +0.020 A 
ATOM      9  C   LIG    1        2.850  -4.379   0.914  0.00  0.00    +0.050 A 
ATOM     10  C   LIG    1        1.640  -3.999   1.469  0.00  0.00    -0.040 A 
ATOM     11 CL   LIG    1        0.719  -5.138   2.400  0.00  0.00    -0.060 Cl
ATOM     12  C   LIG    1        1.167  -2.714   1.286  0.00  0.00    +0.110 A 
ENDBRANCH   5   6
BRANCH   3  13
ATOM     13  C   LIG    1        1.700   3.096  -0.067  0.00  0.00    +0.140 A 
ATOM     14  C   LIG    1        0.766   4.104  -0.268  0.00  0.00    -0.010 A 
ATOM     15  C   LIG    1        1.182   5.416  -0.386  0.00  0.00    +0.050 A 
ATOM     16  C   LIG    1        2.528   5.724  -0.317  0.00  0.00    +0.010 A 
ATOM     17  C   LIG    1        3.461   4.723  -0.122  0.00  0.00    +0.050 A 
ATOM     18  C   LIG    1        3.051   3.410   0.004  0.00  0.00    +0.030 A 
ENDBRANCH   3  13
BRANCH   1  21
ATOM     19  N   LIG    1       -2.411  -0.388   0.023  0.00  0.00    -0.670 N 
ATOM     20  H   LIG    1       -2.530   0.573  -0.023  0.00  0.00    +0.410 HD
ATOM     21  C   LIG    1       -1.177  -0.907   0.182  0.00  0.00    +0.600 C 
ATOM     22  O   LIG    1       -1.036  -2.105   0.336  0.00  0.00    -0.500 OA
BRANCH  19  26
ATOM     23  C   LIG    1       -5.708  -2.914  -0.275  0.00  0.00    -0.150 A 
ATOM     24  C   LIG    1       -4.472  -3.312  -0.793  0.00  0.00    +0.110 A 
ATOM     25  C   LIG    1       -3.385  -2.474  -0.693  0.00  0.00    +0.020 A 
ATOM     26  C   LIG    1       -3.514  -1.233  -0.077  0.00  0.00    +0.190 A 
ATOM     27  C   LIG    1       -4.742  -0.836   0.445  0.00  0.00    -0.020 A 
ATOM     28  C   LIG    1       -5.835  -1.666   0.343  0.00  0.00    +0.100 A 
BRANCH  23  29
ATOM     29  C   LIG    1       -6.876  -3.808  -0.379  0.00  0.00    +0.510 C 
ATOM     30  O   LIG    1       -6.764  -4.893  -0.916  0.00  0.00    -0.510 OA
BRANCH  29  32
ATOM     31  C   LIG    1       -9.172  -4.355  -0.018  0.00  0.00    +0.260 C 
ATOM     32  O   LIG    1       -8.067  -3.424   0.121  0.00  0.00    -0.360 OA
ENDBRANCH  29  32
ENDBRANCH  23  29
ENDBRANCH  19  26
ENDBRANCH   1  21
TORSDOF 6
