REMARK  Name = ZINCvU0000000I3K.0
REMARK                            x       y       z     vdW  Elec       q    Type
REMARK                         _______ _______ _______ _____ _____    ______ ____
ROOT
ATOM      1  C   LIG    1       -4.560  -8.810   1.701  0.00  0.00    +0.230 C 
ATOM      2  C   LIG    1       -5.428  -8.511   2.942  0.00  0.00    +0.030 C 
ATOM      3  C   LIG    1       -4.422  -7.849   3.920  0.00  0.00    +0.040 C 
ATOM      4  C   LIG    1       -3.520  -7.051   2.946  0.00  0.00    +0.250 C 
ATOM      5  N   LIG    1       -3.398  -7.912   1.755  0.00  0.00    -0.610 N 
ATOM      6  C   LIG    1       -2.390  -7.877   0.861  0.00  0.00    +0.530 C 
ATOM      7  O   LIG    1       -2.327  -8.713  -0.015  0.00  0.00    -0.510 OA
ENDROOT
BRANCH   6   8
ATOM      8  C   LIG    1       -1.341  -6.799   0.950  0.00  0.00    -0.010 C 
ATOM      9  C   LIG    1       -0.318  -6.985  -0.174  0.00  0.00    +0.080 C 
ATOM     10  C   LIG    1        0.711  -5.854  -0.115  0.00  0.00    +0.230 C 
ATOM     11  N   LIG    1        0.028  -4.562  -0.259  0.00  0.00    -0.440 N 
ATOM     12  C   LIG    1       -0.924  -4.339   0.836  0.00  0.00    +0.210 C 
ATOM     13  C   LIG    1       -2.002  -5.426   0.805  0.00  0.00    +0.060 C 
BRANCH  11  14
ATOM     14  C   LIG    1        0.936  -3.531  -0.340  0.00  0.00    +0.430 A 
ATOM     15  N   LIG    1        2.236  -3.671  -0.296  0.00  0.00    -0.510 NA
ATOM     16  C   LIG    1        2.812  -2.443  -0.405  0.00  0.00    +0.040 A 
ATOM     17  C   LIG    1        4.134  -1.996  -0.418  0.00  0.00    +0.070 A 
ATOM     18  C   LIG    1        4.399  -0.649  -0.545  0.00  0.00    +0.030 A 
ATOM     19  C   LIG    1        3.361   0.262  -0.660  0.00  0.00    +0.040 A 
ATOM     20  C   LIG    1        2.049  -0.167  -0.648  0.00  0.00    +0.050 A 
ATOM     21  C   LIG    1        1.765  -1.517  -0.521  0.00  0.00    +0.000 A 
ATOM     22  O   LIG    1        0.617  -2.232  -0.476  0.00  0.00    -0.220 OA
ENDBRANCH  11  14
ENDBRANCH   6   8
BRANCH   1  23
ATOM     23  C   LIG    1       -5.363  -8.545   0.426  0.00  0.00    +0.020 C 
BRANCH  23  24
ATOM     24  C   LIG    1       -6.502  -9.529   0.336  0.00  0.00    -0.060 A 
ATOM     25  C   LIG    1       -6.241 -10.885   0.287  0.00  0.00    +0.010 A 
ATOM     26  C   LIG    1       -7.285 -11.787   0.208  0.00  0.00    +0.000 A 
ATOM     27  C   LIG    1       -8.590 -11.332   0.171  0.00  0.00    -0.010 A 
ATOM     28  C   LIG    1       -8.851  -9.975   0.214  0.00  0.00    +0.000 A 
ATOM     29  C   LIG    1       -7.806  -9.073   0.297  0.00  0.00    +0.000 A 
ENDBRANCH  23  24
BRANCH  23  31
ATOM     30  C   LIG    1       -5.290  -8.626  -2.071  0.00  0.00    -0.020 C 
ATOM     31  C   LIG    1       -4.452  -8.707  -0.793  0.00  0.00    +0.050 C 
ENDBRANCH  23  31
ENDBRANCH   1  23
TORSDOF 5
