REMARK  Name = ZINCvU0000000Ico.0
REMARK                            x       y       z     vdW  Elec       q    Type
REMARK                         _______ _______ _______ _____ _____    ______ ____
ROOT
ATOM      1  N   LIG    1        0.585  -4.149  -0.095  0.00  0.00    -0.360 N 
ATOM      2  N   LIG    1        1.968  -4.102  -0.316  0.00  0.00    -0.240 NA
ATOM      3  C   LIG    1        2.364  -2.873  -0.139  0.00  0.00    +0.320 A 
ATOM      4  N   LIG    1        1.268  -2.104   0.207  0.00  0.00    -0.450 N 
ATOM      5  C   LIG    1        0.182  -2.902   0.226  0.00  0.00    +0.470 A 
ATOM      6  S   LIG    1       -1.419  -2.421   0.591  0.00  0.00    -0.560 S 
ENDROOT
BRANCH   3   7
ATOM      7  C   LIG    1        3.753  -2.383  -0.279  0.00  0.00    -0.040 A 
ATOM      8  C   LIG    1        4.026  -1.017  -0.202  0.00  0.00    +0.070 A 
ATOM      9  C   LIG    1        5.323  -0.567  -0.330  0.00  0.00    +0.040 A 
ATOM     10  C   LIG    1        6.353  -1.467  -0.543  0.00  0.00    -0.010 A 
ATOM     11  C   LIG    1        6.089  -2.824  -0.625  0.00  0.00    +0.040 A 
ATOM     12 CL   LIG    1        7.983  -0.893  -0.709  0.00  0.00    -0.050 Cl
ATOM     13  C   LIG    1        4.795  -3.286  -0.495  0.00  0.00    +0.100 A 
ENDBRANCH   3   7
BRANCH   4  14
ATOM     14  C   LIG    1        1.283  -0.731   0.484  0.00  0.00    +0.110 A 
ATOM     15  C   LIG    1        1.641  -0.280   1.747  0.00  0.00    +0.040 A 
ATOM     16  C   LIG    1        1.655   1.075   2.017  0.00  0.00    +0.030 A 
ATOM     17  C   LIG    1        1.313   1.981   1.030  0.00  0.00    +0.050 A 
ATOM     18  C   LIG    1        0.955   1.535  -0.229  0.00  0.00    +0.030 A 
ATOM     19  C   LIG    1        0.939   0.182  -0.505  0.00  0.00    +0.040 A 
ENDBRANCH   4  14
BRANCH   1  20
ATOM     20  C   LIG    1       -0.268  -5.336  -0.194  0.00  0.00    +0.520 C 
BRANCH  20  21
ATOM     21  N   LIG    1       -0.483  -5.667  -1.609  0.00  0.00    -0.550 NA
ATOM     22  C   LIG    1       -1.539  -4.828  -2.191  0.00  0.00    +0.210 C 
BRANCH  21  23
ATOM     23  C   LIG    1       -0.793  -7.094  -1.774  0.00  0.00    +0.250 C 
BRANCH  23  27
ATOM     24  C   LIG    1       -0.713  -8.097  -5.928  0.00  0.00    +0.130 A 
ATOM     25  C   LIG    1        0.442  -8.198  -5.166  0.00  0.00    -0.020 A 
ATOM     26  C   LIG    1        0.414  -7.873  -3.824  0.00  0.00    +0.080 A 
ATOM     27  C   LIG    1       -0.765  -7.447  -3.239  0.00  0.00    -0.120 A 
ATOM     28  C   LIG    1       -1.919  -7.351  -3.994  0.00  0.00    +0.050 A 
ATOM     29  C   LIG    1       -1.894  -7.670  -5.339  0.00  0.00    -0.080 A 
BRANCH  24  31
ATOM     30  C   LIG    1       -1.915  -8.289  -7.970  0.00  0.00    +0.250 C 
ATOM     31  O   LIG    1       -0.688  -8.417  -7.248  0.00  0.00    -0.320 OA
ENDBRANCH  24  31
ENDBRANCH  23  27
ENDBRANCH  21  23
ENDBRANCH  20  21
ENDBRANCH   1  20
TORSDOF 7
