REMARK  Name = ZINCqH0000051ccA.1
REMARK                            x       y       z     vdW  Elec       q    Type
REMARK                         _______ _______ _______ _____ _____    ______ ____
ROOT
ATOM      1  O   LIG    1        3.574   2.776   0.380  0.00  0.00    -0.490 OA
ATOM      2  C   LIG    1        4.156   1.718   0.268  0.00  0.00    +0.510 C 
ATOM      3  N   LIG    1        3.456   0.572   0.158  0.00  0.00    -0.640 N 
ATOM      4  H   LIG    1        3.920  -0.281   0.146  0.00  0.00    +0.400 HD
ENDROOT
BRANCH   3   5
ATOM      5  C   LIG    1        2.054   0.611   0.061  0.00  0.00    -0.060 A 
ATOM      6  C   LIG    1        1.172   0.023   0.921  0.00  0.00    +0.230 A 
ATOM      7  N   LIG    1       -0.105   0.296   0.473  0.00  0.00    -0.490 N 
ATOM      8  H   LIG    1       -0.930   0.004   0.891  0.00  0.00    +0.450 HD
ATOM      9  N   LIG    1       -0.001   1.070  -0.689  0.00  0.00    -0.510 N 
ATOM     10  H   LIG    1       -0.742   1.403  -1.219  0.00  0.00    +0.440 HD
ATOM     11  C   LIG    1        1.307   1.266  -0.947  0.00  0.00    +0.540 A 
ATOM     12  O   LIG    1        1.766   1.895  -1.883  0.00  0.00    -0.530 OA
BRANCH   6  13
ATOM     13  C   LIG    1        1.522  -0.766   2.119  0.00  0.00    -0.050 A 
ATOM     14  C   LIG    1        2.859  -1.054   2.403  0.00  0.00    +0.040 A 
ATOM     15  C   LIG    1        3.179  -1.787   3.527  0.00  0.00    +0.010 A 
ATOM     16  C   LIG    1        2.179  -2.247   4.366  0.00  0.00    +0.030 A 
ATOM     17  C   LIG    1        0.852  -1.970   4.087  0.00  0.00    +0.010 A 
ATOM     18  C   LIG    1        0.518  -1.234   2.970  0.00  0.00    +0.020 A 
ENDBRANCH   6  13
ENDBRANCH   3   5
BRANCH   2  19
ATOM     19  C   LIG    1        5.663   1.685   0.253  0.00  0.00    +0.040 C 
BRANCH  19  20
ATOM     20  C   LIG    1        6.205   3.109   0.393  0.00  0.00    +0.290 C 
BRANCH  20  21
ATOM     21  C   LIG    1        7.706   3.091   0.255  0.00  0.00    -0.100 A 
ATOM     22  C   LIG    1        8.293   3.442  -0.946  0.00  0.00    +0.050 A 
ATOM     23  C   LIG    1        9.670   3.426  -1.073  0.00  0.00    +0.060 A 
ATOM     24  C   LIG    1       10.460   3.058   0.001  0.00  0.00    -0.030 A 
ATOM     25  C   LIG    1        9.871   2.706   1.204  0.00  0.00    -0.030 A 
ATOM     26 CL   LIG    1       10.861   2.244   2.553  0.00  0.00    -0.040 Cl
ATOM     27 CL   LIG    1       12.188   3.038  -0.159  0.00  0.00    -0.040 Cl
ATOM     28  C   LIG    1        8.494   2.728   1.331  0.00  0.00    +0.050 A 
ENDBRANCH  20  21
BRANCH  20  29
ATOM     29  O   LIG    1        5.851   3.630   1.675  0.00  0.00    -0.530 OA
ATOM     30  H   LIG    1        6.200   3.118   2.418  0.00  0.00    +0.370 HD
ENDBRANCH  20  29
ENDBRANCH  19  20
ENDBRANCH   2  19
TORSDOF 6
