REMARK  Name = ZINCrH00000tj0Cn.0
REMARK                            x       y       z     vdW  Elec       q    Type
REMARK                         _______ _______ _______ _____ _____    ______ ____
ROOT
ATOM      1  C   LIG    1        0.064   1.030  -2.789  0.00  0.00    +0.160 A 
ATOM      2  N   LIG    1        1.131   0.304  -2.550  0.00  0.00    -0.280 NA
ATOM      3  N   LIG    1        1.906  -0.237  -3.575  0.00  0.00    -0.460 N 
ATOM      4  H   LIG    1        2.682  -0.770  -3.342  0.00  0.00    +0.450 HD
ATOM      5  C   LIG    1        1.624  -0.044  -4.871  0.00  0.00    +0.410 A 
ATOM      6  C   LIG    1        0.532   0.706  -5.235  0.00  0.00    -0.230 A 
ATOM      7  C   LIG    1       -0.093   1.133  -6.489  0.00  0.00    -0.050 A 
ATOM      8  C   LIG    1        0.192   0.935  -7.839  0.00  0.00    +0.000 A 
ATOM      9  C   LIG    1       -0.625   1.493  -8.799  0.00  0.00    +0.100 A 
ATOM     10  C   LIG    1       -1.730   2.252  -8.426  0.00  0.00    -0.010 A 
ATOM     11  C   LIG    1       -2.028   2.459  -7.112  0.00  0.00    +0.090 A 
ATOM     12  F   LIG    1       -0.351   1.302 -10.108  0.00  0.00    -0.140 F 
ATOM     13  C   LIG    1       -1.217   1.905  -6.108  0.00  0.00    +0.070 A 
ATOM     14  N   LIG    1       -1.291   1.957  -4.766  0.00  0.00    -0.450 NA
ATOM     15  C   LIG    1       -0.316   1.289  -4.180  0.00  0.00    +0.140 A 
ENDROOT
BRANCH   1  16
ATOM     16  S   LIG    1       -0.890   1.687  -1.462  0.00  0.00    +0.130 S 
BRANCH  16  17
ATOM     17  C   LIG    1       -0.013   1.086   0.008  0.00  0.00    +0.090 C 
BRANCH  17  19
ATOM     18  O   LIG    1       -1.714   2.256   1.150  0.00  0.00    -0.520 OA
ATOM     19  C   LIG    1       -0.718   1.572   1.248  0.00  0.00    +0.540 C 
ATOM     20  N   LIG    1       -0.242   1.246   2.466  0.00  0.00    -0.720 N 
ATOM     21  H   LIG    1        0.555   0.699   2.544  0.00  0.00    +0.400 HD
BRANCH  20  22
ATOM     22  C   LIG    1       -0.927   1.718   3.671  0.00  0.00    +0.330 C 
BRANCH  22  23
ATOM     23  C   LIG    1       -0.198   1.219   4.892  0.00  0.00    -0.150 A 
ATOM     24  C   LIG    1        0.584   2.085   5.632  0.00  0.00    +0.070 A 
ATOM     25  C   LIG    1        1.252   1.627   6.753  0.00  0.00    +0.000 A 
ATOM     26  C   LIG    1        1.140   0.303   7.133  0.00  0.00    +0.060 A 
ATOM     27  C   LIG    1        0.358  -0.565   6.394  0.00  0.00    -0.020 A 
ATOM     28  C   LIG    1       -0.317  -0.106   5.276  0.00  0.00    +0.110 A 
ATOM     29  F   LIG    1       -1.086  -0.952   4.556  0.00  0.00    -0.130 F 
ENDBRANCH  22  23
ENDBRANCH  20  22
ENDBRANCH  17  19
ENDBRANCH  16  17
ENDBRANCH   1  16
TORSDOF 5
