REMARK  Name = ZINCkj000005joKO.1
REMARK                            x       y       z     vdW  Elec       q    Type
REMARK                         _______ _______ _______ _____ _____    ______ ____
ROOT
ATOM      1  N   LIG    1       -1.191   1.870   0.018  0.00  0.00    -0.740 N 
ATOM      2  H   LIG    1       -1.204   2.840   0.023  0.00  0.00    +0.390 HD
ATOM      3  C   LIG    1       -0.014   1.212   0.009  0.00  0.00    +0.590 C 
ATOM      4  O   LIG    1        0.002  -0.004   0.002  0.00  0.00    -0.510 OA
ENDROOT
BRANCH   1   8
ATOM      5  C   LIG    1       -4.882   4.089  -0.270  0.00  0.00    +0.100 C 
ATOM      6  C   LIG    1       -3.770   3.218   0.317  0.00  0.00    +0.150 C 
ATOM      7  C   LIG    1       -3.564   1.989  -0.571  0.00  0.00    +0.080 C 
ATOM      8  C   LIG    1       -2.449   1.121   0.020  0.00  0.00    +0.250 C 
ATOM      9  C   LIG    1       -2.818   0.743   1.457  0.00  0.00    +0.060 C 
ATOM     10  C   LIG    1       -3.052   2.018   2.270  0.00  0.00    +0.250 C 
ATOM     11  N   LIG    1       -4.146   2.791   1.670  0.00  0.00    -0.380 N 
ATOM     12  C   LIG    1       -4.419   3.974   2.497  0.00  0.00    +0.330 C 
ATOM     13  H   LIG    1       -4.975   2.217   1.621  0.00  0.00    +0.420 HD
ENDBRANCH   1   8
BRANCH   3  14
ATOM     14  C   LIG    1        1.250   1.965   0.001  0.00  0.00    -0.180 A 
ATOM     15  C   LIG    1        1.314   3.324   0.008  0.00  0.00    -0.030 A 
ATOM     16  S   LIG    1        2.934   3.854  -0.005  0.00  0.00    +0.340 S 
ATOM     17  C   LIG    1        3.550   2.212  -0.020  0.00  0.00    -0.800 A 
ATOM     18  C   LIG    1        2.551   1.338  -0.009  0.00  0.00    +0.220 A 
BRANCH  17  19
ATOM     19  S   LIG    1        5.259   1.781  -0.041  0.00  0.00    +2.520 S 
ATOM     20  O   LIG    1        5.303   0.493   0.557  0.00  0.00    -0.920 OA
ATOM     21  O   LIG    1        5.907   2.892   0.565  0.00  0.00    -0.920 OA
ATOM     22  C   LIG    1        5.680   1.681  -1.802  0.00  0.00    -0.240 C 
ENDBRANCH  17  19
ENDBRANCH   3  14
TORSDOF 3
