REMARK  Name = ZINCkj000005joKO.0
REMARK                            x       y       z     vdW  Elec       q    Type
REMARK                         _______ _______ _______ _____ _____    ______ ____
ROOT
ATOM      1  N   LIG    1       -0.011   0.966   0.007  0.00  0.00    -0.730 N 
ATOM      2  H   LIG    1        0.002  -0.004   0.002  0.00  0.00    +0.400 HD
ATOM      3  C   LIG    1        1.147   1.655   0.000  0.00  0.00    +0.590 C 
ATOM      4  O   LIG    1        1.130   2.872   0.007  0.00  0.00    -0.520 OA
ENDROOT
BRANCH   1   8
ATOM      5  C   LIG    1       -3.637   2.813   1.349  0.00  0.00    +0.100 C 
ATOM      6  C   LIG    1       -3.721   1.506   0.557  0.00  0.00    +0.170 C 
ATOM      7  C   LIG    1       -2.373   0.785   0.624  0.00  0.00    +0.060 C 
ATOM      8  C   LIG    1       -1.290   1.681   0.017  0.00  0.00    +0.250 C 
ATOM      9  C   LIG    1       -1.684   2.045  -1.417  0.00  0.00    +0.050 C 
ATOM     10  C   LIG    1       -3.057   2.721  -1.407  0.00  0.00    +0.270 C 
ATOM     11  N   LIG    1       -4.053   1.803  -0.842  0.00  0.00    -0.380 N 
ATOM     12  C   LIG    1       -5.382   2.426  -0.906  0.00  0.00    +0.320 C 
ATOM     13  H   LIG    1       -4.060   0.946  -1.374  0.00  0.00    +0.420 HD
ENDBRANCH   1   8
BRANCH   3  14
ATOM     14  C   LIG    1        2.431   0.937  -0.016  0.00  0.00    -0.190 A 
ATOM     15  C   LIG    1        2.532  -0.419  -0.018  0.00  0.00    -0.010 A 
ATOM     16  S   LIG    1        4.165  -0.906  -0.043  0.00  0.00    +0.340 S 
ATOM     17  C   LIG    1        4.737   0.754  -0.039  0.00  0.00    -0.800 A 
ATOM     18  C   LIG    1        3.715   1.600  -0.025  0.00  0.00    +0.220 A 
BRANCH  17  19
ATOM     19  S   LIG    1        6.434   1.230  -0.053  0.00  0.00    +2.520 S 
ATOM     20  O   LIG    1        6.431   2.519  -0.651  0.00  0.00    -0.920 OA
ATOM     21  O   LIG    1        7.100   0.137  -0.670  0.00  0.00    -0.920 OA
ATOM     22  C   LIG    1        6.886   1.343   1.700  0.00  0.00    -0.240 C 
ENDBRANCH  17  19
ENDBRANCH   3  14
TORSDOF 3
