REMARK  Name = ZINCrH000004t5hr.0
REMARK                            x       y       z     vdW  Elec       q    Type
REMARK                         _______ _______ _______ _____ _____    ______ ____
ROOT
ATOM      1  C   LIG    1        1.339   1.689   2.730  0.00  0.00    +0.390 C 
ENDROOT
BRANCH   1   2
ATOM      2  C   LIG    1        1.554   0.459   3.573  0.00  0.00    -0.070 A 
ATOM      3  C   LIG    1        1.299   0.498   4.931  0.00  0.00    +0.030 A 
ATOM      4  C   LIG    1        1.492  -0.632   5.705  0.00  0.00    +0.060 A 
ATOM      5  C   LIG    1        1.949  -1.799   5.123  0.00  0.00    -0.010 A 
ATOM      6  C   LIG    1        2.210  -1.838   3.763  0.00  0.00    +0.100 A 
ATOM      7  F   LIG    1        2.657  -2.978   3.193  0.00  0.00    -0.140 F 
ATOM      8  C   LIG    1        2.012  -0.708   2.989  0.00  0.00    +0.000 A 
ENDBRANCH   1   2
BRANCH   1  14
ATOM      9  C   LIG    1       -0.013   1.086   0.008  0.00  0.00    +0.320 C 
ATOM     10  N   LIG    1       -0.698   1.558   1.213  0.00  0.00    -0.450 N 
ATOM     11  C   LIG    1       -2.037   1.816   1.338  0.00  0.00    +0.130 A 
ATOM     12  C   LIG    1       -2.239   2.224   2.606  0.00  0.00    +0.140 A 
ATOM     13  N   LIG    1       -1.054   2.224   3.235  0.00  0.00    -0.470 NA
ATOM     14  C   LIG    1       -0.127   1.827   2.407  0.00  0.00    +0.190 A 
ENDBRANCH   1  14
BRANCH   1  15
ATOM     15  N   LIG    1        1.789   2.872   3.469  0.00  0.00    -0.710 N 
ATOM     16  H   LIG    1        1.811   2.858   4.438  0.00  0.00    +0.410 HD
ATOM     17  C   LIG    1        2.172   3.978   2.801  0.00  0.00    +0.540 C 
ATOM     18  O   LIG    1        2.144   3.994   1.588  0.00  0.00    -0.510 OA
BRANCH  17  19
ATOM     19  C   LIG    1        2.635   5.194   3.560  0.00  0.00    +0.090 C 
BRANCH  19  20
ATOM     20  S   LIG    1        3.079   6.506   2.389  0.00  0.00    -0.180 S 
BRANCH  20  21
ATOM     21  C   LIG    1        3.603   7.862   3.474  0.00  0.00    +0.060 C 
BRANCH  21  22
ATOM     22  C   LIG    1        4.016   9.065   2.623  0.00  0.00    +0.100 C 
BRANCH  22  23
ATOM     23  C   LIG    1        4.450  10.192   3.525  0.00  0.00    -0.080 A 
ATOM     24  C   LIG    1        3.526  11.120   3.965  0.00  0.00    +0.010 A 
ATOM     25  C   LIG    1        3.924  12.151   4.796  0.00  0.00    +0.000 A 
ATOM     26  C   LIG    1        5.248  12.259   5.178  0.00  0.00    +0.000 A 
ATOM     27  C   LIG    1        6.173  11.334   4.733  0.00  0.00    +0.000 A 
ATOM     28  C   LIG    1        5.775  10.300   3.907  0.00  0.00    +0.010 A 
ENDBRANCH  22  23
ENDBRANCH  21  22
ENDBRANCH  20  21
ENDBRANCH  19  20
ENDBRANCH  17  19
ENDBRANCH   1  15
TORSDOF 8
