REMARK  Name = ZINCvU0000000DOy.0
REMARK                            x       y       z     vdW  Elec       q    Type
REMARK                         _______ _______ _______ _____ _____    ______ ____
ROOT
ATOM      1  C   LIG    1       -2.840   7.899   0.095  0.00  0.00    +0.120 C 
ENDROOT
BRANCH   1   2
ATOM      2  S   LIG    1       -1.665   6.523   0.091  0.00  0.00    +0.010 S 
BRANCH   2   9
ATOM      3  C   LIG    1       -2.529  -0.471   0.105  0.00  0.00    +0.130 C 
ATOM      4  C   LIG    1       -2.508   1.036   0.103  0.00  0.00    -0.040 A 
ATOM      5  C   LIG    1       -3.665   1.736   0.107  0.00  0.00    +0.070 A 
ATOM      6  C   LIG    1       -3.645   3.151   0.105  0.00  0.00    +0.220 A 
ATOM      7  N   LIG    1       -4.608   4.054   0.109  0.00  0.00    -0.260 NA
ATOM      8  N   LIG    1       -4.099   5.235   0.105  0.00  0.00    -0.250 NA
ATOM      9  C   LIG    1       -2.786   5.164   0.098  0.00  0.00    +0.140 A 
ATOM     10  N   LIG    1       -2.453   3.841   0.098  0.00  0.00    -0.390 N 
ATOM     11  C   LIG    1       -1.244   3.167   0.093  0.00  0.00    +0.140 A 
ATOM     12  C   LIG    1       -0.041   3.861   0.086  0.00  0.00    +0.010 A 
ATOM     13  C   LIG    1        1.153   3.169   0.080  0.00  0.00    +0.060 A 
ATOM     14  C   LIG    1        1.165   1.782   0.082  0.00  0.00    +0.020 A 
ATOM     15  C   LIG    1       -0.016   1.075   0.089  0.00  0.00    +0.060 A 
ATOM     16  C   LIG    1       -1.234   1.761   0.088  0.00  0.00    -0.060 A 
ENDBRANCH   2   9
ENDBRANCH   1   2
BRANCH   1  17
ATOM     17  C   LIG    1       -2.075   9.224   0.089  0.00  0.00    +0.090 C 
BRANCH  17  18
ATOM     18  C   LIG    1       -3.053  10.370   0.092  0.00  0.00    +0.520 C 
ATOM     19  N   LIG    1       -2.603  11.640   0.089  0.00  0.00    -0.670 N 
ATOM     20  H   LIG    1       -1.652  11.818   0.150  0.00  0.00    +0.420 HD
ATOM     21  O   LIG    1       -4.246  10.149   0.098  0.00  0.00    -0.500 OA
BRANCH  19  22
ATOM     22  C   LIG    1       -3.509  12.704  -0.003  0.00  0.00    +0.160 A 
ATOM     23  C   LIG    1       -4.757  12.609   0.598  0.00  0.00    +0.100 A 
ATOM     24  C   LIG    1       -5.647  13.662   0.510  0.00  0.00    -0.160 A 
ATOM     25  C   LIG    1       -5.301  14.805  -0.185  0.00  0.00    +0.080 A 
ATOM     26  C   LIG    1       -4.061  14.902  -0.791  0.00  0.00    +0.060 A 
ATOM     27  C   LIG    1       -3.164  13.854  -0.702  0.00  0.00    -0.040 A 
ATOM     28 CL   LIG    1       -1.608  13.976  -1.463  0.00  0.00    -0.050 Cl
BRANCH  24  29
ATOM     29  C   LIG    1       -6.999  13.561   1.168  0.00  0.00    +0.510 C 
ATOM     30  F   LIG    1       -6.835  13.376   2.545  0.00  0.00    -0.170 F 
ATOM     31  F   LIG    1       -7.699  12.475   0.632  0.00  0.00    -0.170 F 
ATOM     32  F   LIG    1       -7.718  14.739   0.938  0.00  0.00    -0.170 F 
ENDBRANCH  24  29
ENDBRANCH  19  22
ENDBRANCH  17  18
ENDBRANCH   1  17
TORSDOF 6
