REMARK  Name = ZINCvU0000000IbZ.0
REMARK                            x       y       z     vdW  Elec       q    Type
REMARK                         _______ _______ _______ _____ _____    ______ ____
ROOT
ATOM      1  C   LIG    1       -2.549   3.877   0.045  0.00  0.00    +0.280 C 
ATOM      2  C   LIG    1       -3.057   3.935   1.501  0.00  0.00    +0.050 C 
ATOM      3  C   LIG    1       -3.634   5.372   1.610  0.00  0.00    +0.040 C 
ATOM      4  C   LIG    1       -2.651   6.170   0.719  0.00  0.00    +0.250 C 
ATOM      5  N   LIG    1       -2.329   5.262  -0.397  0.00  0.00    -0.610 N 
ATOM      6  C   LIG    1       -1.903   5.638  -1.619  0.00  0.00    +0.580 C 
ATOM      7  O   LIG    1       -1.713   6.814  -1.860  0.00  0.00    -0.530 OA
ENDROOT
BRANCH   1  11
ATOM      8  C   LIG    1        1.126   1.695  -0.126  0.00  0.00    +0.170 A 
ATOM      9  C   LIG    1        1.138   3.083  -0.126  0.00  0.00    -0.110 A 
ATOM     10  C   LIG    1       -0.051   3.785  -0.071  0.00  0.00    +0.100 A 
ATOM     11  C   LIG    1       -1.254   3.108  -0.015  0.00  0.00    -0.170 A 
ATOM     12  C   LIG    1       -1.271   1.720  -0.020  0.00  0.00    +0.170 A 
ATOM     13  C   LIG    1       -0.080   1.013  -0.070  0.00  0.00    -0.100 A 
BRANCH   8  15
ATOM     14  C   LIG    1        3.500   1.773  -0.237  0.00  0.00    +0.250 C 
ATOM     15  O   LIG    1        2.296   1.006  -0.181  0.00  0.00    -0.310 OA
ENDBRANCH   8  15
BRANCH  12  16
ATOM     16  O   LIG    1       -2.455   1.054   0.028  0.00  0.00    -0.310 OA
ATOM     17  C   LIG    1       -2.397  -0.373   0.024  0.00  0.00    +0.240 C 
ENDBRANCH  12  16
ENDBRANCH   1  11
BRANCH   6  18
ATOM     18  C   LIG    1       -1.668   4.621  -2.665  0.00  0.00    -0.120 A 
ATOM     19  C   LIG    1       -2.003   3.286  -2.433  0.00  0.00    +0.060 A 
ATOM     20  C   LIG    1       -1.785   2.342  -3.416  0.00  0.00    +0.020 A 
ATOM     21  C   LIG    1       -1.225   2.715  -4.625  0.00  0.00    -0.050 A 
ATOM     22  C   LIG    1       -0.886   4.036  -4.860  0.00  0.00    +0.020 A 
ATOM     23  C   LIG    1       -1.104   4.990  -3.888  0.00  0.00    +0.080 A 
BRANCH  21  24
ATOM     24  C   LIG    1       -0.984   1.678  -5.691  0.00  0.00    +0.120 C 
BRANCH  24  25
ATOM     25  S   LIG    1        0.671   0.975  -5.486  0.00  0.00    +0.030 S 
BRANCH  25  26
ATOM     26  C   LIG    1        0.685  -0.172  -6.823  0.00  0.00    +0.010 A 
ATOM     27  N   LIG    1        1.679  -0.950  -7.125  0.00  0.00    -0.450 NA
ATOM     28  C   LIG    1        1.515  -1.752  -8.161  0.00  0.00    +0.080 A 
ATOM     29  C   LIG    1        0.333  -1.641  -8.767  0.00  0.00    -0.080 A 
ATOM     30  C   LIG    1        2.581  -2.712  -8.625  0.00  0.00    +0.160 C 
ATOM     31  S   LIG    1       -0.606  -0.418  -7.916  0.00  0.00    +0.130 S 
ENDBRANCH  25  26
ENDBRANCH  24  25
ENDBRANCH  21  24
ENDBRANCH   6  18
TORSDOF 7
