REMARK  Name = ZINCpk00000xIetJ.0
REMARK                            x       y       z     vdW  Elec       q    Type
REMARK                         _______ _______ _______ _____ _____    ______ ____
ROOT
ATOM      1  N   LIG    1       -1.727  -1.016  -1.373  0.00  0.00    -0.530 NA
ATOM      2  C   LIG    1       -2.077   0.243  -2.044  0.00  0.00    +0.180 C 
ATOM      3  C   LIG    1       -2.446  -0.044  -3.501  0.00  0.00    +0.200 C 
ATOM      4  N   LIG    1       -3.571  -0.989  -3.542  0.00  0.00    -0.550 NA
ATOM      5  C   LIG    1       -3.221  -2.248  -2.871  0.00  0.00    +0.200 C 
ATOM      6  C   LIG    1       -2.852  -1.961  -1.413  0.00  0.00    +0.200 C 
ENDROOT
BRANCH   1   7
ATOM      7  C   LIG    1       -1.294  -0.774   0.010  0.00  0.00    +0.240 C 
BRANCH   7  11
ATOM      8  C   LIG    1        2.383   1.407  -0.013  0.00  0.00    +0.100 A 
ATOM      9  C   LIG    1        2.397   0.021  -0.020  0.00  0.00    -0.040 A 
ATOM     10  C   LIG    1        1.207  -0.681  -0.013  0.00  0.00    +0.060 A 
ATOM     11  C   LIG    1        0.002  -0.004   0.002  0.00  0.00    -0.090 A 
ATOM     12  C   LIG    1       -0.017   1.379   0.010  0.00  0.00    +0.030 A 
ATOM     13  C   LIG    1        1.171   2.087   0.002  0.00  0.00    +0.070 A 
ATOM     14  F   LIG    1        1.153   3.438   0.009  0.00  0.00    -0.130 F 
BRANCH   8  16
ATOM     15  C   LIG    1        4.760   1.336  -0.036  0.00  0.00    +0.250 C 
ATOM     16  O   LIG    1        3.552   2.100  -0.020  0.00  0.00    -0.310 OA
ENDBRANCH   8  16
ENDBRANCH   7  11
ENDBRANCH   1   7
BRANCH   4  17
ATOM     17  C   LIG    1       -4.004  -1.231  -4.924  0.00  0.00    +0.480 C 
BRANCH  17  18
ATOM     18  N   LIG    1       -4.877  -0.139  -5.361  0.00  0.00    -0.340 N 
ATOM     19  N   LIG    1       -4.358   0.998  -5.655  0.00  0.00    -0.220 NA
ATOM     20  C   LIG    1       -5.074   2.014  -6.051  0.00  0.00    +0.060 A 
ATOM     21  C   LIG    1       -6.468   1.897  -6.172  0.00  0.00    +0.080 A 
ATOM     22  C   LIG    1       -7.048   0.698  -5.866  0.00  0.00    -0.030 A 
ATOM     23  C   LIG    1       -4.401   3.321  -6.379  0.00  0.00    +0.150 C 
ATOM     24  C   LIG    1       -6.204  -0.354  -5.450  0.00  0.00    +0.480 A 
ATOM     25  O   LIG    1       -6.672  -1.446  -5.170  0.00  0.00    -0.530 OA
ENDBRANCH  17  18
ENDBRANCH   4  17
TORSDOF 5
