REMARK  Name = ZINCrH000004jbIH.0
REMARK                            x       y       z     vdW  Elec       q    Type
REMARK                         _______ _______ _______ _____ _____    ______ ____
ROOT
ATOM      1  N   LIG    1        1.307   5.888   2.476  0.00  0.00    -0.550 N 
ATOM      2  C   LIG    1        1.438   7.349   2.443  0.00  0.00    +0.310 C 
ATOM      3  C   LIG    1        2.441   7.697   3.567  0.00  0.00    +0.010 C 
ATOM      4  C   LIG    1        3.259   6.389   3.673  0.00  0.00    +0.090 C 
ATOM      5  C   LIG    1        2.321   5.322   3.153  0.00  0.00    +0.520 C 
ATOM      6  O   LIG    1        2.463   4.129   3.322  0.00  0.00    -0.500 OA
ENDROOT
BRANCH   1  11
ATOM      7  C   LIG    1       -1.831   5.148   0.707  0.00  0.00    -0.060 A 
ATOM      8  C   LIG    1       -1.800   3.766   0.687  0.00  0.00    -0.020 A 
ATOM      9  C   LIG    1       -0.741   3.086   1.261  0.00  0.00    +0.040 A 
ATOM     10  C   LIG    1        0.291   3.787   1.854  0.00  0.00    -0.010 A 
ATOM     11  C   LIG    1        0.263   5.175   1.876  0.00  0.00    +0.170 A 
ATOM     12  C   LIG    1       -0.800   5.854   1.296  0.00  0.00    -0.030 A 
BRANCH   7  14
ATOM     13  C   LIG    1       -4.082   6.099   1.129  0.00  0.00    +0.030 C 
ATOM     14  C   LIG    1       -2.987   5.884   0.082  0.00  0.00    +0.060 C 
ENDBRANCH   7  14
ENDBRANCH   1  11
BRANCH   3  15
ATOM     15  C   LIG    1        1.728   7.993   4.862  0.00  0.00    +0.520 C 
ATOM     16  N   LIG    1        2.436   8.196   5.990  0.00  0.00    -0.720 N 
ATOM     17  H   LIG    1        3.405   8.151   5.970  0.00  0.00    +0.400 HD
ATOM     18  O   LIG    1        0.517   8.048   4.888  0.00  0.00    -0.520 OA
BRANCH  16  19
ATOM     19  C   LIG    1        1.743   8.483   7.248  0.00  0.00    +0.290 C 
ATOM     20  C   LIG    1        1.449   9.982   7.338  0.00  0.00    +0.040 C 
BRANCH  19  21
ATOM     21  C   LIG    1        2.614   8.072   8.407  0.00  0.00    -0.080 A 
ATOM     22  C   LIG    1        3.976   8.302   8.362  0.00  0.00    +0.040 A 
ATOM     23  C   LIG    1        4.777   7.931   9.427  0.00  0.00    +0.030 A 
ATOM     24  C   LIG    1        4.216   7.318  10.534  0.00  0.00    +0.070 A 
ATOM     25  C   LIG    1        2.850   7.083  10.576  0.00  0.00    +0.080 A 
ATOM     26  F   LIG    1        2.300   6.486  11.656  0.00  0.00    -0.120 F 
ATOM     27  F   LIG    1        4.998   6.951  11.572  0.00  0.00    -0.120 F 
ATOM     28  C   LIG    1        2.051   7.461   9.512  0.00  0.00    +0.040 A 
ENDBRANCH  19  21
ENDBRANCH  16  19
ENDBRANCH   3  15
TORSDOF 5
