REMARK  Name = ZINCrH000004ndEl.0
REMARK                            x       y       z     vdW  Elec       q    Type
REMARK                         _______ _______ _______ _____ _____    ______ ____
ROOT
ATOM      1  C   LIG    1        3.305   2.723   0.602  0.00  0.00    +0.230 A 
ATOM      2  N   LIG    1        2.147   2.298   1.077  0.00  0.00    -0.460 NA
ATOM      3  C   LIG    1        1.395   2.024  -0.000  0.00  0.00    +0.190 A 
ATOM      4  N   LIG    1        2.106   2.296  -1.055  0.00  0.00    -0.380 NA
ATOM      5  O   LIG    1        3.204   2.699  -0.736  0.00  0.00    +0.080 OA
ENDROOT
BRANCH   1  11
ATOM      6  C   LIG    1        8.848   4.749   3.153  0.00  0.00    +0.160 A 
ATOM      7  C   LIG    1        7.688   4.315   3.752  0.00  0.00    +0.000 A 
ATOM      8  C   LIG    1        6.601   3.919   2.957  0.00  0.00    +0.180 A 
ATOM      9  N   LIG    1        5.462   3.494   3.518  0.00  0.00    -0.470 NA
ATOM     10  C   LIG    1        4.435   3.127   2.795  0.00  0.00    +0.380 A 
ATOM     11  C   LIG    1        4.479   3.149   1.391  0.00  0.00    -0.100 A 
ATOM     12  C   LIG    1        5.635   3.582   0.749  0.00  0.00    +0.160 A 
ATOM     13  C   LIG    1        6.722   3.976   1.545  0.00  0.00    -0.140 A 
ATOM     14  C   LIG    1        7.922   4.425   0.964  0.00  0.00    +0.100 A 
ATOM     15  C   LIG    1        8.959   4.801   1.759  0.00  0.00    -0.050 A 
BRANCH   6  17
ATOM     16  C   LIG    1       11.076   5.571   3.243  0.00  0.00    +0.250 C 
ATOM     17  O   LIG    1        9.899   5.130   3.923  0.00  0.00    -0.310 OA
ENDBRANCH   6  17
ENDBRANCH   1  11
BRANCH   3  18
ATOM     18  C   LIG    1       -0.018   1.503   0.010  0.00  0.00    +0.230 C 
BRANCH  18  19
ATOM     19  C   LIG    1        0.002  -0.004   0.002  0.00  0.00    -0.040 A 
ATOM     20  C   LIG    1       -0.006  -0.657  -1.187  0.00  0.00    +0.040 A 
ATOM     21  C   LIG    1        0.019  -2.068  -1.207  0.00  0.00    +0.100 A 
ATOM     22  N   LIG    1        0.022  -2.983  -2.159  0.00  0.00    -0.300 NA
ATOM     23  N   LIG    1        0.045  -4.253  -1.570  0.00  0.00    -0.420 N 
ATOM     24  H   LIG    1        0.052  -5.092  -2.056  0.00  0.00    +0.450 HD
ATOM     25  C   LIG    1        0.056  -4.137  -0.235  0.00  0.00    +0.270 A 
ATOM     26  C   LIG    1        0.041  -2.790   0.075  0.00  0.00    -0.210 A 
ATOM     27  C   LIG    1        0.042  -2.045   1.274  0.00  0.00    +0.090 A 
ATOM     28  C   LIG    1        0.023  -0.690   1.219  0.00  0.00    -0.010 A 
ENDBRANCH  18  19
ENDBRANCH   3  18
TORSDOF 4
