REMARK  Name = ZINCrg00000BoEAO.0
REMARK                            x       y       z     vdW  Elec       q    Type
REMARK                         _______ _______ _______ _____ _____    ______ ____
ROOT
ATOM      1  C   LIG    1        0.727  -1.962  -0.016  0.00  0.00    +0.260 C 
ATOM      2  C   LIG    1        0.026  -1.068   1.017  0.00  0.00    +0.310 C 
ATOM      3  N   LIG    1        0.002  -0.004   0.002  0.00  0.00    -1.050 NA
ATOM      4  C   LIG    1        0.000  -1.058  -1.024  0.00  0.00    +0.290 C 
ENDROOT
BRANCH   1   9
ATOM      5  O   LIG    1        2.425  -3.877  -0.868  0.00  0.00    -0.570 OA
ATOM      6  C   LIG    1        2.949  -2.851  -0.476  0.00  0.00    +0.710 C 
ATOM      7  N   LIG    1        4.291  -2.733  -0.489  0.00  0.00    -0.710 N 
ATOM      8  H   LIG    1        4.709  -1.915  -0.177  0.00  0.00    +0.400 HD
ATOM      9  N   LIG    1        2.186  -1.833  -0.030  0.00  0.00    -0.730 N 
ATOM     10  H   LIG    1        2.604  -1.015   0.283  0.00  0.00    +0.400 HD
BRANCH   7  11
ATOM     11  C   LIG    1        5.120  -3.839  -0.974  0.00  0.00    +0.110 C 
ATOM     12  C   LIG    1        4.699  -4.515  -2.296  0.00  0.00    +0.080 C 
ATOM     13  C   LIG    1        5.876  -4.249  -3.257  0.00  0.00    +0.010 C 
ATOM     14  C   LIG    1        7.114  -4.367  -2.333  0.00  0.00    +0.040 C 
ATOM     15  C   LIG    1        5.962  -4.637   0.023  0.00  0.00    +0.050 C 
ATOM     16  C   LIG    1        6.654  -3.737  -1.002  0.00  0.00    -0.050 C 
ENDBRANCH   7  11
ENDBRANCH   1   9
BRANCH   3  17
ATOM     17  S   LIG    1       -0.020   1.652   0.011  0.00  0.00    +2.720 S 
ATOM     18  O   LIG    1       -0.558   2.039   1.268  0.00  0.00    -0.950 OA
ATOM     19  O   LIG    1       -0.582   2.052  -1.231  0.00  0.00    -0.950 OA
BRANCH  17  20
ATOM     20  C   LIG    1        1.655   2.196  -0.002  0.00  0.00    -0.680 A 
ATOM     21  C   LIG    1        2.300   2.416  -1.205  0.00  0.00    +0.140 A 
ATOM     22  C   LIG    1        3.615   2.842  -1.219  0.00  0.00    +0.020 A 
ATOM     23  C   LIG    1        4.291   3.050  -0.026  0.00  0.00    +0.110 A 
ATOM     24  O   LIG    1        5.588   3.462  -0.056  0.00  0.00    -0.300 OA
ATOM     25  C   LIG    1        6.115   4.016   1.154  0.00  0.00    +0.230 C 
ATOM     26  C   LIG    1        5.714   3.098   2.317  0.00  0.00    +0.230 C 
ATOM     27  O   LIG    1        4.285   3.034   2.366  0.00  0.00    -0.300 OA
ATOM     28  C   LIG    1        3.642   2.831   1.183  0.00  0.00    +0.030 A 
ATOM     29  C   LIG    1        2.321   2.408   1.191  0.00  0.00    +0.140 A 
ENDBRANCH  17  20
ENDBRANCH   3  17
TORSDOF 4
