REMARK  Name = ZINCrD000000C4ds.0
REMARK                            x       y       z     vdW  Elec       q    Type
REMARK                         _______ _______ _______ _____ _____    ______ ____
ROOT
ATOM      1  O   LIG    1        0.945  -1.659  -3.005  0.00  0.00    -0.560 OA
ATOM      2  C   LIG    1        0.297  -1.340  -2.027  0.00  0.00    +0.710 C 
ATOM      3  N   LIG    1        0.797  -0.451  -1.147  0.00  0.00    -0.620 N 
ATOM      4  C   LIG    1       -0.018   0.032  -0.025  0.00  0.00    +0.270 C 
ATOM      5  C   LIG    1       -0.031   1.563  -0.048  0.00  0.00    +0.020 C 
ATOM      6  C   LIG    1        1.409   2.082  -0.046  0.00  0.00    +0.060 C 
ATOM      7  C   LIG    1        2.131   1.588  -1.306  0.00  0.00    -0.070 C 
ATOM      8  C   LIG    1        1.377   2.065  -2.544  0.00  0.00    +0.060 C 
ATOM      9  C   LIG    1        2.248   2.947  -3.460  0.00  0.00    -0.300 C 
ATOM     10  S   LIG    1        3.955   2.400  -3.052  0.00  0.00    +2.370 S 
ATOM     11  O   LIG    1        4.856   3.490  -3.186  0.00  0.00    -0.940 OA
ATOM     12  O   LIG    1        4.230   1.161  -3.692  0.00  0.00    -0.920 OA
ATOM     13  C   LIG    1        3.583   2.112  -1.275  0.00  0.00    -0.290 C 
ATOM     14  C   LIG    1        2.169   0.054  -1.292  0.00  0.00    +0.320 C 
ATOM     15  N   LIG    1       -0.923  -1.876  -1.823  0.00  0.00    -0.670 N 
ATOM     16  H   LIG    1       -1.465  -1.579  -1.076  0.00  0.00    +0.410 HD
ENDROOT
BRANCH  15  17
ATOM     17  C   LIG    1       -1.407  -2.859  -2.689  0.00  0.00    +0.160 A 
ATOM     18  C   LIG    1       -0.954  -2.938  -3.991  0.00  0.00    +0.030 A 
ATOM     19  C   LIG    1       -1.417  -3.909  -4.880  0.00  0.00    +0.050 A 
ATOM     20  C   LIG    1       -2.346  -4.822  -4.482  0.00  0.00    -0.100 A 
ATOM     21  C   LIG    1       -3.049  -5.976  -5.156  0.00  0.00    +0.100 C 
ATOM     22  C   LIG    1       -3.980  -6.572  -4.078  0.00  0.00    +0.100 C 
ATOM     23  C   LIG    1       -3.759  -5.726  -2.848  0.00  0.00    -0.070 A 
ATOM     24  C   LIG    1       -4.265  -5.726  -1.584  0.00  0.00    +0.010 A 
ATOM     25  C   LIG    1       -3.839  -4.777  -0.653  0.00  0.00    +0.010 A 
ATOM     26  C   LIG    1       -2.912  -3.821  -0.959  0.00  0.00    +0.000 A 
ATOM     27  C   LIG    1       -2.814  -4.757  -3.173  0.00  0.00    -0.060 A 
ATOM     28  C   LIG    1       -2.365  -3.797  -2.250  0.00  0.00    -0.060 A 
ENDBRANCH  15  17
TORSDOF 1
