REMARK  Name = ZINCqH0000004XfP.0
REMARK                            x       y       z     vdW  Elec       q    Type
REMARK                         _______ _______ _______ _____ _____    ______ ____
ROOT
ATOM      1  C   LIG    1        4.463  -4.134  -0.062  0.00  0.00    +0.340 C 
ATOM      2  N   LIG    1        3.042  -3.780  -0.047  0.00  0.00    -0.520 N 
ATOM      3  C   LIG    1        2.106  -4.749  -0.043  0.00  0.00    +0.490 C 
ATOM      4  O   LIG    1        0.929  -4.456  -0.031  0.00  0.00    -0.450 OA
ENDROOT
BRANCH   2   5
ATOM      5  C   LIG    1        2.660  -2.448  -0.037  0.00  0.00    +0.330 A 
ATOM      6  N   LIG    1        1.441  -2.033  -0.023  0.00  0.00    -0.470 NA
ATOM      7  C   LIG    1        1.228  -0.702  -0.014  0.00  0.00    +0.110 A 
ATOM      8  C   LIG    1        0.002  -0.004   0.002  0.00  0.00    +0.070 A 
ATOM      9  C   LIG    1       -0.017   1.368   0.010  0.00  0.00    +0.040 A 
ATOM     10  C   LIG    1        1.167   2.090   0.002  0.00  0.00    +0.040 A 
ATOM     11  C   LIG    1        2.376   1.430  -0.013  0.00  0.00    +0.060 A 
ATOM     12  C   LIG    1        2.414   0.038  -0.021  0.00  0.00    -0.180 A 
ATOM     13  S   LIG    1        3.771  -1.085  -0.040  0.00  0.00    +0.070 S 
ENDBRANCH   2   5
BRANCH   3  14
ATOM     14  C   LIG    1        2.521  -6.198  -0.054  0.00  0.00    +0.370 C 
BRANCH  14  15
ATOM     15  N   LIG    1        1.328  -7.048  -0.048  0.00  0.00    -0.480 N 
ATOM     16  C   LIG    1        0.770  -7.431  -1.226  0.00  0.00    +0.400 A 
ATOM     17  C   LIG    1       -0.332  -8.216  -1.245  0.00  0.00    -0.280 A 
ATOM     18  C   LIG    1       -0.910  -8.643  -0.041  0.00  0.00    +0.180 A 
ATOM     19  C   LIG    1       -0.349  -8.257   1.141  0.00  0.00    -0.150 A 
ATOM     20 CL   LIG    1       -1.041  -8.768   2.649  0.00  0.00    -0.010 Cl
ATOM     21  C   LIG    1        0.799  -7.444   1.125  0.00  0.00    +0.530 A 
ATOM     22  O   LIG    1        1.314  -7.095   2.176  0.00  0.00    -0.500 OA
BRANCH  17  23
ATOM     23  C   LIG    1       -0.937  -8.633  -2.561  0.00  0.00    +0.530 C 
ATOM     24  F   LIG    1       -0.601  -7.698  -3.546  0.00  0.00    -0.170 F 
ATOM     25  F   LIG    1       -2.329  -8.698  -2.435  0.00  0.00    -0.170 F 
ATOM     26  F   LIG    1       -0.443  -9.891  -2.924  0.00  0.00    -0.170 F 
ENDBRANCH  17  23
ENDBRANCH  14  15
ENDBRANCH   3  14
TORSDOF 4
