REMARK  Name = ZINCrH000004jyqN.0
REMARK                            x       y       z     vdW  Elec       q    Type
REMARK                         _______ _______ _______ _____ _____    ______ ____
ROOT
ATOM      1  C   LIG    1        4.051  -1.429   0.799  0.00  0.00    +0.290 C 
ATOM      2  N   LIG    1        3.161  -2.068  -0.173  0.00  0.00    -0.600 N 
ATOM      3  C   LIG    1        1.893  -1.633  -0.315  0.00  0.00    +0.530 C 
ATOM      4  O   LIG    1        1.132  -2.214  -1.059  0.00  0.00    -0.520 OA
ENDROOT
BRANCH   2   5
ATOM      5  C   LIG    1        3.649  -3.181  -0.992  0.00  0.00    +0.290 C 
ATOM      6  C   LIG    1        4.819  -2.700  -1.849  0.00  0.00    +0.010 C 
ATOM      7  C   LIG    1        5.452  -3.919  -2.530  0.00  0.00    +0.030 C 
ATOM      8  C   LIG    1        6.157  -4.755  -1.464  0.00  0.00    +0.080 C 
ATOM      9  C   LIG    1        5.228  -5.036  -0.312  0.00  0.00    -0.070 A 
ATOM     10  C   LIG    1        5.564  -6.069   0.553  0.00  0.00    +0.000 A 
ATOM     11  C   LIG    1        4.761  -6.369   1.634  0.00  0.00    +0.010 A 
ATOM     12  C   LIG    1        3.611  -5.635   1.858  0.00  0.00    -0.010 A 
ATOM     13  C   LIG    1        3.274  -4.610   0.999  0.00  0.00    +0.020 A 
ATOM     14  C   LIG    1        4.080  -4.308  -0.091  0.00  0.00    -0.090 A 
ENDBRANCH   2   5
BRANCH   3  15
ATOM     15  C   LIG    1        1.422  -0.423   0.451  0.00  0.00    +0.000 C 
ATOM     16  C   LIG    1        1.607   0.866  -0.382  0.00  0.00    +0.100 C 
ATOM     17  C   LIG    1        0.395   1.705  -0.042  0.00  0.00    +0.530 C 
ATOM     18  N   LIG    1       -0.548   0.941   0.537  0.00  0.00    -0.580 N 
ATOM     19  O   LIG    1        0.289   2.893  -0.260  0.00  0.00    -0.510 OA
ATOM     20  C   LIG    1       -0.110  -0.455   0.646  0.00  0.00    +0.310 C 
BRANCH  18  21
ATOM     21  C   LIG    1       -1.790   1.416   0.975  0.00  0.00    +0.110 A 
ATOM     22  C   LIG    1       -1.938   1.883   2.273  0.00  0.00    +0.060 A 
ATOM     23  C   LIG    1       -3.165   2.352   2.702  0.00  0.00    +0.020 A 
ATOM     24  C   LIG    1       -4.246   2.357   1.840  0.00  0.00    +0.060 A 
ATOM     25  C   LIG    1       -4.104   1.892   0.545  0.00  0.00    -0.010 A 
ATOM     26  C   LIG    1       -2.877   1.427   0.108  0.00  0.00    +0.110 A 
ATOM     27  F   LIG    1       -2.737   0.977  -1.159  0.00  0.00    -0.130 F 
ENDBRANCH  18  21
ENDBRANCH   3  15
TORSDOF 3
