REMARK  Name = ZINCpk00000y6xTh.0
REMARK                            x       y       z     vdW  Elec       q    Type
REMARK                         _______ _______ _______ _____ _____    ______ ____
ROOT
ATOM      1  O   LIG    1       -6.959  -5.617   1.246  0.00  0.00    -0.530 OA
ATOM      2  C   LIG    1       -6.585  -5.000   0.271  0.00  0.00    +0.510 C 
ATOM      3  N   LIG    1       -5.276  -4.718   0.113  0.00  0.00    -0.610 N 
ATOM      4  C   LIG    1       -4.681  -4.018  -1.039  0.00  0.00    +0.260 C 
ATOM      5  C   LIG    1       -3.202  -4.478  -1.063  0.00  0.00    +0.030 C 
ATOM      6  C   LIG    1       -2.878  -4.562   0.452  0.00  0.00    +0.250 C 
ATOM      7  C   LIG    1       -4.206  -5.057   1.063  0.00  0.00    +0.260 C 
ENDROOT
BRANCH   6   8
ATOM      8  N   LIG    1       -1.803  -5.526   0.700  0.00  0.00    -0.690 N 
ATOM      9  H   LIG    1       -2.015  -6.461   0.848  0.00  0.00    +0.420 HD
BRANCH   8  10
ATOM     10  C   LIG    1       -0.478  -5.101   0.722  0.00  0.00    +0.420 A 
ATOM     11  N   LIG    1       -0.201  -3.834   0.521  0.00  0.00    -0.350 NA
ATOM     12  N   LIG    1        1.123  -3.385   0.539  0.00  0.00    -0.250 N 
ATOM     13  C   LIG    1        1.688  -2.157   0.365  0.00  0.00    +0.170 A 
ATOM     14  C   LIG    1        3.027  -2.310   0.489  0.00  0.00    +0.200 A 
ATOM     15  N   LIG    1        3.287  -3.595   0.733  0.00  0.00    -0.460 NA
ATOM     16  C   LIG    1        2.145  -4.268   0.768  0.00  0.00    +0.140 A 
ATOM     17  C   LIG    1        1.845  -5.628   0.983  0.00  0.00    +0.180 A 
ATOM     18  C   LIG    1        0.548  -6.034   0.960  0.00  0.00    -0.050 A 
ENDBRANCH   8  10
ENDBRANCH   6   8
BRANCH   2  19
ATOM     19  C   LIG    1       -7.583  -4.550  -0.764  0.00  0.00    +0.270 C 
BRANCH  19  20
ATOM     20  C   LIG    1       -7.535  -5.482  -1.947  0.00  0.00    -0.120 A 
ATOM     21  C   LIG    1       -8.034  -6.766  -1.835  0.00  0.00    +0.020 A 
ATOM     22  C   LIG    1       -7.995  -7.620  -2.922  0.00  0.00    +0.020 A 
ATOM     23  C   LIG    1       -7.448  -7.193  -4.117  0.00  0.00    +0.020 A 
ATOM     24  C   LIG    1       -6.944  -5.911  -4.228  0.00  0.00    +0.010 A 
ATOM     25  C   LIG    1       -6.988  -5.055  -3.143  0.00  0.00    +0.020 A 
ENDBRANCH  19  20
BRANCH  19  26
ATOM     26  O   LIG    1       -8.895  -4.564  -0.199  0.00  0.00    -0.530 OA
ATOM     27  H   LIG    1       -9.180  -5.434   0.112  0.00  0.00    +0.390 HD
ENDBRANCH  19  26
ENDBRANCH   2  19
TORSDOF 5
