REMARK  Name = ZINCqH0000007tWr.2
REMARK                            x       y       z     vdW  Elec       q    Type
REMARK                         _______ _______ _______ _____ _____    ______ ____
ROOT
ATOM      1  C   LIG    1        2.803   6.454   4.596  0.00  0.00    +0.180 C 
ATOM      2  C   LIG    1        1.491   7.163   5.018  0.00  0.00    +0.040 C 
ATOM      3  C   LIG    1        0.427   6.094   4.656  0.00  0.00    +0.000 C 
ATOM      4  C   LIG    1        0.999   5.455   3.373  0.00  0.00    +0.190 C 
ATOM      5  N   LIG    1        2.451   5.710   3.367  0.00  0.00    -0.510 NA
ENDROOT
BRANCH   1   9
ATOM      6  C   LIG    1        5.850   9.334   3.770  0.00  0.00    +0.130 A 
ATOM      7  C   LIG    1        5.885   8.603   4.949  0.00  0.00    -0.030 A 
ATOM      8  C   LIG    1        4.899   7.673   5.213  0.00  0.00    +0.050 A 
ATOM      9  C   LIG    1        3.877   7.470   4.304  0.00  0.00    -0.110 A 
ATOM     10  C   LIG    1        3.843   8.192   3.126  0.00  0.00    +0.090 A 
ATOM     11  C   LIG    1        4.824   9.128   2.859  0.00  0.00    -0.080 A 
BRANCH   6  13
ATOM     12  C   LIG    1        6.719  10.965   2.274  0.00  0.00    +0.250 C 
ATOM     13  O   LIG    1        6.819  10.250   3.507  0.00  0.00    -0.320 OA
ENDBRANCH   6  13
ENDBRANCH   1   9
BRANCH   5  14
ATOM     14  C   LIG    1        3.206   4.453   3.279  0.00  0.00    +0.200 C 
BRANCH  14  15
ATOM     15  C   LIG    1        3.026   3.855   1.907  0.00  0.00    +0.510 C 
ATOM     16  N   LIG    1        3.631   2.692   1.595  0.00  0.00    -0.620 N 
ATOM     17  C   LIG    1        4.370   1.951   2.621  0.00  0.00    +0.280 C 
ATOM     18  O   LIG    1        2.336   4.419   1.085  0.00  0.00    -0.510 OA
BRANCH  16  19
ATOM     19  C   LIG    1        3.551   2.168   0.229  0.00  0.00    +0.340 C 
BRANCH  19  20
ATOM     20  C   LIG    1        2.281   1.372   0.070  0.00  0.00    -0.100 A 
ATOM     21  C   LIG    1        1.468   1.143   1.164  0.00  0.00    +0.010 A 
ATOM     22  C   LIG    1        0.303   0.413   1.018  0.00  0.00    +0.000 A 
ATOM     23  C   LIG    1       -0.049  -0.087  -0.222  0.00  0.00    +0.000 A 
ATOM     24  C   LIG    1        0.764   0.144  -1.316  0.00  0.00    +0.000 A 
ATOM     25  C   LIG    1        1.928   0.874  -1.171  0.00  0.00    -0.080 A 
ATOM     26  C   LIG    1        2.814   1.125  -2.363  0.00  0.00    +0.090 C 
ENDBRANCH  19  20
ENDBRANCH  16  19
ENDBRANCH  14  15
ENDBRANCH   5  14
TORSDOF 6
