REMARK  Name = ZINCrH000004mKzV.0
REMARK                            x       y       z     vdW  Elec       q    Type
REMARK                         _______ _______ _______ _____ _____    ______ ____
ROOT
ATOM      1  C   LIG    1        5.082   4.452  -4.976  0.00  0.00    +0.220 C 
ENDROOT
BRANCH   1   2
ATOM      2  N   LIG    1        4.677   4.195  -3.588  0.00  0.00    -0.520 NA
ATOM      3  C   LIG    1        4.351   5.449  -2.894  0.00  0.00    +0.190 C 
ATOM      4  C   LIG    1        4.011   5.147  -1.433  0.00  0.00    +0.190 C 
ATOM      5  N   LIG    1        2.881   4.209  -1.379  0.00  0.00    -0.540 NA
ATOM      6  C   LIG    1        3.207   2.955  -2.072  0.00  0.00    +0.190 C 
ATOM      7  C   LIG    1        3.547   3.257  -3.534  0.00  0.00    +0.190 C 
BRANCH   5   8
ATOM      8  C   LIG    1        2.475   3.953   0.010  0.00  0.00    +0.230 C 
BRANCH   8   9
ATOM      9  C   LIG    1        1.175   3.192   0.021  0.00  0.00    -0.070 A 
ATOM     10  C   LIG    1        1.183   1.810   0.011  0.00  0.00    +0.030 A 
ATOM     11  C   LIG    1       -0.010   1.111   0.021  0.00  0.00    +0.020 A 
ATOM     12  C   LIG    1       -1.212   1.796   0.035  0.00  0.00    -0.030 A 
ATOM     13  C   LIG    1       -1.220   3.179   0.050  0.00  0.00    +0.020 A 
ATOM     14 CL   LIG    1       -2.711   0.919   0.040  0.00  0.00    -0.070 Cl
ATOM     15  C   LIG    1       -0.026   3.876   0.040  0.00  0.00    +0.040 A 
ENDBRANCH   8   9
ENDBRANCH   5   8
ENDBRANCH   1   2
BRANCH   1  18
ATOM     16  N   LIG    1        6.079   3.185  -6.852  0.00  0.00    -0.660 N 
ATOM     17  H   LIG    1        5.962   3.972  -7.407  0.00  0.00    +0.420 HD
ATOM     18  C   LIG    1        5.641   3.188  -5.578  0.00  0.00    +0.510 C 
ATOM     19  O   LIG    1        5.695   2.173  -4.915  0.00  0.00    -0.500 OA
BRANCH  16  26
ATOM     20  C   LIG    1        6.700   1.816  -8.750  0.00  0.00    +0.100 A 
ATOM     21  C   LIG    1        7.320   0.688  -9.263  0.00  0.00    -0.040 A 
ATOM     22  C   LIG    1        7.939  -0.208  -8.411  0.00  0.00    +0.050 A 
ATOM     23  C   LIG    1        7.944   0.018  -7.047  0.00  0.00    -0.050 A 
ATOM     24  C   LIG    1        7.331   1.145  -6.528  0.00  0.00    +0.070 A 
ATOM     25 CL   LIG    1        8.723  -1.111  -5.983  0.00  0.00    -0.060 Cl
ATOM     26  C   LIG    1        6.704   2.045  -7.376  0.00  0.00    +0.140 A 
BRANCH  20  28
ATOM     27  C   LIG    1        6.127   2.399 -10.983  0.00  0.00    +0.250 C 
ATOM     28  O   LIG    1        6.091   2.698  -9.587  0.00  0.00    -0.320 OA
ENDBRANCH  20  28
ENDBRANCH  16  26
ENDBRANCH   1  18
TORSDOF 6
