REMARK  Name = ZINCqH0000031tnB.0
REMARK                            x       y       z     vdW  Elec       q    Type
REMARK                         _______ _______ _______ _____ _____    ______ ____
ROOT
ATOM      1  C   LIG    1       -0.592   1.964   2.577  0.00  0.00    +0.010 A 
ATOM      2  N   LIG    1       -1.799   2.317   2.974  0.00  0.00    -0.250 NA
ATOM      3  N   LIG    1       -2.571   2.467   1.958  0.00  0.00    -0.210 N 
ATOM      4  C   LIG    1       -1.888   2.213   0.809  0.00  0.00    -0.010 A 
ATOM      5  C   LIG    1       -2.035   2.163  -0.695  0.00  0.00    +0.130 C 
ATOM      6  C   LIG    1       -0.590   2.185  -1.240  0.00  0.00    +0.050 C 
ATOM      7  C   LIG    1        0.208   1.590  -0.058  0.00  0.00    +0.110 C 
ATOM      8  C   LIG    1       -0.623   1.890   1.166  0.00  0.00    -0.150 A 
ENDROOT
BRANCH   3   9
ATOM      9  C   LIG    1       -3.921   2.839   2.023  0.00  0.00    +0.110 A 
ATOM     10  C   LIG    1       -4.467   3.650   1.038  0.00  0.00    +0.060 A 
ATOM     11  C   LIG    1       -5.798   4.012   1.102  0.00  0.00    +0.020 A 
ATOM     12  C   LIG    1       -6.586   3.574   2.153  0.00  0.00    +0.110 A 
ATOM     13  C   LIG    1       -6.042   2.769   3.140  0.00  0.00    +0.010 A 
ATOM     14  F   LIG    1       -7.887   3.933   2.217  0.00  0.00    -0.130 F 
ATOM     15  C   LIG    1       -4.713   2.401   3.077  0.00  0.00    +0.080 A 
ENDBRANCH   3   9
BRANCH   1  18
ATOM     16  N   LIG    1        0.459   1.806   4.781  0.00  0.00    -0.660 N 
ATOM     17  H   LIG    1       -0.366   2.135   5.171  0.00  0.00    +0.420 HD
ATOM     18  C   LIG    1        0.574   1.696   3.442  0.00  0.00    +0.610 C 
ATOM     19  O   LIG    1        1.638   1.377   2.948  0.00  0.00    -0.500 OA
BRANCH  16  24
ATOM     20  C   LIG    1        3.435   0.053   6.066  0.00  0.00    +0.030 A 
ATOM     21  C   LIG    1        3.648   0.747   7.258  0.00  0.00    +0.020 A 
ATOM     22  C   LIG    1        2.805   1.780   7.615  0.00  0.00    +0.030 A 
ATOM     23  C   LIG    1        1.753   2.135   6.793  0.00  0.00    +0.000 A 
ATOM     24  C   LIG    1        1.529   1.447   5.607  0.00  0.00    +0.150 A 
ATOM     25  C   LIG    1        2.369   0.407   5.239  0.00  0.00    +0.040 A 
BRANCH  20  27
ATOM     26  C   LIG    1        5.023  -1.898   5.387  0.00  0.00    +0.060 C 
ATOM     27  C   LIG    1        4.308  -1.019   5.693  0.00  0.00    -0.150 C 
ENDBRANCH  20  27
ENDBRANCH  16  24
ENDBRANCH   1  18
TORSDOF 4
