REMARK  Name = ZINCqH0000051tNb.0
REMARK                            x       y       z     vdW  Elec       q    Type
REMARK                         _______ _______ _______ _____ _____    ______ ____
ROOT
ATOM      1  C   LIG    1        1.175   2.089  -0.003  0.00  0.00    +0.190 A 
ATOM      2  C   LIG    1        2.372   1.403   0.155  0.00  0.00    -0.050 A 
ATOM      3  C   LIG    1        2.384   0.021   0.142  0.00  0.00    +0.070 A 
ATOM      4  C   LIG    1        1.206  -0.681  -0.028  0.00  0.00    -0.090 A 
ATOM      5  C   LIG    1        0.007  -0.000  -0.188  0.00  0.00    +0.150 A 
ATOM      6  C   LIG    1       -0.009   1.385  -0.175  0.00  0.00    -0.010 A 
ENDROOT
BRANCH   1   9
ATOM      7  O   LIG    1       -0.800   3.531   1.048  0.00  0.00    -0.490 OA
ATOM      8  C   LIG    1        0.102   4.148   0.516  0.00  0.00    +0.560 C 
ATOM      9  N   LIG    1        1.163   3.488   0.009  0.00  0.00    -0.670 N 
ATOM     10  H   LIG    1        1.917   3.982  -0.347  0.00  0.00    +0.410 HD
BRANCH   8  11
ATOM     11  C   LIG    1        0.037   5.620   0.424  0.00  0.00    -0.170 A 
ATOM     12  C   LIG    1        1.074   6.332  -0.182  0.00  0.00    +0.110 A 
ATOM     13  C   LIG    1        1.004   7.705  -0.270  0.00  0.00    +0.020 A 
ATOM     14  C   LIG    1       -0.086   8.383   0.252  0.00  0.00    +0.020 A 
ATOM     15  C   LIG    1       -1.116   7.686   0.859  0.00  0.00    +0.000 A 
ATOM     16 CL   LIG    1       -0.161  10.114   0.141  0.00  0.00    -0.040 Cl
ATOM     17  C   LIG    1       -1.063   6.308   0.949  0.00  0.00    +0.180 A 
ATOM     18  F   LIG    1       -2.068   5.628   1.542  0.00  0.00    -0.100 F 
ENDBRANCH   8  11
ENDBRANCH   1   9
BRANCH   5  19
ATOM     19  O   LIG    1       -1.151  -0.692  -0.355  0.00  0.00    -0.290 OA
BRANCH  19  20
ATOM     20  C   LIG    1       -1.059  -2.118  -0.357  0.00  0.00    +0.230 C 
BRANCH  20  21
ATOM     21  C   LIG    1       -2.432  -2.709  -0.554  0.00  0.00    +0.530 C 
ATOM     22  N   LIG    1       -2.590  -4.047  -0.590  0.00  0.00    -0.620 N 
ATOM     23  C   LIG    1       -1.516  -5.041  -0.458  0.00  0.00    +0.230 C 
ATOM     24  C   LIG    1       -2.163  -6.436  -0.585  0.00  0.00    +0.040 C 
ATOM     25  C   LIG    1       -3.478  -6.138  -1.354  0.00  0.00    +0.040 C 
ATOM     26  C   LIG    1       -3.870  -4.756  -0.774  0.00  0.00    +0.260 C 
ATOM     27  O   LIG    1       -3.393  -1.981  -0.679  0.00  0.00    -0.510 OA
ENDBRANCH  20  21
ENDBRANCH  19  20
ENDBRANCH   5  19
TORSDOF 5
