REMARK  Name = ZINCpk00000y6yil.0
REMARK                            x       y       z     vdW  Elec       q    Type
REMARK                         _______ _______ _______ _____ _____    ______ ____
ROOT
ATOM      1  C   LIG    1       -3.498   2.646   3.340  0.00  0.00    +0.610 C 
ATOM      2  N   LIG    1       -3.520   3.037   4.630  0.00  0.00    -0.700 N 
ATOM      3  H   LIG    1       -2.698   3.060   5.144  0.00  0.00    +0.410 HD
ATOM      4  O   LIG    1       -4.529   2.617   2.696  0.00  0.00    -0.530 OA
ENDROOT
BRANCH   1   8
ATOM      5  C   LIG    1       -0.013   1.086   0.008  0.00  0.00    +0.160 C 
ATOM      6  C   LIG    1       -0.718   1.572   1.248  0.00  0.00    +0.020 A 
ATOM      7  C   LIG    1       -2.042   1.827   1.372  0.00  0.00    +0.000 A 
ATOM      8  C   LIG    1       -2.222   2.252   2.710  0.00  0.00    -0.010 A 
ATOM      9  N   LIG    1       -1.036   2.236   3.286  0.00  0.00    -0.260 NA
ATOM     10  N   LIG    1       -0.144   1.842   2.449  0.00  0.00    -0.230 N 
BRANCH  10  11
ATOM     11  C   LIG    1        1.221   1.710   2.735  0.00  0.00    +0.120 A 
ATOM     12  C   LIG    1        1.957   0.684   2.155  0.00  0.00    +0.020 A 
ATOM     13  C   LIG    1        3.304   0.560   2.434  0.00  0.00    +0.040 A 
ATOM     14  C   LIG    1        3.917   1.448   3.299  0.00  0.00    +0.020 A 
ATOM     15  C   LIG    1        3.186   2.467   3.881  0.00  0.00    +0.040 A 
ATOM     16  C   LIG    1        1.840   2.600   3.602  0.00  0.00    +0.040 A 
ENDBRANCH  10  11
ENDBRANCH   1   8
BRANCH   2  17
ATOM     17  C   LIG    1       -4.786   3.428   5.255  0.00  0.00    +0.250 C 
ATOM     18  C   LIG    1       -5.355   2.365   6.210  0.00  0.00    +0.030 C 
ATOM     19  C   LIG    1       -5.749   3.524   7.141  0.00  0.00    +0.180 C 
ATOM     20  C   LIG    1       -4.611   4.329   6.489  0.00  0.00    +0.270 C 
BRANCH  20  21
ATOM     21  N   LIG    1       -4.951   5.732   6.244  0.00  0.00    -0.360 N 
ATOM     22  C   LIG    1       -6.185   6.274   6.311  0.00  0.00    +0.220 A 
ATOM     23  C   LIG    1       -6.075   7.590   6.019  0.00  0.00    -0.120 A 
ATOM     24  C   LIG    1       -4.727   7.863   5.764  0.00  0.00    +0.230 A 
ATOM     25  N   LIG    1       -4.051   6.751   5.904  0.00  0.00    -0.290 NA
ENDBRANCH  20  21
BRANCH  19  26
ATOM     26  O   LIG    1       -5.534   3.244   8.525  0.00  0.00    -0.550 OA
ATOM     27  H   LIG    1       -6.225   2.700   8.928  0.00  0.00    +0.390 HD
ENDBRANCH  19  26
ENDBRANCH   2  17
TORSDOF 5
