REMARK  Name = ZINCrD000000gUCX.0
REMARK                            x       y       z     vdW  Elec       q    Type
REMARK                         _______ _______ _______ _____ _____    ______ ____
ROOT
ATOM      1  N   LIG    1        3.362   4.674  -0.006  0.00  0.00    -0.730 N 
ATOM      2  H   LIG    1        2.700   5.383   0.004  0.00  0.00    +0.400 HD
ATOM      3  C   LIG    1        2.968   3.385  -0.009  0.00  0.00    +0.720 C 
ATOM      4  N   LIG    1        1.655   3.081   0.002  0.00  0.00    -0.640 N 
ATOM      5  H   LIG    1        0.994   3.790   0.013  0.00  0.00    +0.420 HD
ATOM      6  O   LIG    1        3.798   2.496  -0.022  0.00  0.00    -0.570 OA
ENDROOT
BRANCH   4   7
ATOM      7  C   LIG    1        1.245   1.736  -0.001  0.00  0.00    +0.220 A 
ATOM      8  C   LIG    1        2.049   0.641  -0.014  0.00  0.00    +0.160 A 
ATOM      9  N   LIG    1        1.214  -0.436  -0.012  0.00  0.00    -0.290 N 
ATOM     10  N   LIG    1        0.002  -0.004   0.002  0.00  0.00    -0.060 NA
ATOM     11  N   LIG    1       -0.015   1.282   0.009  0.00  0.00    -0.290 NA
BRANCH   9  12
ATOM     12  C   LIG    1        1.626  -1.842  -0.024  0.00  0.00    +0.390 C 
BRANCH  12  13
ATOM     13  C   LIG    1        0.996  -2.559   1.142  0.00  0.00    -0.120 A 
ATOM     14  C   LIG    1        1.658  -2.622   2.354  0.00  0.00    +0.020 A 
ATOM     15  C   LIG    1        1.079  -3.276   3.425  0.00  0.00    +0.010 A 
ATOM     16  C   LIG    1       -0.158  -3.876   3.281  0.00  0.00    +0.030 A 
ATOM     17  C   LIG    1       -0.818  -3.818   2.068  0.00  0.00    +0.010 A 
ATOM     18  C   LIG    1       -0.240  -3.160   0.998  0.00  0.00    +0.050 A 
ENDBRANCH  12  13
ENDBRANCH   9  12
ENDBRANCH   4   7
BRANCH   1  19
ATOM     19  C   LIG    1        4.789   5.004  -0.018  0.00  0.00    +0.350 C 
BRANCH  19  24
ATOM     20  C   LIG    1        5.180   8.582  -1.151  0.00  0.00    -0.120 A 
ATOM     21  C   LIG    1        5.263   9.203   0.081  0.00  0.00    +0.270 A 
ATOM     22  N   LIG    1        5.195   8.501   1.196  0.00  0.00    -0.480 NA
ATOM     23  C   LIG    1        5.048   7.191   1.182  0.00  0.00    +0.270 A 
ATOM     24  C   LIG    1        4.958   6.502  -0.013  0.00  0.00    -0.160 A 
ATOM     25  C   LIG    1        5.030   7.205  -1.205  0.00  0.00    +0.090 A 
BRANCH  20  27
ATOM     26  C   LIG    1        5.428  10.872  -2.071  0.00  0.00    +0.030 C 
ATOM     27  C   LIG    1        5.258   9.392  -2.420  0.00  0.00    -0.030 C 
ATOM     28  C   LIG    1        3.971   9.203  -3.225  0.00  0.00    +0.040 C 
ATOM     29  C   LIG    1        6.453   8.923  -3.251  0.00  0.00    +0.040 C 
ENDBRANCH  20  27
ENDBRANCH  19  24
ENDBRANCH   1  19
TORSDOF 6
