REMARK  Name = ZINCvU00000009F9.0
REMARK                            x       y       z     vdW  Elec       q    Type
REMARK                         _______ _______ _______ _____ _____    ______ ____
ROOT
ATOM      1  C   LIG    1       -3.329  -2.410  -2.474  0.00  0.00    +0.590 C 
ATOM      2  N   LIG    1       -2.657  -2.054  -3.586  0.00  0.00    -0.660 N 
ATOM      3  H   LIG    1       -1.867  -1.496  -3.518  0.00  0.00    +0.420 HD
ATOM      4  O   LIG    1       -4.359  -3.050  -2.564  0.00  0.00    -0.480 OA
ENDROOT
BRANCH   1   9
ATOM      5  C   LIG    1       -1.189  -0.838   2.576  0.00  0.00    +0.150 C 
ATOM      6  C   LIG    1       -1.821  -1.289   1.285  0.00  0.00    +0.140 A 
ATOM      7  C   LIG    1       -2.977  -1.994   1.316  0.00  0.00    -0.090 A 
ATOM      8  C   LIG    1       -3.537  -2.405   0.079  0.00  0.00    +0.390 A 
ATOM      9  C   LIG    1       -2.814  -2.023  -1.145  0.00  0.00    -0.040 A 
ATOM     10  N   LIG    1       -1.700  -1.330  -1.033  0.00  0.00    -0.160 NA
ATOM     11  O   LIG    1       -4.574  -3.047   0.031  0.00  0.00    -0.450 OA
ATOM     12  N   LIG    1       -1.228  -0.979   0.106  0.00  0.00    -0.270 N 
BRANCH  12  13
ATOM     13  C   LIG    1       -0.039  -0.243   0.134  0.00  0.00    +0.110 A 
ATOM     14  C   LIG    1       -0.079   1.143   0.198  0.00  0.00    +0.060 A 
ATOM     15  C   LIG    1        1.097   1.867   0.225  0.00  0.00    +0.050 A 
ATOM     16  C   LIG    1        2.315   1.212   0.188  0.00  0.00    +0.070 A 
ATOM     17  C   LIG    1        2.360  -0.169   0.123  0.00  0.00    +0.050 A 
ATOM     18  C   LIG    1        1.187  -0.899   0.096  0.00  0.00    -0.020 A 
ATOM     19 CL   LIG    1        1.244  -2.632   0.014  0.00  0.00    -0.040 Cl
ENDBRANCH  12  13
ENDBRANCH   1   9
BRANCH   2  20
ATOM     20  C   LIG    1       -3.100  -2.490  -4.841  0.00  0.00    +0.140 A 
ATOM     21  C   LIG    1       -4.457  -2.634  -5.088  0.00  0.00    +0.040 A 
ATOM     22  C   LIG    1       -4.892  -3.064  -6.327  0.00  0.00    +0.040 A 
ATOM     23  C   LIG    1       -3.978  -3.352  -7.323  0.00  0.00    +0.010 A 
ATOM     24  C   LIG    1       -2.623  -3.211  -7.085  0.00  0.00    +0.040 A 
ATOM     25  C   LIG    1       -2.179  -2.774  -5.848  0.00  0.00    +0.050 A 
BRANCH  25  26
ATOM     26  O   LIG    1       -0.847  -2.629  -5.614  0.00  0.00    -0.260 OA
BRANCH  26  27
ATOM     27  C   LIG    1       -0.179  -3.676  -5.062  0.00  0.00    +0.120 A 
ATOM     28  C   LIG    1       -0.873  -4.805  -4.652  0.00  0.00    -0.060 A 
ATOM     29  C   LIG    1       -0.190  -5.870  -4.096  0.00  0.00    +0.040 A 
ATOM     30  C   LIG    1        1.182  -5.806  -3.938  0.00  0.00    -0.030 A 
ATOM     31  C   LIG    1        1.875  -4.679  -4.341  0.00  0.00    +0.050 A 
ATOM     32  C   LIG    1        1.198  -3.614  -4.902  0.00  0.00    -0.010 A 
ENDBRANCH  26  27
ENDBRANCH  25  26
ENDBRANCH   2  20
TORSDOF 5
