REMARK  Name = ZINCrH000004tJZV.0
REMARK                            x       y       z     vdW  Elec       q    Type
REMARK                         _______ _______ _______ _____ _____    ______ ____
ROOT
ATOM      1  C   LIG    1       -1.334   2.114   0.021  0.00  0.00    +0.220 C 
ATOM      2  C   LIG    1       -1.673   2.237   1.510  0.00  0.00    +0.020 C 
ATOM      3  C   LIG    1       -3.002   2.980   1.663  0.00  0.00    +0.210 C 
ATOM      4  O   LIG    1       -4.023   2.280   0.948  0.00  0.00    -0.380 OA
ATOM      5  C   LIG    1       -3.783   2.176  -0.457  0.00  0.00    +0.210 C 
ATOM      6  C   LIG    1       -2.484   1.401  -0.695  0.00  0.00    +0.020 C 
ENDROOT
BRANCH   1   7
ATOM      7  C   LIG    1       -0.066   1.317  -0.143  0.00  0.00    -0.040 A 
ATOM      8  C   LIG    1        0.838   1.653  -1.133  0.00  0.00    +0.000 A 
ATOM      9  C   LIG    1        2.006   0.928  -1.283  0.00  0.00    +0.060 A 
ATOM     10  C   LIG    1        2.271  -0.136  -0.443  0.00  0.00    -0.060 A 
ATOM     11  C   LIG    1        1.365  -0.476   0.552  0.00  0.00    +0.110 A 
ATOM     12  C   LIG    1        0.195   0.254   0.700  0.00  0.00    +0.030 A 
BRANCH  11  13
ATOM     13  O   LIG    1        1.625  -1.522   1.380  0.00  0.00    -0.310 OA
BRANCH  13  14
ATOM     14  C   LIG    1        2.849  -2.228   1.169  0.00  0.00    +0.600 C 
ATOM     15  F   LIG    1        2.864  -2.760  -0.124  0.00  0.00    -0.160 F 
ATOM     16  F   LIG    1        2.955  -3.266   2.102  0.00  0.00    -0.130 F 
ATOM     17  F   LIG    1        3.927  -1.350   1.325  0.00  0.00    -0.160 F 
ENDBRANCH  13  14
ENDBRANCH  11  13
ENDBRANCH   1   7
BRANCH   1  20
ATOM     18  O   LIG    1        0.531   3.890   0.824  0.00  0.00    -0.520 OA
ATOM     19  C   LIG    1       -0.219   4.280  -0.046  0.00  0.00    +0.520 C 
ATOM     20  N   LIG    1       -1.152   3.449  -0.553  0.00  0.00    -0.730 N 
ATOM     21  H   LIG    1       -1.702   3.736  -1.299  0.00  0.00    +0.400 HD
BRANCH  19  22
ATOM     22  C   LIG    1       -0.109   5.692  -0.559  0.00  0.00    +0.060 C 
BRANCH  22  23
ATOM     23  C   LIG    1        1.020   6.416   0.177  0.00  0.00    +0.150 C 
BRANCH  23  24
ATOM     24  C   LIG    1        1.130   7.829  -0.336  0.00  0.00    +0.060 A 
ATOM     25  C   LIG    1        1.073   8.896   0.466  0.00  0.00    -0.070 A 
ATOM     26  S   LIG    1        1.242  10.336  -0.535  0.00  0.00    +0.120 S 
ATOM     27  C   LIG    1        1.373   9.360  -1.932  0.00  0.00    +0.220 A 
ATOM     28  N   LIG    1        1.297   8.112  -1.612  0.00  0.00    -0.470 NA
ENDBRANCH  23  24
ENDBRANCH  22  23
ENDBRANCH  19  22
ENDBRANCH   1  20
TORSDOF 7
