REMARK  Name = ZINCkj000005eYJS.0
REMARK                            x       y       z     vdW  Elec       q    Type
REMARK                         _______ _______ _______ _____ _____    ______ ____
ROOT
ATOM      1  S   LIG    1       -1.825  -1.079  -1.697  0.00  0.00    +2.600 S 
ATOM      2  O   LIG    1       -0.942  -1.985  -2.344  0.00  0.00    -0.920 OA
ATOM      3  O   LIG    1       -2.212   0.137  -2.321  0.00  0.00    -0.940 OA
ENDROOT
BRANCH   1   4
ATOM      4  N   LIG    1       -3.240  -1.928  -1.544  0.00  0.00    -1.140 NA
ATOM      5  H   LIG    1       -3.292  -2.843  -1.860  0.00  0.00    +0.410 HD
BRANCH   4   6
ATOM      6  C   LIG    1       -4.410  -1.295  -0.932  0.00  0.00    +0.320 C 
BRANCH   6   8
ATOM      7  C   LIG    1       -6.881  -1.463  -0.602  0.00  0.00    +0.110 C 
ATOM      8  C   LIG    1       -5.658  -2.124  -1.241  0.00  0.00    +0.060 C 
ATOM      9  C   LIG    1       -5.855  -2.203  -2.756  0.00  0.00    +0.100 C 
BRANCH   8  10
ATOM     10  N   LIG    1       -5.493  -3.479  -0.698  0.00  0.00    -0.640 N 
ATOM     11  H   LIG    1       -4.687  -3.914  -1.119  0.00  0.00    +0.430 HD
ATOM     12  H   LIG    1       -6.316  -4.026  -0.902  0.00  0.00    +0.440 HD
ATOM     13  H   LIG    1       -5.364  -3.427   0.302  0.00  0.00    +0.440 HD
ENDBRANCH   8  10
ENDBRANCH   6   8
ENDBRANCH   4   6
ENDBRANCH   1   4
BRANCH   1  14
ATOM     14  C   LIG    1       -1.291  -0.778   0.010  0.00  0.00    -0.270 C 
BRANCH  14  15
ATOM     15  C   LIG    1        0.002  -0.004   0.002  0.00  0.00    -0.090 A 
ATOM     16  C   LIG    1       -0.016   1.357   0.009  0.00  0.00    +0.070 A 
ATOM     17  C   LIG    1        1.167   2.092   0.002  0.00  0.00    +0.020 A 
ATOM     18  C   LIG    1        2.377   1.468  -0.013  0.00  0.00    +0.070 A 
ATOM     19  C   LIG    1        2.434   0.065  -0.021  0.00  0.00    -0.110 A 
ATOM     20  C   LIG    1        3.665  -0.618  -0.036  0.00  0.00    +0.100 A 
ATOM     21  C   LIG    1        3.643  -1.984  -0.043  0.00  0.00    -0.030 A 
ATOM     22  C   LIG    1        2.426  -2.660  -0.035  0.00  0.00    +0.310 A 
ATOM     23  N   LIG    1        1.281  -2.021  -0.021  0.00  0.00    -0.480 NA
ATOM     24  C   LIG    1        1.232  -0.685  -0.013  0.00  0.00    +0.140 A 
ENDBRANCH  14  15
ENDBRANCH   1  14
TORSDOF 6
