REMARK  Name = ZINCpk00000eaBBx.1
REMARK                            x       y       z     vdW  Elec       q    Type
REMARK                         _______ _______ _______ _____ _____    ______ ____
ROOT
ATOM      1  C   LIG    1        4.930   4.461  -3.411  0.00  0.00    +0.140 A 
ATOM      2  C   LIG    1        4.132   5.509  -3.850  0.00  0.00    +0.030 A 
ATOM      3  C   LIG    1        2.937   5.779  -3.212  0.00  0.00    +0.020 A 
ATOM      4  C   LIG    1        2.535   5.007  -2.138  0.00  0.00    +0.030 A 
ATOM      5  C   LIG    1        3.328   3.962  -1.698  0.00  0.00    -0.110 A 
ATOM      6  C   LIG    1        4.526   3.690  -2.329  0.00  0.00    +0.010 A 
ENDROOT
BRANCH   1   8
ATOM      7  C   LIG    1        6.250   4.355  -5.388  0.00  0.00    +0.520 C 
ATOM      8  N   LIG    1        6.141   4.185  -4.055  0.00  0.00    -0.670 N 
ATOM      9  H   LIG    1        6.902   3.871  -3.542  0.00  0.00    +0.410 HD
ATOM     10  O   LIG    1        5.325   4.824  -6.017  0.00  0.00    -0.500 OA
BRANCH   7  12
ATOM     11  C   LIG    1        8.616   4.982  -5.782  0.00  0.00    +0.030 C 
ATOM     12  C   LIG    1        7.521   3.961  -6.096  0.00  0.00    +0.170 C 
BRANCH  12  13
ATOM     13  N   LIG    1        7.283   3.928  -7.545  0.00  0.00    -0.530 NA
ATOM     14  C   LIG    1        8.360   3.210  -8.239  0.00  0.00    +0.190 C 
ATOM     15  C   LIG    1        7.123   5.285  -8.084  0.00  0.00    +0.200 C 
ENDBRANCH  12  13
ENDBRANCH   7  12
ENDBRANCH   1   8
BRANCH   5  16
ATOM     16  C   LIG    1        2.886   3.124  -0.527  0.00  0.00    +0.420 C 
BRANCH  16  17
ATOM     17  N   LIG    1        2.088   1.993  -1.008  0.00  0.00    -0.430 N 
ATOM     18  N   LIG    1        0.698   1.978  -1.188  0.00  0.00    -0.280 NA
ATOM     19  C   LIG    1        0.362   0.789  -1.631  0.00  0.00    +0.290 A 
ATOM     20  C   LIG    1       -0.892   0.225  -1.979  0.00  0.00    +0.040 A 
ATOM     21  C   LIG    1       -0.945  -1.056  -2.419  0.00  0.00    +0.110 A 
ATOM     22  C   LIG    1        0.241  -1.811  -2.525  0.00  0.00    -0.020 A 
ATOM     23  C   LIG    1        1.428  -1.272  -2.194  0.00  0.00    +0.300 A 
ATOM     24  N   LIG    1        1.509   0.025  -1.746  0.00  0.00    -0.480 N 
ATOM     25  C   LIG    1        2.558   0.779  -1.359  0.00  0.00    +0.640 A 
ATOM     26  O   LIG    1        3.724   0.425  -1.332  0.00  0.00    -0.540 OA
ENDBRANCH  16  17
ENDBRANCH   5  16
TORSDOF 5
