REMARK  Name = ZINCpk000000pHjn.0
REMARK                            x       y       z     vdW  Elec       q    Type
REMARK                         _______ _______ _______ _____ _____    ______ ____
ROOT
ATOM      1  C   LIG    1       -0.744   1.364  -1.380  0.00  0.00    -0.010 C 
ATOM      2  C   LIG    1       -1.924   2.269  -0.956  0.00  0.00    +0.270 C 
ATOM      3  N   LIG    1       -2.153   1.942   0.470  0.00  0.00    -0.610 N 
ATOM      4  C   LIG    1       -0.791   1.784   1.033  0.00  0.00    +0.270 C 
ATOM      5  C   LIG    1       -3.332   1.818   1.112  0.00  0.00    +0.630 C 
ATOM      6  O   LIG    1       -3.354   1.544   2.296  0.00  0.00    -0.530 OA
ATOM      7  C   LIG    1        0.001   1.045  -0.067  0.00  0.00    +0.130 C 
ENDROOT
BRANCH   5   8
ATOM      8  C   LIG    1       -4.597   2.015   0.375  0.00  0.00    -0.010 A 
ATOM      9  N   LIG    1       -4.727   2.315  -0.906  0.00  0.00    -0.260 NA
ATOM     10  N   LIG    1       -5.974   2.412  -1.214  0.00  0.00    -0.270 N 
ATOM     11  C   LIG    1       -6.736   2.176  -0.134  0.00  0.00    +0.010 A 
ATOM     12  C   LIG    1       -8.238   2.175  -0.017  0.00  0.00    +0.110 C 
ATOM     13  C   LIG    1       -8.620   1.453   1.282  0.00  0.00    +0.030 C 
ATOM     14  C   LIG    1       -7.810   2.026   2.447  0.00  0.00    +0.010 C 
ATOM     15  C   LIG    1       -6.340   1.609   2.303  0.00  0.00    +0.120 C 
ATOM     16  C   LIG    1       -6.486   2.734  -2.549  0.00  0.00    +0.370 C 
ATOM     17  C   LIG    1       -5.897   1.915   0.899  0.00  0.00    -0.140 A 
ENDBRANCH   5   8
BRANCH   7  18
ATOM     18  N   LIG    1        1.380   1.546  -0.127  0.00  0.00    -0.520 NA
ATOM     19  C   LIG    1        2.258   0.592  -0.820  0.00  0.00    +0.150 C 
ATOM     20  C   LIG    1        3.669   1.179  -0.913  0.00  0.00    +0.220 C 
ATOM     21  O   LIG    1        4.138   1.489   0.402  0.00  0.00    -0.380 OA
ATOM     22  C   LIG    1        3.307   2.417   1.105  0.00  0.00    +0.220 C 
ATOM     23  C   LIG    1        1.892   1.842   1.219  0.00  0.00    +0.150 C 
ENDBRANCH   7  18
BRANCH   1  25
ATOM     24  C   LIG    1       -0.553   2.348  -3.669  0.00  0.00    -0.010 C 
ATOM     25  C   LIG    1        0.179   2.109  -2.347  0.00  0.00    +0.040 C 
ENDBRANCH   1  25
TORSDOF 3
