REMARK  Name = ZINCkj000005j7nt.0
REMARK                            x       y       z     vdW  Elec       q    Type
REMARK                         _______ _______ _______ _____ _____    ______ ____
ROOT
ATOM      1  C   LIG    1        0.002  -0.004   0.002  0.00  0.00    -0.020 C 
ATOM      2  C   LIG    1        0.856  -0.505   1.169  0.00  0.00    +0.010 C 
ATOM      3  C   LIG    1        2.292  -0.002   1.006  0.00  0.00    +0.040 C 
ATOM      4  C   LIG    1        2.297   1.530   1.025  0.00  0.00    +0.300 C 
ATOM      5  N   LIG    1        1.366   2.019  -0.000  0.00  0.00    -1.000 NA
ATOM      6  C   LIG    1       -0.019   1.528   0.010  0.00  0.00    +0.310 C 
ENDROOT
BRANCH   5   7
ATOM      7  S   LIG    1        1.867   3.105  -1.146  0.00  0.00    +2.690 S 
ATOM      8  O   LIG    1        0.987   2.956  -2.252  0.00  0.00    -0.950 OA
ATOM      9  O   LIG    1        3.276   2.958  -1.249  0.00  0.00    -0.940 OA
BRANCH   7  10
ATOM     10  C   LIG    1        1.581   4.718  -0.497  0.00  0.00    -0.690 A 
ATOM     11  C   LIG    1        2.567   5.351   0.239  0.00  0.00    +0.160 A 
ATOM     12  C   LIG    1        2.351   6.617   0.752  0.00  0.00    +0.020 A 
ATOM     13  C   LIG    1        1.149   7.258   0.534  0.00  0.00    +0.140 A 
ATOM     14  C   LIG    1        0.149   6.625  -0.207  0.00  0.00    -0.040 A 
ATOM     15  C   LIG    1        0.376   5.349  -0.728  0.00  0.00    +0.170 A 
BRANCH  14  16
ATOM     16  C   LIG    1       -1.101   7.284  -0.439  0.00  0.00    +0.240 C 
ATOM     17  N   LIG    1       -2.093   7.807  -0.622  0.00  0.00    -0.390 NA
ENDBRANCH  14  16
ENDBRANCH   7  10
ENDBRANCH   5   7
BRANCH   1  19
ATOM     18  C   LIG    1       -2.280  -0.030  -1.016  0.00  0.00    +0.100 C 
ATOM     19  C   LIG    1       -1.425  -0.535   0.149  0.00  0.00    +0.180 C 
BRANCH  19  20
ATOM     20  N   LIG    1       -1.405  -2.004   0.141  0.00  0.00    -0.640 N 
ATOM     21  H   LIG    1       -1.012  -2.330  -0.730  0.00  0.00    +0.430 HD
ATOM     22  H   LIG    1       -2.346  -2.354   0.238  0.00  0.00    +0.440 HD
ATOM     23  H   LIG    1       -0.841  -2.337   0.909  0.00  0.00    +0.430 HD
ENDBRANCH  19  20
ENDBRANCH   1  19
TORSDOF 5
