REMARK  Name = ZINCqH0000000lOg.0
REMARK                            x       y       z     vdW  Elec       q    Type
REMARK                         _______ _______ _______ _____ _____    ______ ____
ROOT
ATOM      1  C   LIG    1        1.846  -1.833  -3.212  0.00  0.00    +0.140 A 
ATOM      2  C   LIG    1        1.800  -0.447  -3.138  0.00  0.00    +0.040 A 
ATOM      3  C   LIG    1        1.192   0.169  -2.061  0.00  0.00    -0.010 A 
ATOM      4  C   LIG    1        0.627  -0.595  -1.053  0.00  0.00    +0.090 A 
ATOM      5  C   LIG    1        0.676  -1.984  -1.121  0.00  0.00    +0.120 A 
ATOM      6  C   LIG    1        1.280  -2.602  -2.204  0.00  0.00    -0.050 A 
ENDROOT
BRANCH   1   8
ATOM      7  C   LIG    1        2.380  -1.901  -5.531  0.00  0.00    +0.640 C 
ATOM      8  N   LIG    1        2.462  -2.455  -4.305  0.00  0.00    -0.660 N 
ATOM      9  H   LIG    1        2.949  -3.285  -4.179  0.00  0.00    +0.420 HD
ATOM     10  O   LIG    1        1.843  -0.819  -5.674  0.00  0.00    -0.500 OA
BRANCH   7  13
ATOM     11  C   LIG    1        3.931  -3.853  -8.758  0.00  0.00    +0.230 C 
ATOM     12  C   LIG    1        3.371  -3.148  -7.593  0.00  0.00    -0.060 C 
ATOM     13  C   LIG    1        2.925  -2.587  -6.664  0.00  0.00    -0.250 C 
ENDBRANCH   7  13
ENDBRANCH   1   8
BRANCH   4  14
ATOM     14  O   LIG    1        0.029   0.013   0.008  0.00  0.00    -0.310 OA
ATOM     15  C   LIG    1        0.021   1.442   0.016  0.00  0.00    +0.240 C 
ENDBRANCH   4  14
BRANCH   5  16
ATOM     16  O   LIG    1        0.126  -2.735  -0.130  0.00  0.00    -0.300 OA
BRANCH  16  17
ATOM     17  C   LIG    1        0.213  -4.155  -0.266  0.00  0.00    +0.290 C 
BRANCH  17  18
ATOM     18  C   LIG    1       -0.445  -4.815   0.918  0.00  0.00    +0.160 A 
ATOM     19  N   LIG    1       -0.477  -6.124   0.983  0.00  0.00    -0.470 NA
ATOM     20  C   LIG    1       -1.045  -6.755   2.015  0.00  0.00    +0.130 A 
ATOM     21  C   LIG    1       -1.072  -8.158   2.082  0.00  0.00    +0.050 A 
ATOM     22  C   LIG    1       -1.663  -8.773   3.143  0.00  0.00    +0.030 A 
ATOM     23  C   LIG    1       -2.244  -8.033   4.170  0.00  0.00    +0.010 A 
ATOM     24  C   LIG    1       -2.237  -6.671   4.141  0.00  0.00    +0.030 A 
ATOM     25  C   LIG    1       -1.637  -6.004   3.061  0.00  0.00    -0.100 A 
ATOM     26  C   LIG    1       -1.608  -4.598   2.993  0.00  0.00    +0.080 A 
ATOM     27  C   LIG    1       -1.007  -4.018   1.913  0.00  0.00    +0.000 A 
ENDBRANCH  17  18
ENDBRANCH  16  17
ENDBRANCH   5  16
TORSDOF 6
