REMARK  Name = ZINCfA000000JmcE.0
REMARK                            x       y       z     vdW  Elec       q    Type
REMARK                         _______ _______ _______ _____ _____    ______ ____
ROOT
ATOM      1  N   LIG    1       -2.850   1.522   2.483  0.00  0.00    -0.640 NA
ATOM      2  H   LIG    1       -3.393   2.325   2.449  0.00  0.00    +0.430 HD
ENDROOT
BRANCH   1   3
ATOM      3  C   LIG    1       -2.724   0.826   3.663  0.00  0.00    +0.470 C 
ATOM      4  N   LIG    1       -3.281   1.153   4.774  0.00  0.00    -0.620 NA
ATOM      5  C   LIG    1       -3.072   0.338   5.950  0.00  0.00    +0.140 C 
ATOM      6  C   LIG    1       -2.158  -0.858   5.644  0.00  0.00    +0.170 C 
ATOM      7  C   LIG    1       -4.424  -0.179   6.448  0.00  0.00    +0.090 C 
ATOM      8  C   LIG    1       -2.431   1.193   7.045  0.00  0.00    +0.090 C 
ATOM      9  H   LIG    1       -3.841   1.944   4.823  0.00  0.00    +0.430 HD
ATOM     10  S   LIG    1       -1.779  -0.652   3.873  0.00  0.00    +0.070 S 
ENDBRANCH   1   3
BRANCH   1  17
ATOM     11  C   LIG    1       -4.340   1.027   0.049  0.00  0.00    +0.020 C 
ATOM     12  C   LIG    1       -2.904   1.556   0.038  0.00  0.00    -0.010 C 
ATOM     13  C   LIG    1       -2.188   1.063  -1.221  0.00  0.00    +0.040 C 
ATOM     14  C   LIG    1       -0.753   1.593  -1.232  0.00  0.00    +0.020 C 
ATOM     15  C   LIG    1       -0.013   1.086   0.008  0.00  0.00    +0.030 C 
ATOM     16  C   LIG    1       -0.729   1.579   1.267  0.00  0.00    +0.010 C 
ATOM     17  C   LIG    1       -2.164   1.050   1.278  0.00  0.00    +0.240 C 
ENDBRANCH   1  17
TORSDOF 2
