REMARK  Name = ZINCAx0000000iWo.0
REMARK                            x       y       z     vdW  Elec       q    Type
REMARK                         _______ _______ _______ _____ _____    ______ ____
ROOT
ATOM      1  C   LIG    1       -5.531   1.841   0.674  0.00  0.00    +0.270 C 
ATOM      2  C   LIG    1       -5.027   0.493   1.230  0.00  0.00    +0.270 C 
ATOM      3  N   LIG    1       -3.562   0.580   1.325  0.00  0.00    -0.610 N 
ATOM      4  C   LIG    1       -3.134   1.899   0.826  0.00  0.00    +0.250 C 
ATOM      5  C   LIG    1       -2.746  -0.389   1.788  0.00  0.00    +0.630 C 
ATOM      6  O   LIG    1       -3.213  -1.443   2.176  0.00  0.00    -0.500 OA
ATOM      7  C   LIG    1       -4.370   2.814   1.011  0.00  0.00    +0.170 C 
ENDROOT
BRANCH   5   8
ATOM      8  C   LIG    1       -1.297  -0.171   1.822  0.00  0.00    -0.120 A 
ATOM      9  C   LIG    1       -0.352  -1.054   2.261  0.00  0.00    +0.270 A 
ATOM     10  N   LIG    1        0.840  -0.473   2.120  0.00  0.00    -0.480 NA
ATOM     11  C   LIG    1        0.672   0.732   1.618  0.00  0.00    +0.270 A 
ATOM     12  O   LIG    1       -0.639   0.945   1.429  0.00  0.00    -0.180 OA
BRANCH  11  13
ATOM     13  C   LIG    1        1.751   1.693   1.313  0.00  0.00    -0.040 A 
ATOM     14  C   LIG    1        1.444   2.945   0.775  0.00  0.00    +0.050 A 
ATOM     15  C   LIG    1        2.457   3.839   0.497  0.00  0.00    +0.010 A 
ATOM     16  C   LIG    1        3.775   3.494   0.741  0.00  0.00    +0.040 A 
ATOM     17  C   LIG    1        4.086   2.254   1.269  0.00  0.00    +0.020 A 
ATOM     18  C   LIG    1        3.083   1.352   1.556  0.00  0.00    +0.080 A 
ENDBRANCH  11  13
ENDBRANCH   5   8
BRANCH   1  21
ATOM     19  O   LIG    1       -8.016   1.238  -0.181  0.00  0.00    -0.530 OA
ATOM     20  C   LIG    1       -7.961   1.901   0.838  0.00  0.00    +0.590 C 
ATOM     21  N   LIG    1       -6.764   2.254   1.347  0.00  0.00    -0.720 N 
ATOM     22  H   LIG    1       -6.721   2.783   2.160  0.00  0.00    +0.400 HD
BRANCH  20  23
ATOM     23  C   LIG    1       -9.203   2.316   1.515  0.00  0.00    -0.250 A 
ATOM     24  C   LIG    1      -10.431   1.957   0.998  0.00  0.00    +0.400 A 
ATOM     25  N   LIG    1      -11.569   2.335   1.614  0.00  0.00    -0.450 N 
ATOM     26  C   LIG    1      -11.535   3.068   2.742  0.00  0.00    +0.520 A 
ATOM     27  C   LIG    1      -10.306   3.458   3.305  0.00  0.00    -0.070 A 
ATOM     28  O   LIG    1      -12.579   3.397   3.280  0.00  0.00    -0.520 OA
ATOM     29  C   LIG    1       -9.145   3.082   2.704  0.00  0.00    +0.140 A 
BRANCH  25  30
ATOM     30  C   LIG    1      -12.804   1.959   1.072  0.00  0.00    +0.110 A 
ATOM     31  C   LIG    1      -13.396   0.763   1.456  0.00  0.00    +0.050 A 
ATOM     32  C   LIG    1      -14.617   0.397   0.924  0.00  0.00    +0.070 A 
ATOM     33  C   LIG    1      -15.245   1.216   0.002  0.00  0.00    -0.090 A 
ATOM     34  C   LIG    1      -14.654   2.405  -0.386  0.00  0.00    +0.070 A 
ATOM     35  I   LIG    1      -17.093   0.653  -0.808  0.00  0.00    -0.020 I 
ATOM     36  C   LIG    1      -13.436   2.779   0.147  0.00  0.00    +0.050 A 
ENDBRANCH  25  30
ENDBRANCH  20  23
ENDBRANCH   1  21
BRANCH   7  37
ATOM     37  O   LIG    1       -4.337   3.910   0.095  0.00  0.00    -0.540 OA
ATOM     38  H   LIG    1       -3.573   4.492   0.205  0.00  0.00    +0.390 HD
ENDBRANCH   7  37
TORSDOF 6
