REMARK  Name = ZINCtV000002HpYe.1
REMARK                            x       y       z     vdW  Elec       q    Type
REMARK                         _______ _______ _______ _____ _____    ______ ____
ROOT
ATOM      1  N   LIG    1        6.574   0.950   2.665  0.00  0.00    -0.680 N 
ATOM      2  H   LIG    1        6.211   1.419   1.898  0.00  0.00    +0.410 HD
ATOM      3  C   LIG    1        6.327  -0.365   2.830  0.00  0.00    +0.510 C 
ATOM      4  O   LIG    1        6.842  -0.968   3.749  0.00  0.00    -0.500 OA
ENDROOT
BRANCH   1   8
ATOM      5  C   LIG    1        8.902   3.001   5.452  0.00  0.00    -0.110 A 
ATOM      6  C   LIG    1        9.194   1.678   5.143  0.00  0.00    +0.050 A 
ATOM      7  C   LIG    1        8.423   1.000   4.220  0.00  0.00    +0.040 A 
ATOM      8  C   LIG    1        7.356   1.639   3.601  0.00  0.00    +0.140 A 
ATOM      9  C   LIG    1        7.068   2.962   3.906  0.00  0.00    +0.000 A 
ATOM     10  C   LIG    1        7.835   3.640   4.833  0.00  0.00    +0.030 A 
BRANCH   5  11
ATOM     11  S   LIG    1        9.886   3.867   6.630  0.00  0.00    -0.000 S 
BRANCH  11  17
ATOM     12  C   LIG    1        6.710   7.150   9.184  0.00  0.00    +0.090 C 
ATOM     13  C   LIG    1        7.591   6.877   7.992  0.00  0.00    -0.100 A 
ATOM     14  C   LIG    1        7.747   7.842   7.013  0.00  0.00    +0.040 A 
ATOM     15  C   LIG    1        8.555   7.596   5.917  0.00  0.00    +0.000 A 
ATOM     16  C   LIG    1        9.208   6.385   5.797  0.00  0.00    -0.040 A 
ATOM     17  C   LIG    1        9.054   5.414   6.779  0.00  0.00    -0.140 A 
ATOM     18  C   LIG    1       10.087   6.118   4.603  0.00  0.00    +0.090 C 
ATOM     19  C   LIG    1        8.238   5.662   7.876  0.00  0.00    +0.070 A 
ENDBRANCH  11  17
ENDBRANCH   5  11
ENDBRANCH   1   8
BRANCH   3  20
ATOM     20  C   LIG    1        5.412  -1.086   1.875  0.00  0.00    +0.220 C 
BRANCH  20  21
ATOM     21  N   LIG    1        5.307  -2.498   2.268  0.00  0.00    -0.670 NA
ATOM     22  H   LIG    1        6.218  -2.929   2.313  0.00  0.00    +0.360 HD
BRANCH  21  23
ATOM     23  C   LIG    1        4.420  -3.233   1.356  0.00  0.00    +0.190 C 
ATOM     24  C   LIG    1        2.969  -3.067   1.811  0.00  0.00    +0.050 C 
BRANCH  23  25
ATOM     25  C   LIG    1        4.787  -4.695   1.370  0.00  0.00    -0.080 A 
ATOM     26  C   LIG    1        5.125  -5.311   2.560  0.00  0.00    +0.050 A 
ATOM     27  C   LIG    1        5.462  -6.652   2.574  0.00  0.00    +0.020 A 
ATOM     28  C   LIG    1        5.460  -7.377   1.397  0.00  0.00    +0.020 A 
ATOM     29  C   LIG    1        5.115  -6.763   0.207  0.00  0.00    -0.040 A 
ATOM     30 CL   LIG    1        5.104  -7.675  -1.270  0.00  0.00    -0.070 Cl
ATOM     31  C   LIG    1        4.784  -5.419   0.193  0.00  0.00    +0.030 A 
ENDBRANCH  23  25
ENDBRANCH  21  23
ENDBRANCH  20  21
ENDBRANCH   3  20
TORSDOF 7
