REMARK  Name = ZINCvU0000000I0z.0
REMARK                            x       y       z     vdW  Elec       q    Type
REMARK                         _______ _______ _______ _____ _____    ______ ____
ROOT
ATOM      1  C   LIG    1        3.686   5.180  -0.002  0.00  0.00    -0.050 A 
ATOM      2  C   LIG    1        3.877   5.975  -1.088  0.00  0.00    +0.010 A 
ATOM      3  O   LIG    1        4.209   7.220  -0.688  0.00  0.00    -0.160 OA
ATOM      4  C   LIG    1        4.260   7.295   0.656  0.00  0.00    +0.080 A 
ATOM      5  C   LIG    1        4.552   8.325   1.542  0.00  0.00    +0.030 A 
ATOM      6  C   LIG    1        4.521   8.092   2.900  0.00  0.00    +0.070 A 
ATOM      7  C   LIG    1        4.202   6.836   3.398  0.00  0.00    +0.010 A 
ATOM      8  C   LIG    1        3.911   5.808   2.546  0.00  0.00    +0.080 A 
ATOM      9  C   LIG    1        3.936   6.023   1.166  0.00  0.00    -0.140 A 
ENDROOT
BRANCH   2  10
ATOM     10  C   LIG    1        3.739   5.544  -2.484  0.00  0.00    +0.550 C 
ATOM     11  O   LIG    1        3.432   4.396  -2.739  0.00  0.00    -0.450 OA
BRANCH  10  12
ATOM     12  O   LIG    1        3.954   6.423  -3.485  0.00  0.00    -0.280 OA
BRANCH  12  13
ATOM     13  C   LIG    1        3.910   5.937  -4.753  0.00  0.00    +0.100 A 
ATOM     14  C   LIG    1        5.090   5.713  -5.450  0.00  0.00    +0.040 A 
ATOM     15  C   LIG    1        5.051   5.215  -6.734  0.00  0.00    +0.070 A 
ATOM     16  C   LIG    1        3.821   4.945  -7.338  0.00  0.00    -0.020 A 
ATOM     17  C   LIG    1        2.637   5.176  -6.636  0.00  0.00    +0.100 A 
ATOM     18  C   LIG    1        2.685   5.669  -5.350  0.00  0.00    +0.040 A 
BRANCH  16  19
ATOM     19  C   LIG    1        3.774   4.416  -8.717  0.00  0.00    +0.210 A 
ATOM     20  N   LIG    1        2.693   4.121  -9.401  0.00  0.00    -0.270 NA
ATOM     21  N   LIG    1        3.033   3.687 -10.564  0.00  0.00    -0.290 NA
ATOM     22  C   LIG    1        4.332   3.688 -10.668  0.00  0.00    +0.420 A 
ATOM     23  O   LIG    1        4.832   4.152  -9.509  0.00  0.00    -0.220 OA
ENDBRANCH  16  19
ENDBRANCH  12  13
ENDBRANCH  10  12
ENDBRANCH   2  10
BRANCH   1  24
ATOM     24  C   LIG    1        3.302   3.723  -0.002  0.00  0.00    +0.160 C 
BRANCH  24  25
ATOM     25  S   LIG    1        1.498   3.575   0.036  0.00  0.00    +0.040 S 
BRANCH  25  30
ATOM     26  C   LIG    1       -0.955  -1.016   0.063  0.00  0.00    +0.160 C 
ATOM     27  C   LIG    1        0.272  -0.141   0.042  0.00  0.00    +0.080 A 
ATOM     28  C   LIG    1        1.509  -0.636   0.012  0.00  0.00    -0.080 A 
ATOM     29  S   LIG    1        2.639   0.715  -0.005  0.00  0.00    +0.130 S 
ATOM     30  C   LIG    1        1.335   1.820   0.030  0.00  0.00    +0.020 A 
ATOM     31  N   LIG    1        0.207   1.178   0.051  0.00  0.00    -0.450 NA
ENDBRANCH  25  30
ENDBRANCH  24  25
ENDBRANCH   1  24
TORSDOF 7
