REMARK  Name = ZINCrD000000fSxG.0
REMARK                            x       y       z     vdW  Elec       q    Type
REMARK                         _______ _______ _______ _____ _____    ______ ____
ROOT
ATOM      1  C   LIG    1        2.503   4.247  -0.002  0.00  0.00    +0.530 C 
ATOM      2  N   LIG    1        2.603   5.585  -0.137  0.00  0.00    -0.610 N 
ATOM      3  C   LIG    1        1.399   6.426  -0.165  0.00  0.00    +0.280 C 
ATOM      4  C   LIG    1        1.433   7.296  -1.425  0.00  0.00    -0.020 C 
ATOM      5  C   LIG    1        2.748   8.079  -1.463  0.00  0.00    +0.170 C 
ATOM      6  C   LIG    1        3.924   7.103  -1.515  0.00  0.00    -0.060 C 
ATOM      7  C   LIG    1        5.237   7.885  -1.588  0.00  0.00    +0.030 C 
ATOM      8  C   LIG    1        5.270   8.693  -2.889  0.00  0.00    +0.210 C 
ATOM      9  O   LIG    1        5.119   7.808  -4.001  0.00  0.00    -0.380 OA
ATOM     10  C   LIG    1        3.885   7.087  -4.010  0.00  0.00    +0.210 C 
ATOM     11  C   LIG    1        3.797   6.214  -2.755  0.00  0.00    +0.020 C 
ATOM     12  C   LIG    1        3.918   6.230  -0.252  0.00  0.00    +0.300 C 
ATOM     13  O   LIG    1        3.504   3.573   0.111  0.00  0.00    -0.530 OA
ENDROOT
BRANCH   1  15
ATOM     14  C   LIG    1        1.314   2.078   0.167  0.00  0.00    +0.080 C 
ATOM     15  C   LIG    1        1.147   3.590   0.007  0.00  0.00    -0.040 C 
ATOM     16  C   LIG    1        0.427   3.887  -1.310  0.00  0.00    +0.060 C 
BRANCH  15  17
ATOM     17  C   LIG    1        0.335   4.130   1.156  0.00  0.00    -0.040 A 
ATOM     18  C   LIG    1       -1.003   3.803   1.271  0.00  0.00    +0.030 A 
ATOM     19  C   LIG    1       -1.748   4.297   2.325  0.00  0.00    +0.080 A 
ATOM     20  C   LIG    1       -1.154   5.119   3.265  0.00  0.00    -0.180 A 
ATOM     21  C   LIG    1        0.184   5.447   3.151  0.00  0.00    +0.080 A 
ATOM     22  C   LIG    1        0.928   4.952   2.096  0.00  0.00    +0.020 A 
BRANCH  20  23
ATOM     23  C   LIG    1       -1.966   5.659   4.415  0.00  0.00    +0.510 C 
ATOM     24  F   LIG    1       -3.299   5.806   4.016  0.00  0.00    -0.180 F 
ATOM     25  F   LIG    1       -1.456   6.902   4.803  0.00  0.00    -0.180 F 
ATOM     26  F   LIG    1       -1.897   4.769   5.492  0.00  0.00    -0.180 F 
ENDBRANCH  20  23
ENDBRANCH  15  17
ENDBRANCH   1  15
BRANCH   5  27
ATOM     27  O   LIG    1        2.853   8.890  -0.291  0.00  0.00    -0.560 OA
ATOM     28  H   LIG    1        2.140   9.535  -0.193  0.00  0.00    +0.380 HD
ENDBRANCH   5  27
TORSDOF 4
