REMARK  Name = ZINCkj00000dE7sA.0
REMARK                            x       y       z     vdW  Elec       q    Type
REMARK                         _______ _______ _______ _____ _____    ______ ____
ROOT
ATOM      1  C   LIG    1        2.468  -1.378   2.400  0.00  0.00    +0.590 C 
ATOM      2  N   LIG    1        1.515  -0.582   1.877  0.00  0.00    -0.700 N 
ATOM      3  H   LIG    1        0.882  -0.136   2.460  0.00  0.00    +0.400 HD
ATOM      4  O   LIG    1        3.263  -1.938   1.667  0.00  0.00    -0.490 OA
ENDROOT
BRANCH   2   5
ATOM      5  C   LIG    1        1.435  -0.391   0.426  0.00  0.00    +0.260 C 
ATOM      6  C   LIG    1        2.255   0.840  -0.015  0.00  0.00    +0.090 C 
ATOM      7  C   LIG    1        1.275   1.995   0.001  0.00  0.00    -0.080 A 
ATOM      8  C   LIG    1        1.500   3.361   0.005  0.00  0.00    +0.000 A 
ATOM      9  C   LIG    1        0.436   4.243   0.020  0.00  0.00    +0.030 A 
ATOM     10  C   LIG    1       -0.859   3.763   0.030  0.00  0.00    -0.010 A 
ATOM     11  C   LIG    1       -1.089   2.396   0.020  0.00  0.00    +0.120 A 
ATOM     12  C   LIG    1       -0.018   1.509   0.010  0.00  0.00    -0.130 A 
ATOM     13  C   LIG    1        0.002  -0.004   0.002  0.00  0.00    +0.100 C 
BRANCH  11  14
ATOM     14  O   LIG    1       -2.362   1.921   0.024  0.00  0.00    -0.490 OA
ATOM     15  H   LIG    1       -2.726   1.780   0.908  0.00  0.00    +0.390 HD
ENDBRANCH  11  14
ENDBRANCH   2   5
BRANCH   1  19
ATOM     16  C   LIG    1        2.106  -1.410   5.994  0.00  0.00    -0.090 A 
ATOM     17  C   LIG    1        3.169  -2.236   5.878  0.00  0.00    +0.030 A 
ATOM     18  C   LIG    1        3.460  -2.345   4.509  0.00  0.00    +0.050 A 
ATOM     19  C   LIG    1        2.548  -1.570   3.851  0.00  0.00    -0.020 A 
ATOM     20  O   LIG    1        1.738  -1.006   4.771  0.00  0.00    -0.160 OA
BRANCH  16  21
ATOM     21  C   LIG    1        1.447  -1.004   7.287  0.00  0.00    +0.400 C 
BRANCH  21  22
ATOM     22  N   LIG    1        2.087   0.213   7.802  0.00  0.00    -0.640 N 
ATOM     23  H   LIG    1        1.645   0.485   8.668  0.00  0.00    +0.440 HD
ATOM     24  H   LIG    1        1.988   0.957   7.127  0.00  0.00    +0.440 HD
ATOM     25  H   LIG    1        3.066   0.035   7.966  0.00  0.00    +0.440 HD
ENDBRANCH  21  22
ENDBRANCH  16  21
ENDBRANCH   1  19
TORSDOF 5
