REMARK  Name = ZINCtV000002JdHP.0
REMARK                            x       y       z     vdW  Elec       q    Type
REMARK                         _______ _______ _______ _____ _____    ______ ____
ROOT
ATOM      1  C   LIG    1        7.574   0.906   3.438  0.00  0.00    +0.070 A 
ATOM      2  C   LIG    1        8.394   1.961   3.401  0.00  0.00    -0.030 A 
ATOM      3  S   LIG    1        9.889   1.526   4.228  0.00  0.00    +0.140 S 
ATOM      4  C   LIG    1        9.241  -0.083   4.540  0.00  0.00    +0.110 A 
ATOM      5  N   LIG    1        8.041  -0.162   4.041  0.00  0.00    -0.440 NA
ENDROOT
BRANCH   4   6
ATOM      6  C   LIG    1        9.947  -1.168   5.254  0.00  0.00    +0.000 A 
ATOM      7  C   LIG    1        9.325  -2.403   5.444  0.00  0.00    +0.080 A 
ATOM      8  C   LIG    1        9.991  -3.413   6.106  0.00  0.00    +0.080 A 
ATOM      9  C   LIG    1       11.269  -3.201   6.591  0.00  0.00    -0.170 A 
ATOM     10  C   LIG    1       11.890  -1.978   6.411  0.00  0.00    +0.080 A 
ATOM     11  C   LIG    1       11.237  -0.961   5.746  0.00  0.00    +0.040 A 
BRANCH   9  12
ATOM     12  C   LIG    1       11.989  -4.308   7.318  0.00  0.00    +0.510 C 
ATOM     13  F   LIG    1       13.367  -4.179   7.116  0.00  0.00    -0.170 F 
ATOM     14  F   LIG    1       11.559  -5.545   6.827  0.00  0.00    -0.170 F 
ATOM     15  F   LIG    1       11.708  -4.227   8.686  0.00  0.00    -0.170 F 
ENDBRANCH   9  12
ENDBRANCH   4   6
BRANCH   1  16
ATOM     16  C   LIG    1        6.200   0.940   2.819  0.00  0.00    +0.200 C 
BRANCH  16  17
ATOM     17  S   LIG    1        4.998   1.503   4.050  0.00  0.00    +0.090 S 
BRANCH  17  21
ATOM     18  C   LIG    1        1.466   1.583   2.445  0.00  0.00    +0.220 A 
ATOM     19  N   LIG    1        2.205   1.165   1.447  0.00  0.00    -0.260 NA
ATOM     20  N   LIG    1        3.432   1.083   1.827  0.00  0.00    -0.280 NA
ATOM     21  C   LIG    1        3.524   1.448   3.085  0.00  0.00    +0.130 A 
ATOM     22  O   LIG    1        2.286   1.776   3.502  0.00  0.00    -0.200 OA
BRANCH  18  29
ATOM     23  C   LIG    1       -0.013   1.086   0.008  0.00  0.00    +0.110 C 
ATOM     24  C   LIG    1       -0.718   1.572   1.248  0.00  0.00    -0.030 A 
ATOM     25  C   LIG    1       -2.080   1.789   1.228  0.00  0.00    +0.020 A 
ATOM     26  C   LIG    1       -2.730   2.230   2.368  0.00  0.00    +0.040 A 
ATOM     27  C   LIG    1       -2.018   2.466   3.530  0.00  0.00    +0.000 A 
ATOM     28  C   LIG    1       -0.655   2.259   3.562  0.00  0.00    +0.050 A 
ATOM     29  C   LIG    1        0.006   1.808   2.418  0.00  0.00    -0.040 A 
ENDBRANCH  18  29
ENDBRANCH  17  21
ENDBRANCH  16  17
ENDBRANCH   1  16
TORSDOF 6
