REMARK  Name = ZINCtV00000L6kt5.0
REMARK                            x       y       z     vdW  Elec       q    Type
REMARK                         _______ _______ _______ _____ _____    ______ ____
ROOT
ATOM      1  P   LIG    1        4.798   2.018   1.870  0.00  0.00    +2.580 P 
ATOM      2  O   LIG    1        5.388   1.235   0.761  0.00  0.00    -1.040 OA
ENDROOT
BRANCH   1   3
ATOM      3  C   LIG    1        4.578   0.947   3.317  0.00  0.00    -0.760 A 
ATOM      4  C   LIG    1        4.553   1.495   4.585  0.00  0.00    +0.070 A 
ATOM      5  C   LIG    1        4.380   0.679   5.688  0.00  0.00    -0.010 A 
ATOM      6  C   LIG    1        4.242  -0.686   5.522  0.00  0.00    +0.050 A 
ATOM      7  C   LIG    1        4.272  -1.235   4.254  0.00  0.00    +0.000 A 
ATOM      8  C   LIG    1        4.439  -0.418   3.151  0.00  0.00    +0.100 A 
ENDBRANCH   1   3
BRANCH   1   9
ATOM      9  N   LIG    1        5.800   3.259   2.256  0.00  0.00    -1.110 N 
ATOM     10  H   LIG    1        5.500   4.175   2.151  0.00  0.00    +0.420 HD
BRANCH   9  14
ATOM     11  C   LIG    1        9.636   2.472   3.685  0.00  0.00    +0.100 A 
ATOM     12  C   LIG    1        9.153   3.772   3.674  0.00  0.00    +0.020 A 
ATOM     13  C   LIG    1        7.883   4.034   3.201  0.00  0.00    +0.010 A 
ATOM     14  C   LIG    1        7.088   2.994   2.736  0.00  0.00    +0.150 A 
ATOM     15  C   LIG    1        7.569   1.692   2.752  0.00  0.00    -0.010 A 
ATOM     16  C   LIG    1        8.843   1.433   3.220  0.00  0.00    -0.030 A 
BRANCH  11  17
ATOM     17  O   LIG    1       10.887   2.215   4.151  0.00  0.00    -0.320 OA
BRANCH  17  19
ATOM     18  C   LIG    1       12.742   0.762   4.691  0.00  0.00    +0.070 C 
ATOM     19  C   LIG    1       11.320   0.853   4.133  0.00  0.00    +0.170 C 
ENDBRANCH  17  19
ENDBRANCH  11  17
ENDBRANCH   9  14
ENDBRANCH   1   9
BRANCH   1  20
ATOM     20  O   LIG    1        3.370   2.605   1.413  0.00  0.00    -0.750 OA
BRANCH  20  21
ATOM     21  C   LIG    1        2.280   1.773   1.010  0.00  0.00    +0.230 C 
ATOM     22  C   LIG    1        2.115   1.849  -0.509  0.00  0.00    +0.020 C 
ATOM     23  C   LIG    1        0.948   0.958  -0.940  0.00  0.00    -0.010 C 
ATOM     24  C   LIG    1       -0.338   1.438  -0.262  0.00  0.00    +0.020 C 
ATOM     25  C   LIG    1       -0.172   1.362   1.257  0.00  0.00    +0.020 C 
ATOM     26  C   LIG    1        1.231  -0.488  -0.529  0.00  0.00    +0.020 C 
ATOM     27  C   LIG    1        0.995   2.252   1.688  0.00  0.00    +0.000 C 
BRANCH  27  28
ATOM     28  C   LIG    1        1.161   2.176   3.207  0.00  0.00    -0.020 C 
ATOM     29  C   LIG    1        1.292   0.713   3.634  0.00  0.00    +0.000 C 
ATOM     30  C   LIG    1       -0.062   2.798   3.885  0.00  0.00    +0.020 C 
ENDBRANCH  27  28
ENDBRANCH  20  21
ENDBRANCH   1  20
TORSDOF 8
