REMARK  Name = ZINCrH000004pDe5.0
REMARK                            x       y       z     vdW  Elec       q    Type
REMARK                         _______ _______ _______ _____ _____    ______ ____
ROOT
ATOM      1  C   LIG    1        2.942  -2.047   0.022  0.00  0.00    +0.070 C 
ATOM      2  C   LIG    1        3.607  -3.423  -0.049  0.00  0.00    +0.230 C 
ENDROOT
BRANCH   2   3
ATOM      3  C   LIG    1        5.066  -3.259  -0.391  0.00  0.00    +0.300 A 
ATOM      4  N   LIG    1        5.529  -3.009  -1.581  0.00  0.00    -0.450 NA
ATOM      5  C   LIG    1        6.883  -2.922  -1.535  0.00  0.00    +0.050 A 
ATOM      6  C   LIG    1        7.866  -2.677  -2.497  0.00  0.00    +0.070 A 
ATOM      7  C   LIG    1        9.183  -2.651  -2.133  0.00  0.00    +0.010 A 
ATOM      8  C   LIG    1        9.557  -2.865  -0.815  0.00  0.00    +0.030 A 
ATOM      9  C   LIG    1        8.604  -3.109   0.151  0.00  0.00    +0.020 A 
ATOM     10  C   LIG    1        7.262  -3.139  -0.199  0.00  0.00    +0.050 A 
ATOM     11  N   LIG    1        6.090  -3.349   0.500  0.00  0.00    -0.550 N 
BRANCH  11  12
ATOM     12  C   LIG    1        5.971  -3.620   1.935  0.00  0.00    +0.640 C 
ATOM     13  F   LIG    1        4.752  -3.120   2.405  0.00  0.00    -0.180 F 
ATOM     14  F   LIG    1        7.024  -2.998   2.615  0.00  0.00    -0.180 F 
ENDBRANCH  11  12
ENDBRANCH   2   3
BRANCH   2  15
ATOM     15  N   LIG    1        2.950  -4.232  -1.084  0.00  0.00    -0.520 NA
ATOM     16  C   LIG    1        1.522  -4.412  -0.783  0.00  0.00    +0.190 C 
ATOM     17  C   LIG    1        0.859  -5.191  -1.921  0.00  0.00    +0.190 C 
ATOM     18  N   LIG    1        1.529  -6.489  -2.080  0.00  0.00    -0.530 NA
ATOM     19  C   LIG    1        2.956  -6.308  -2.381  0.00  0.00    +0.190 C 
ATOM     20  C   LIG    1        3.620  -5.530  -1.242  0.00  0.00    +0.180 C 
BRANCH  18  21
ATOM     21  C   LIG    1        0.871  -7.298  -3.115  0.00  0.00    +0.240 C 
BRANCH  21  22
ATOM     22  C   LIG    1       -0.516  -7.668  -2.657  0.00  0.00    +0.140 A 
ATOM     23  C   LIG    1       -1.592  -6.892  -3.043  0.00  0.00    -0.040 A 
ATOM     24  C   LIG    1       -2.865  -7.241  -2.616  0.00  0.00    +0.060 A 
ATOM     25  C   LIG    1       -3.007  -8.363  -1.814  0.00  0.00    -0.040 A 
ATOM     26  C   LIG    1       -1.884  -9.090  -1.468  0.00  0.00    +0.260 A 
ATOM     27  N   LIG    1       -0.689  -8.732  -1.897  0.00  0.00    -0.470 NA
ENDBRANCH  21  22
ENDBRANCH  18  21
ENDBRANCH   2  15
TORSDOF 5
