REMARK  Name = ZINCpe000000Xa9n.2
REMARK                            x       y       z     vdW  Elec       q    Type
REMARK                         _______ _______ _______ _____ _____    ______ ____
ROOT
ATOM      1  C   LIG    1       -4.088  -0.665  -1.602  0.00  0.00    +0.020 C 
ATOM      2  C   LIG    1       -4.313   0.666  -0.882  0.00  0.00    +0.180 C 
ENDROOT
BRANCH   2   3
ATOM      3  C   LIG    1       -4.462   1.768  -1.899  0.00  0.00    +0.520 C 
ATOM      4  N   LIG    1       -5.537   1.794  -2.712  0.00  0.00    -0.610 N 
ATOM      5  C   LIG    1       -6.630   0.827  -2.539  0.00  0.00    +0.260 C 
ATOM      6  C   LIG    1       -7.950   1.593  -2.411  0.00  0.00    +0.010 C 
ATOM      7  C   LIG    1       -8.116   2.521  -3.617  0.00  0.00    +0.030 C 
ATOM      8  C   LIG    1       -6.971   3.535  -3.644  0.00  0.00    -0.020 C 
ATOM      9  C   LIG    1       -5.641   2.795  -3.783  0.00  0.00    +0.310 C 
ATOM     10  O   LIG    1       -3.614   2.631  -1.987  0.00  0.00    -0.510 OA
BRANCH   8  11
ATOM     11  C   LIG    1       -7.153   4.469  -4.812  0.00  0.00    +0.530 C 
ATOM     12  O   LIG    1       -6.302   4.536  -5.673  0.00  0.00    -0.540 OA
ATOM     13  N   LIG    1       -8.263   5.229  -4.901  0.00  0.00    -0.850 N 
ATOM     14  H   LIG    1       -8.380   5.830  -5.653  0.00  0.00    +0.400 HD
ATOM     15  H   LIG    1       -8.944   5.175  -4.212  0.00  0.00    +0.400 HD
ENDBRANCH   8  11
ENDBRANCH   2   3
BRANCH   2  16
ATOM     16  N   LIG    1       -3.163   0.953  -0.014  0.00  0.00    -0.490 NA
ATOM     17  C   LIG    1       -1.911   1.020  -0.796  0.00  0.00    +0.170 C 
ATOM     18  C   LIG    1       -0.894   1.857  -0.171  0.00  0.00    +0.060 C 
ATOM     19  C   LIG    1       -0.486   1.315   1.217  0.00  0.00    +0.000 C 
ATOM     20  C   LIG    1       -1.554   1.671   2.215  0.00  0.00    +0.120 C 
ATOM     21  C   LIG    1       -2.625   0.570   2.370  0.00  0.00    +0.080 C 
ATOM     22  C   LIG    1       -3.032  -0.047   1.018  0.00  0.00    +0.180 C 
BRANCH  20  23
ATOM     23  C   LIG    1       -0.896   1.920   3.573  0.00  0.00    +0.410 C 
ATOM     24  F   LIG    1       -0.228   0.762   3.986  0.00  0.00    -0.180 F 
ATOM     25  F   LIG    1       -1.877   2.252   4.513  0.00  0.00    -0.180 F 
ATOM     26  F   LIG    1        0.020   2.972   3.462  0.00  0.00    -0.180 F 
ENDBRANCH  20  23
BRANCH  20  27
ATOM     27  O   LIG    1       -2.196   2.876   1.791  0.00  0.00    -0.500 OA
ATOM     28  H   LIG    1       -1.600   3.634   1.718  0.00  0.00    +0.380 HD
ENDBRANCH  20  27
ENDBRANCH   2  16
TORSDOF 5
