REMARK  Name = ZINCrH000004ppzf.0
REMARK                            x       y       z     vdW  Elec       q    Type
REMARK                         _______ _______ _______ _____ _____    ______ ____
ROOT
ATOM      1  C   LIG    1       -0.109   1.057  -2.412  0.00  0.00    +0.170 C 
ATOM      2  C   LIG    1        1.312   1.406  -1.965  0.00  0.00    +0.030 C 
ENDROOT
BRANCH   1   3
ATOM      3  N   LIG    1       -1.074   1.619  -1.458  0.00  0.00    -0.520 NA
ATOM      4  C   LIG    1       -0.686   1.313  -0.074  0.00  0.00    +0.190 C 
ATOM      5  C   LIG    1       -1.755   1.846   0.883  0.00  0.00    +0.180 C 
ATOM      6  N   LIG    1       -1.905   3.295   0.689  0.00  0.00    -0.530 NA
ATOM      7  C   LIG    1       -2.293   3.600  -0.695  0.00  0.00    +0.190 C 
ATOM      8  C   LIG    1       -1.224   3.068  -1.652  0.00  0.00    +0.190 C 
BRANCH   6   9
ATOM      9  C   LIG    1       -2.870   3.857   1.643  0.00  0.00    +0.230 C 
BRANCH   9  10
ATOM     10  C   LIG    1       -2.321   3.740   3.041  0.00  0.00    -0.070 A 
ATOM     11  C   LIG    1       -2.588   2.614   3.797  0.00  0.00    +0.030 A 
ATOM     12  C   LIG    1       -2.079   2.505   5.077  0.00  0.00    +0.020 A 
ATOM     13  C   LIG    1       -1.312   3.527   5.607  0.00  0.00    -0.030 A 
ATOM     14  C   LIG    1       -1.049   4.656   4.852  0.00  0.00    +0.020 A 
ATOM     15 CL   LIG    1       -0.678   3.393   7.217  0.00  0.00    -0.070 Cl
ATOM     16  C   LIG    1       -1.554   4.762   3.569  0.00  0.00    +0.040 A 
ENDBRANCH   9  10
ENDBRANCH   6   9
ENDBRANCH   1   3
BRANCH   1  19
ATOM     17  N   LIG    1        0.312  -1.147  -3.453  0.00  0.00    -0.730 N 
ATOM     18  H   LIG    1        0.829  -0.691  -4.136  0.00  0.00    +0.400 HD
ATOM     19  C   LIG    1       -0.266  -0.441  -2.461  0.00  0.00    +0.520 C 
ATOM     20  O   LIG    1       -0.912  -1.012  -1.608  0.00  0.00    -0.520 OA
BRANCH  17  22
ATOM     21  C   LIG    1       -1.149  -2.956  -4.212  0.00  0.00    +0.040 C 
ATOM     22  C   LIG    1        0.160  -2.603  -3.502  0.00  0.00    +0.290 C 
BRANCH  22  23
ATOM     23  C   LIG    1        1.318  -3.205  -4.255  0.00  0.00    -0.090 A 
ATOM     24  C   LIG    1        1.801  -2.583  -5.391  0.00  0.00    +0.000 A 
ATOM     25  C   LIG    1        2.866  -3.133  -6.080  0.00  0.00    +0.000 A 
ATOM     26  C   LIG    1        3.443  -4.309  -5.637  0.00  0.00    +0.000 A 
ATOM     27  C   LIG    1        2.956  -4.933  -4.504  0.00  0.00    +0.020 A 
ATOM     28  C   LIG    1        1.894  -4.381  -3.813  0.00  0.00    +0.010 A 
ENDBRANCH  22  23
ENDBRANCH  17  22
ENDBRANCH   1  19
TORSDOF 6
