REMARK  Name = ZINCc70000001n3e.0
REMARK                            x       y       z     vdW  Elec       q    Type
REMARK                         _______ _______ _______ _____ _____    ______ ____
ROOT
ATOM      1  C   LIG    1       -0.018   1.465   0.010  0.00  0.00    +0.310 C 
ATOM      2  N   LIG    1        0.002  -0.004   0.002  0.00  0.00    -0.390 N 
ATOM      3  C   LIG    1       -1.376  -0.511   0.004  0.00  0.00    +0.260 C 
ATOM      4  C   LIG    1       -1.361  -2.038  -0.087  0.00  0.00    +0.040 C 
ATOM      5  C   LIG    1       -0.605  -2.608   1.117  0.00  0.00    +0.140 C 
ATOM      6  C   LIG    1        0.807  -2.015   1.147  0.00  0.00    +0.070 C 
ATOM      7  C   LIG    1        0.712  -0.489   1.192  0.00  0.00    +0.260 C 
ATOM      8  H   LIG    1        0.477  -0.328  -0.827  0.00  0.00    +0.430 HD
ENDROOT
BRANCH   5   9
ATOM      9  O   LIG    1       -0.524  -4.030   1.000  0.00  0.00    -0.340 OA
BRANCH   9  10
ATOM     10  C   LIG    1       -1.612  -4.726   1.612  0.00  0.00    +0.090 C 
BRANCH  10  11
ATOM     11  C   LIG    1       -1.424  -6.210   1.430  0.00  0.00    +0.500 C 
ATOM     12  O   LIG    1       -2.247  -6.989   1.881  0.00  0.00    -0.680 OA
ATOM     13  O   LIG    1       -0.450  -6.633   0.831  0.00  0.00    -0.670 OA
ENDBRANCH  10  11
ENDBRANCH   9  10
ENDBRANCH   5   9
TORSDOF 3
