REMARK  Name = ZINCvU0000000CQy.0
REMARK                            x       y       z     vdW  Elec       q    Type
REMARK                         _______ _______ _______ _____ _____    ______ ____
ROOT
ATOM      1  O   LIG    1       -6.271  -2.144   2.564  0.00  0.00    -0.310 OA
ENDROOT
BRANCH   1   5
ATOM      2  C   LIG    1       -7.470  -2.531   6.492  0.00  0.00    -0.110 A 
ATOM      3  C   LIG    1       -8.178  -3.166   5.489  0.00  0.00    +0.060 A 
ATOM      4  C   LIG    1       -7.779  -3.039   4.173  0.00  0.00    -0.020 A 
ATOM      5  C   LIG    1       -6.666  -2.272   3.858  0.00  0.00    +0.130 A 
ATOM      6  C   LIG    1       -5.954  -1.640   4.867  0.00  0.00    -0.080 A 
ATOM      7  C   LIG    1       -6.361  -1.766   6.181  0.00  0.00    +0.050 A 
BRANCH   2   9
ATOM      8  C   LIG    1       -8.026  -4.156   8.281  0.00  0.00    +0.040 C 
ATOM      9  C   LIG    1       -7.908  -2.672   7.927  0.00  0.00    +0.020 C 
ATOM     10  C   LIG    1       -6.876  -2.011   8.843  0.00  0.00    +0.040 C 
BRANCH   9  11
ATOM     11  C   LIG    1       -9.246  -2.003   8.112  0.00  0.00    -0.070 A 
ATOM     12  C   LIG    1       -9.800  -1.270   7.080  0.00  0.00    +0.010 A 
ATOM     13  C   LIG    1      -11.030  -0.661   7.248  0.00  0.00    +0.000 A 
ATOM     14  C   LIG    1      -11.700  -0.776   8.452  0.00  0.00    +0.000 A 
ATOM     15  C   LIG    1      -11.142  -1.505   9.486  0.00  0.00    +0.000 A 
ATOM     16  C   LIG    1       -9.915  -2.119   9.316  0.00  0.00    +0.010 A 
ENDBRANCH   9  11
ENDBRANCH   2   9
ENDBRANCH   1   5
BRANCH   1  17
ATOM     17  C   LIG    1       -5.117  -1.340   2.314  0.00  0.00    +0.180 C 
BRANCH  17  18
ATOM     18  C   LIG    1       -4.829  -1.315   0.812  0.00  0.00    +0.050 C 
BRANCH  18  19
ATOM     19  C   LIG    1       -3.593  -0.453   0.544  0.00  0.00    +0.010 C 
BRANCH  19  20
ATOM     20  C   LIG    1       -3.304  -0.428  -0.958  0.00  0.00    +0.300 C 
BRANCH  20  21
ATOM     21  N   LIG    1       -2.121   0.397  -1.215  0.00  0.00    -0.550 N 
ATOM     22  C   LIG    1       -0.889  -0.175  -1.216  0.00  0.00    +0.570 A 
ATOM     23  N   LIG    1        0.206   0.487  -1.440  0.00  0.00    -0.520 NA
ATOM     24  C   LIG    1        0.192   1.820  -1.687  0.00  0.00    +0.150 A 
ATOM     25  C   LIG    1        1.369   2.532  -1.928  0.00  0.00    +0.030 A 
ATOM     26  C   LIG    1        1.308   3.886  -2.175  0.00  0.00    +0.070 A 
ATOM     27  C   LIG    1        0.091   4.553  -2.188  0.00  0.00    -0.010 A 
ATOM     28  C   LIG    1       -1.084   3.872  -1.952  0.00  0.00    +0.100 A 
ATOM     29  C   LIG    1       -1.045   2.503  -1.700  0.00  0.00    -0.200 A 
ATOM     30  C   LIG    1       -2.265   1.724  -1.443  0.00  0.00    +0.550 A 
ATOM     31  O   LIG    1       -3.363   2.250  -1.440  0.00  0.00    -0.510 OA
ENDBRANCH  20  21
ENDBRANCH  19  20
ENDBRANCH  18  19
ENDBRANCH  17  18
ENDBRANCH   1  17
TORSDOF 8
