REMARK  Name = ZINCkj00000y7Db9.1
REMARK                            x       y       z     vdW  Elec       q    Type
REMARK                         _______ _______ _______ _____ _____    ______ ____
ROOT
ATOM      1  C   LIG    1       -1.406  -0.584  -0.071  0.00  0.00    +0.290 C 
ATOM      2  O   LIG    1       -1.519  -1.615  -1.059  0.00  0.00    -0.340 OA
ATOM      3  C   LIG    1       -0.272  -1.763  -1.758  0.00  0.00    +0.230 C 
ATOM      4  C   LIG    1        0.439  -0.394  -1.611  0.00  0.00    +0.020 C 
ATOM      5  C   LIG    1        0.018   0.004  -0.171  0.00  0.00    -0.030 C 
ENDROOT
BRANCH   1  11
ATOM      6  C   LIG    1       -3.085   0.663   2.215  0.00  0.00    +0.330 C 
ATOM      7  N   LIG    1       -2.360  -0.608   2.287  0.00  0.00    -0.460 N 
ATOM      8  C   LIG    1       -2.304  -1.452   3.363  0.00  0.00    +0.140 A 
ATOM      9  C   LIG    1       -1.529  -2.492   3.002  0.00  0.00    +0.160 A 
ATOM     10  N   LIG    1       -1.127  -2.292   1.738  0.00  0.00    -0.460 NA
ATOM     11  C   LIG    1       -1.624  -1.167   1.302  0.00  0.00    +0.160 A 
ENDBRANCH   1  11
BRANCH   5  12
ATOM     12  C   LIG    1       -0.010   1.526  -0.013  0.00  0.00    +0.270 C 
BRANCH  12  13
ATOM     13  N   LIG    1        1.342   2.063  -0.214  0.00  0.00    -0.380 N 
ATOM     14  C   LIG    1        1.291   3.531  -0.208  0.00  0.00    +0.340 C 
ATOM     15  H   LIG    1        1.703   1.743  -1.100  0.00  0.00    +0.430 HD
BRANCH  13  16
ATOM     16  C   LIG    1        2.220   1.599   0.869  0.00  0.00    +0.370 C 
BRANCH  16  17
ATOM     17  C   LIG    1        3.633   2.049   0.598  0.00  0.00    +0.010 A 
ATOM     18  N   LIG    1        4.506   1.424  -0.150  0.00  0.00    -0.260 NA
ATOM     19  N   LIG    1        5.695   2.164  -0.145  0.00  0.00    -0.450 N 
ATOM     20  H   LIG    1        6.512   1.935  -0.616  0.00  0.00    +0.450 HD
ATOM     21  C   LIG    1        5.504   3.253   0.629  0.00  0.00    +0.270 A 
ATOM     22  C   LIG    1        4.235   3.208   1.097  0.00  0.00    -0.100 A 
ENDBRANCH  16  17
ENDBRANCH  13  16
ENDBRANCH  12  13
ENDBRANCH   5  12
TORSDOF 5
