REMARK  Name = ZINCkj00000y7Db9.0
REMARK                            x       y       z     vdW  Elec       q    Type
REMARK                         _______ _______ _______ _____ _____    ______ ____
ROOT
ATOM      1  C   LIG    1       -0.013   1.086   0.008  0.00  0.00    +0.280 C 
ATOM      2  O   LIG    1       -0.639   1.560   1.212  0.00  0.00    -0.340 OA
ATOM      3  C   LIG    1        0.413   1.778   2.177  0.00  0.00    +0.220 C 
ATOM      4  C   LIG    1        1.553   2.402   1.333  0.00  0.00    +0.030 C 
ATOM      5  C   LIG    1        1.429   1.629  -0.003  0.00  0.00    -0.030 C 
ENDROOT
BRANCH   1  11
ATOM      6  C   LIG    1       -0.739  -0.536  -2.530  0.00  0.00    +0.330 C 
ATOM      7  N   LIG    1       -1.069   0.872  -2.295  0.00  0.00    -0.460 N 
ATOM      8  C   LIG    1       -1.750   1.699  -3.147  0.00  0.00    +0.140 A 
ATOM      9  C   LIG    1       -1.827   2.901  -2.544  0.00  0.00    +0.160 A 
ATOM     10  N   LIG    1       -1.215   2.808  -1.354  0.00  0.00    -0.460 NA
ATOM     11  C   LIG    1       -0.761   1.595  -1.197  0.00  0.00    +0.170 A 
ENDBRANCH   1  11
BRANCH   5  12
ATOM     12  C   LIG    1        2.435   0.478  -0.051  0.00  0.00    +0.270 C 
BRANCH  12  13
ATOM     13  N   LIG    1        3.794   1.020  -0.181  0.00  0.00    -0.380 N 
ATOM     14  C   LIG    1        3.926   1.706  -1.474  0.00  0.00    +0.320 C 
ATOM     15  H   LIG    1        3.968   1.675   0.567  0.00  0.00    +0.430 HD
BRANCH  13  16
ATOM     16  C   LIG    1        4.769  -0.077  -0.107  0.00  0.00    +0.380 C 
BRANCH  16  17
ATOM     17  C   LIG    1        6.165   0.490  -0.117  0.00  0.00    +0.000 A 
ATOM     18  N   LIG    1        6.857   0.807  -1.181  0.00  0.00    -0.260 NA
ATOM     19  N   LIG    1        8.101   1.297  -0.764  0.00  0.00    -0.450 N 
ATOM     20  H   LIG    1        8.815   1.607  -1.343  0.00  0.00    +0.450 HD
ATOM     21  C   LIG    1        8.130   1.264   0.584  0.00  0.00    +0.270 A 
ATOM     22  C   LIG    1        6.943   0.773   1.010  0.00  0.00    -0.100 A 
ENDBRANCH  16  17
ENDBRANCH  13  16
ENDBRANCH  12  13
ENDBRANCH   5  12
TORSDOF 5
