REMARK  Name = ZINCpe00000VVGPi.0
REMARK                            x       y       z     vdW  Elec       q    Type
REMARK                         _______ _______ _______ _____ _____    ______ ____
ROOT
ATOM      1  C   LIG    1        2.305  -0.310  -0.021  0.00  0.00    +0.240 C 
ENDROOT
BRANCH   1   2
ATOM      2  C   LIG    1        3.704  -0.871  -0.037  0.00  0.00    +0.520 C 
ATOM      3  N   LIG    1        3.895  -2.205  -0.045  0.00  0.00    -0.610 N 
ATOM      4  C   LIG    1        2.752  -3.131  -0.033  0.00  0.00    +0.290 C 
ATOM      5  C   LIG    1        2.937  -4.139  -1.178  0.00  0.00    +0.170 C 
ATOM      6  N   LIG    1        4.255  -4.777  -1.054  0.00  0.00    -0.530 NA
ATOM      7  C   LIG    1        5.338  -3.795  -1.199  0.00  0.00    +0.170 C 
ATOM      8  C   LIG    1        5.251  -2.773  -0.061  0.00  0.00    +0.300 C 
ATOM      9  O   LIG    1        4.657  -0.121  -0.042  0.00  0.00    -0.510 OA
BRANCH   6  10
ATOM     10  C   LIG    1        4.403  -5.871  -2.023  0.00  0.00    +0.140 C 
BRANCH  10  11
ATOM     11  C   LIG    1        3.140  -6.734  -2.016  0.00  0.00    +0.200 C 
ATOM     12  C   LIG    1        3.294  -7.874  -3.025  0.00  0.00    +0.010 C 
BRANCH  11  13
ATOM     13  O   LIG    1        2.942  -7.278  -0.709  0.00  0.00    -0.550 OA
ATOM     14  H   LIG    1        3.670  -7.835  -0.401  0.00  0.00    +0.380 HD
ENDBRANCH  11  13
ENDBRANCH  10  11
ENDBRANCH   6  10
ENDBRANCH   1   2
BRANCH   1  15
ATOM     15  O   LIG    1        2.364   1.118  -0.014  0.00  0.00    -0.270 OA
BRANCH  15  21
ATOM     16  C   LIG    1        1.167   3.178   0.008  0.00  0.00    +0.110 A 
ATOM     17  C   LIG    1       -0.035   3.858   0.022  0.00  0.00    +0.020 A 
ATOM     18  C   LIG    1       -1.237   3.144   0.029  0.00  0.00    -0.030 A 
ATOM     19  C   LIG    1       -1.217   1.747   0.017  0.00  0.00    +0.080 A 
ATOM     20  C   LIG    1       -0.013   1.076   0.008  0.00  0.00    -0.030 A 
ATOM     21  C   LIG    1        1.181   1.784   0.000  0.00  0.00    +0.130 A 
BRANCH  18  22
ATOM     22  C   LIG    1       -2.487   3.843   0.044  0.00  0.00    +0.250 C 
ATOM     23  N   LIG    1       -3.478   4.398   0.056  0.00  0.00    -0.410 NA
ENDBRANCH  18  22
BRANCH  16  24
ATOM     24  O   LIG    1        2.338   3.869   0.001  0.00  0.00    -0.300 OA
BRANCH  24  26
ATOM     25  C   LIG    1        3.658   5.894  -0.000  0.00  0.00    +0.070 C 
ATOM     26  C   LIG    1        2.250   5.296   0.009  0.00  0.00    +0.170 C 
ENDBRANCH  24  26
ENDBRANCH  16  24
ENDBRANCH  15  21
ENDBRANCH   1  15
TORSDOF 9
