REMARK  Name = ZINCkj000005kA7R.0
REMARK                            x       y       z     vdW  Elec       q    Type
REMARK                         _______ _______ _______ _____ _____    ______ ____
ROOT
ATOM      1  N   LIG    1        4.807   0.642   0.410  0.00  0.00    -0.510 N 
ATOM      2  H   LIG    1        4.520   0.936   1.331  0.00  0.00    +0.430 HD
ATOM      3  H   LIG    1        5.116   1.444  -0.118  0.00  0.00    +0.430 HD
ENDROOT
BRANCH   1   4
ATOM      4  C   LIG    1        3.672   0.010  -0.278  0.00  0.00    +0.230 C 
ATOM      5  C   LIG    1        4.070  -0.323  -1.717  0.00  0.00    +0.110 C 
BRANCH   4  12
ATOM      6  C   LIG    1        0.940  -1.001  -0.489  0.00  0.00    +0.120 C 
ATOM      7  C   LIG    1        1.202   0.480  -0.387  0.00  0.00    -0.110 A 
ATOM      8  C   LIG    1        0.152   1.378  -0.393  0.00  0.00    +0.290 A 
ATOM      9  N   LIG    1        0.374   2.675  -0.305  0.00  0.00    -0.460 NA
ATOM     10  C   LIG    1        1.595   3.165  -0.208  0.00  0.00    +0.290 A 
ATOM     11  C   LIG    1        2.694   2.327  -0.196  0.00  0.00    -0.050 A 
ATOM     12  C   LIG    1        2.500   0.957  -0.287  0.00  0.00    -0.100 A 
ENDBRANCH   4  12
ENDBRANCH   1   4
BRANCH   1  13
ATOM     13  C   LIG    1        5.908  -0.323   0.524  0.00  0.00    +0.290 C 
BRANCH  13  14
ATOM     14  C   LIG    1        7.090   0.335   1.240  0.00  0.00    -0.110 C 
ATOM     15  C   LIG    1        7.563   1.550   0.438  0.00  0.00    +0.030 C 
ATOM     16  C   LIG    1        8.795   2.153   1.119  0.00  0.00    +0.240 C 
ATOM     17  O   LIG    1        9.816   1.159   1.223  0.00  0.00    -0.370 OA
ATOM     18  C   LIG    1        9.445   0.021   2.004  0.00  0.00    +0.210 C 
ATOM     19  C   LIG    1        8.241  -0.669   1.357  0.00  0.00    +0.050 C 
BRANCH  14  20
ATOM     20  C   LIG    1        6.663   0.775   2.617  0.00  0.00    +0.500 C 
ATOM     21  O   LIG    1        6.614   1.956   2.888  0.00  0.00    -0.510 OA
ATOM     22  N   LIG    1        6.337  -0.144   3.547  0.00  0.00    -0.850 N 
ATOM     23  H   LIG    1        5.993   0.139   4.409  0.00  0.00    +0.420 HD
ATOM     24  H   LIG    1        6.445  -1.089   3.355  0.00  0.00    +0.410 HD
ENDBRANCH  14  20
ENDBRANCH  13  14
ENDBRANCH   1  13
TORSDOF 5
