REMARK  Name = ZINCqH0000002y52.0
REMARK                            x       y       z     vdW  Elec       q    Type
REMARK                         _______ _______ _______ _____ _____    ______ ____
ROOT
ATOM      1  N   LIG    1        1.197  -0.631   0.011  0.00  0.00    -0.360 N 
ATOM      2  N   LIG    1        2.318  -0.015  -0.004  0.00  0.00    -0.190 NA
ATOM      3  C   LIG    1        2.442   1.291  -0.008  0.00  0.00    +0.050 A 
ATOM      4  C   LIG    1        1.232   2.128   0.006  0.00  0.00    -0.030 A 
ATOM      5  C   LIG    1        1.277   3.517   0.004  0.00  0.00    +0.070 A 
ATOM      6  C   LIG    1        0.098   4.233   0.018  0.00  0.00    +0.060 A 
ATOM      7  C   LIG    1       -1.129   3.582   0.035  0.00  0.00    +0.030 A 
ATOM      8  C   LIG    1       -1.196   2.204   0.042  0.00  0.00    +0.090 A 
ATOM      9  C   LIG    1       -0.018   1.465   0.023  0.00  0.00    -0.140 A 
ATOM     10  C   LIG    1        0.003  -0.005   0.025  0.00  0.00    +0.520 A 
ATOM     11  O   LIG    1       -1.035  -0.642   0.040  0.00  0.00    -0.490 OA
ENDROOT
BRANCH   3  12
ATOM     12  C   LIG    1        3.780   1.913  -0.026  0.00  0.00    +0.600 C 
ATOM     13  N   LIG    1        4.884   1.139  -0.039  0.00  0.00    -0.650 N 
ATOM     14  H   LIG    1        4.801   0.175   0.031  0.00  0.00    +0.420 HD
ATOM     15  O   LIG    1        3.888   3.124  -0.029  0.00  0.00    -0.500 OA
BRANCH  13  16
ATOM     16  C   LIG    1        6.149   1.726  -0.154  0.00  0.00    +0.160 A 
ATOM     17  C   LIG    1        7.154   1.078  -0.859  0.00  0.00    +0.030 A 
ATOM     18  C   LIG    1        8.402   1.660  -0.976  0.00  0.00    +0.050 A 
ATOM     19  C   LIG    1        8.654   2.885  -0.383  0.00  0.00    +0.060 A 
ATOM     20  C   LIG    1        7.653   3.532   0.327  0.00  0.00    +0.090 A 
ATOM     21  F   LIG    1        7.901   4.727   0.906  0.00  0.00    -0.120 F 
ATOM     22  F   LIG    1        9.876   3.450  -0.494  0.00  0.00    -0.130 F 
ATOM     23  C   LIG    1        6.402   2.955   0.442  0.00  0.00    +0.030 A 
ENDBRANCH  13  16
ENDBRANCH   3  12
BRANCH   1  24
ATOM     24  C   LIG    1        1.212  -2.096   0.014  0.00  0.00    +0.320 C 
BRANCH  24  25
ATOM     25  C   LIG    1        1.198  -2.609  -1.428  0.00  0.00    +0.000 C 
BRANCH  25  27
ATOM     26  C   LIG    1        1.200  -4.652  -2.866  0.00  0.00    +0.010 C 
ATOM     27  C   LIG    1        1.214  -4.139  -1.425  0.00  0.00    +0.020 C 
ENDBRANCH  25  27
ENDBRANCH  24  25
ENDBRANCH   1  24
TORSDOF 5
