REMARK  Name = ZINCpk00000KfLqe.0
REMARK                            x       y       z     vdW  Elec       q    Type
REMARK                         _______ _______ _______ _____ _____    ______ ____
ROOT
ATOM      1  C   LIG    1       -4.387   0.288  -1.368  0.00  0.00    +0.010 C 
ATOM      2  C   LIG    1       -4.329  -1.167  -0.898  0.00  0.00    +0.050 C 
ATOM      3  C   LIG    1       -2.868  -1.595  -0.737  0.00  0.00    +0.020 C 
ATOM      4  C   LIG    1       -2.196  -0.717   0.318  0.00  0.00    +0.260 C 
ATOM      5  N   LIG    1       -2.376   0.694  -0.048  0.00  0.00    -0.620 N 
ATOM      6  C   LIG    1       -1.314   1.519  -0.144  0.00  0.00    +0.710 C 
ATOM      7  N   LIG    1       -0.066   1.031   0.001  0.00  0.00    -0.680 N 
ATOM      8  H   LIG    1        0.073   0.075   0.093  0.00  0.00    +0.410 HD
ATOM      9  O   LIG    1       -1.482   2.704  -0.360  0.00  0.00    -0.560 OA
ATOM     10  C   LIG    1       -3.733   1.188  -0.315  0.00  0.00    +0.330 C 
ENDROOT
BRANCH   7  11
ATOM     11  C   LIG    1        1.030   1.902   0.011  0.00  0.00    +0.110 A 
ATOM     12  C   LIG    1        0.906   3.185   0.541  0.00  0.00    +0.100 A 
ATOM     13  C   LIG    1        2.016   4.012   0.530  0.00  0.00    +0.020 A 
ATOM     14  C   LIG    1        3.208   3.539  -0.004  0.00  0.00    +0.340 A 
ATOM     15  N   LIG    1        3.289   2.315  -0.499  0.00  0.00    -0.480 NA
ATOM     16  C   LIG    1        2.255   1.497  -0.501  0.00  0.00    +0.280 A 
BRANCH  14  17
ATOM     17  N   LIG    1        4.336   4.368  -0.019  0.00  0.00    -0.330 N 
ATOM     18  C   LIG    1        5.557   4.061  -0.499  0.00  0.00    +0.520 A 
ATOM     19  N   LIG    1        6.332   5.102  -0.328  0.00  0.00    -0.540 NA
ATOM     20  C   LIG    1        5.646   6.086   0.253  0.00  0.00    +0.450 A 
ATOM     21  N   LIG    1        4.418   5.686   0.457  0.00  0.00    -0.310 NA
ENDBRANCH  14  17
ENDBRANCH   7  11
BRANCH   1  22
ATOM     22  C   LIG    1       -5.825   0.698  -1.558  0.00  0.00    +0.470 C 
ATOM     23  O   LIG    1       -6.712  -0.094  -1.341  0.00  0.00    -0.500 OA
BRANCH  22  24
ATOM     24  O   LIG    1       -6.120   1.942  -1.966  0.00  0.00    -0.350 OA
BRANCH  24  26
ATOM     25  C   LIG    1       -7.664   3.717  -2.595  0.00  0.00    +0.070 C 
ATOM     26  C   LIG    1       -7.526   2.267  -2.127  0.00  0.00    +0.200 C 
ENDBRANCH  24  26
ENDBRANCH  22  24
ENDBRANCH   1  22
TORSDOF 5
