REMARK  Name = ZINCqH0000051yu6.0
REMARK                            x       y       z     vdW  Elec       q    Type
REMARK                         _______ _______ _______ _____ _____    ______ ____
ROOT
ATOM      1  O   LIG    1       -5.149   4.486   0.075  0.00  0.00    -0.500 OA
ATOM      2  C   LIG    1       -4.947   3.295   0.067  0.00  0.00    +0.500 C 
ENDROOT
BRANCH   2   3
ATOM      3  C   LIG    1       -6.108   2.333   0.073  0.00  0.00    +0.200 C 
ATOM      4  C   LIG    1       -6.353   1.822  -1.348  0.00  0.00    +0.060 C 
ATOM      5  C   LIG    1       -7.546   0.862  -1.341  0.00  0.00    +0.030 C 
ATOM      6  C   LIG    1       -8.773   1.588  -0.782  0.00  0.00    +0.040 C 
ATOM      7  C   LIG    1       -8.457   2.106   0.622  0.00  0.00    +0.220 C 
ATOM      8  N   LIG    1       -7.310   3.021   0.562  0.00  0.00    -0.440 N 
BRANCH   8   9
ATOM      9  C   LIG    1       -7.079   3.609   1.793  0.00  0.00    +0.500 A 
ATOM     10  N   LIG    1       -5.884   3.488   2.353  0.00  0.00    -0.560 NA
ATOM     11  C   LIG    1       -5.629   4.043   3.527  0.00  0.00    +0.350 A 
ATOM     12  C   LIG    1       -6.631   4.747   4.175  0.00  0.00    -0.110 A 
ATOM     13  C   LIG    1       -7.871   4.849   3.563  0.00  0.00    +0.350 A 
ATOM     14  N   LIG    1       -8.059   4.275   2.386  0.00  0.00    -0.530 NA
ENDBRANCH   8   9
ENDBRANCH   2   3
BRANCH   2  15
ATOM     15  O   LIG    1       -3.689   2.827   0.052  0.00  0.00    -0.350 OA
BRANCH  15  16
ATOM     16  C   LIG    1       -2.620   3.811   0.048  0.00  0.00    +0.280 C 
BRANCH  16  17
ATOM     17  C   LIG    1       -1.289   3.105   0.031  0.00  0.00    -0.090 A 
ATOM     18  C   LIG    1       -1.235   1.746   0.018  0.00  0.00    +0.040 A 
ATOM     19  C   LIG    1       -0.013   1.076   0.008  0.00  0.00    +0.010 A 
ATOM     20  C   LIG    1        1.163   1.762   0.000  0.00  0.00    +0.030 A 
ATOM     21  C   LIG    1        1.147   3.167   0.008  0.00  0.00    -0.050 A 
ATOM     22  C   LIG    1        2.340   3.910   0.000  0.00  0.00    +0.030 A 
ATOM     23  C   LIG    1        2.286   5.271   0.008  0.00  0.00    +0.000 A 
ATOM     24  C   LIG    1        1.064   5.940   0.023  0.00  0.00    +0.010 A 
ATOM     25  C   LIG    1       -0.111   5.253   0.032  0.00  0.00    +0.010 A 
ATOM     26  C   LIG    1       -0.096   3.849   0.024  0.00  0.00    -0.040 A 
ENDBRANCH  16  17
ENDBRANCH  15  16
ENDBRANCH   2  15
TORSDOF 5
