REMARK  Name = ZINCpe000000XWfG.0
REMARK                            x       y       z     vdW  Elec       q    Type
REMARK                         _______ _______ _______ _____ _____    ______ ____
ROOT
ATOM      1  S   LIG    1        6.396   2.183  -1.516  0.00  0.00    +2.620 S 
ATOM      2  O   LIG    1        6.046   0.902  -2.021  0.00  0.00    -0.940 OA
ATOM      3  O   LIG    1        7.680   2.424  -0.955  0.00  0.00    -0.940 OA
ENDROOT
BRANCH   1   4
ATOM      4  C   LIG    1        5.971   3.477  -2.713  0.00  0.00    -0.480 C 
ATOM      5  C   LIG    1        4.711   3.166  -3.541  0.00  0.00    +0.340 C 
ATOM      6  N   LIG    1        5.464   3.689  -4.698  0.00  0.00    -0.640 N 
ATOM      7  C   LIG    1        5.119   4.236  -5.880  0.00  0.00    +0.550 C 
ATOM      8  O   LIG    1        5.979   4.586  -6.661  0.00  0.00    -0.530 OA
ATOM      9  C   LIG    1        6.747   3.373  -4.039  0.00  0.00    +0.350 C 
BRANCH   7  10
ATOM     10  C   LIG    1        3.665   4.414  -6.233  0.00  0.00    -0.010 C 
ATOM     11  C   LIG    1        2.969   3.039  -6.314  0.00  0.00    +0.020 C 
ATOM     12  C   LIG    1        1.972   3.187  -7.489  0.00  0.00    +0.020 C 
ATOM     13  C   LIG    1        2.764   4.047  -8.504  0.00  0.00    +0.010 C 
ATOM     14  C   LIG    1        3.534   5.055  -7.625  0.00  0.00    +0.040 C 
ENDBRANCH   7  10
ENDBRANCH   1   4
BRANCH   1  15
ATOM     15  N   LIG    1        5.349   2.426  -0.256  0.00  0.00    -1.110 NA
ATOM     16  H   LIG    1        5.689   2.690   0.613  0.00  0.00    +0.430 HD
BRANCH  15  22
ATOM     17  C   LIG    1       -1.206  -0.906   0.010  0.00  0.00    +0.140 C 
ATOM     18  C   LIG    1        0.002  -0.004   0.002  0.00  0.00    -0.000 A 
ATOM     19  C   LIG    1        1.290  -0.405  -0.013  0.00  0.00    +0.130 A 
ATOM     20  N   LIG    1        2.051   0.725  -0.015  0.00  0.00    -0.450 N 
ATOM     21  C   LIG    1        3.513   0.822  -0.031  0.00  0.00    +0.280 C 
ATOM     22  C   LIG    1        3.909   2.241  -0.454  0.00  0.00    +0.230 C 
ATOM     23  C   LIG    1        3.142   3.260   0.393  0.00  0.00    +0.050 C 
ATOM     24  C   LIG    1        1.658   3.225   0.006  0.00  0.00    +0.160 C 
ATOM     25  C   LIG    1        1.206   1.783   0.000  0.00  0.00    +0.200 A 
ATOM     26  N   LIG    1       -0.016   1.339   0.009  0.00  0.00    -0.480 NA
ENDBRANCH  15  22
ENDBRANCH   1  15
TORSDOF 4
