REMARK  Name = ZINCqH0000003wqi.0
REMARK                            x       y       z     vdW  Elec       q    Type
REMARK                         _______ _______ _______ _____ _____    ______ ____
ROOT
ATOM      1  C   LIG    1       -9.477   1.355  -3.012  0.00  0.00    +0.150 C 
ATOM      2  C   LIG    1       -8.577   2.266  -2.154  0.00  0.00    +0.050 C 
ATOM      3  C   LIG    1       -7.493   2.024  -3.196  0.00  0.00    -0.100 C 
ATOM      4  C   LIG    1       -6.575   3.216  -3.512  0.00  0.00    +0.060 C 
ATOM      5  C   LIG    1       -5.363   2.967  -2.585  0.00  0.00    +0.240 C 
ATOM      6  N   LIG    1       -5.368   1.540  -2.229  0.00  0.00    -0.640 N 
ATOM      7  C   LIG    1       -4.479   0.930  -1.420  0.00  0.00    +0.730 C 
ATOM      8  N   LIG    1       -3.479   1.640  -0.861  0.00  0.00    -0.730 N 
ATOM      9  H   LIG    1       -3.399   2.590  -1.041  0.00  0.00    +0.390 HD
ATOM     10  O   LIG    1       -4.580  -0.260  -1.194  0.00  0.00    -0.580 OA
ATOM     11  C   LIG    1       -6.503   0.883  -2.909  0.00  0.00    +0.300 C 
ATOM     12  C   LIG    1       -8.587   1.729  -4.214  0.00  0.00    +0.040 C 
ENDROOT
BRANCH   1  13
ATOM     13  O   LIG    1      -10.821   1.825  -3.127  0.00  0.00    -0.370 OA
BRANCH  13  15
ATOM     14  C   LIG    1      -13.185   1.401  -3.400  0.00  0.00    +0.040 C 
ATOM     15  C   LIG    1      -11.788   0.785  -3.288  0.00  0.00    +0.160 C 
ENDBRANCH  13  15
ENDBRANCH   1  13
BRANCH   8  16
ATOM     16  C   LIG    1       -2.513   0.977   0.019  0.00  0.00    +0.340 C 
BRANCH  16  17
ATOM     17  C   LIG    1       -1.220   1.750   0.017  0.00  0.00    -0.130 A 
ATOM     18  C   LIG    1       -0.013   1.076   0.008  0.00  0.00    +0.070 A 
ATOM     19  C   LIG    1        1.175   1.782   0.000  0.00  0.00    -0.020 A 
ATOM     20  C   LIG    1        1.155   3.169   0.008  0.00  0.00    +0.130 A 
ATOM     21  C   LIG    1       -0.057   3.844   0.023  0.00  0.00    -0.070 A 
ATOM     22  C   LIG    1       -1.242   3.133   0.031  0.00  0.00    +0.050 A 
BRANCH  20  23
ATOM     23  O   LIG    1        2.322   3.866   0.000  0.00  0.00    -0.320 OA
ATOM     24  C   LIG    1        2.225   5.292   0.009  0.00  0.00    +0.250 C 
ENDBRANCH  20  23
ENDBRANCH  16  17
BRANCH  16  25
ATOM     25  C   LIG    1       -3.073   0.922   1.442  0.00  0.00    -0.070 C 
ATOM     26  C   LIG    1       -3.079  -0.435   2.147  0.00  0.00    +0.020 C 
ATOM     27  C   LIG    1       -4.392   0.176   1.654  0.00  0.00    +0.030 C 
ENDBRANCH  16  25
ENDBRANCH   8  16
TORSDOF 6
