REMARK  Name = ZINCvU0000000C1D.0
REMARK                            x       y       z     vdW  Elec       q    Type
REMARK                         _______ _______ _______ _____ _____    ______ ____
ROOT
ATOM      1  O   LIG    1       -3.635   3.567  -0.058  0.00  0.00    -0.540 OA
ATOM      2  C   LIG    1       -2.589   4.183   0.037  0.00  0.00    +0.550 C 
ATOM      3  N   LIG    1       -2.606   5.526   0.146  0.00  0.00    -0.610 N 
ATOM      4  C   LIG    1       -1.352   6.292   0.152  0.00  0.00    +0.290 C 
ATOM      5  C   LIG    1       -1.431   7.366  -0.944  0.00  0.00    +0.060 C 
ATOM      6  C   LIG    1       -2.691   8.201  -0.744  0.00  0.00    +0.100 C 
ATOM      7  C   LIG    1       -2.760   9.318  -1.798  0.00  0.00    +0.260 C 
ATOM      8  N   LIG    1       -2.741  10.552  -0.997  0.00  0.00    -0.630 N 
ATOM      9  C   LIG    1       -2.674  10.225   0.302  0.00  0.00    +0.640 C 
ATOM     10  O   LIG    1       -2.644  11.050   1.193  0.00  0.00    -0.510 OA
ATOM     11  C   LIG    1       -3.938   7.326  -0.824  0.00  0.00    +0.060 C 
ATOM     12  O   LIG    1       -2.642   8.905   0.526  0.00  0.00    -0.310 OA
ATOM     13  C   LIG    1       -3.878   6.252   0.268  0.00  0.00    +0.290 C 
ENDROOT
BRANCH   2  14
ATOM     14  C   LIG    1       -1.314   3.464   0.032  0.00  0.00    -0.090 C 
ATOM     15  C   LIG    1       -1.300   2.116   0.025  0.00  0.00    +0.130 C 
BRANCH  15  16
ATOM     16  C   LIG    1       -0.018   1.394   0.020  0.00  0.00    -0.070 A 
ATOM     17  C   LIG    1        1.188   2.102   0.017  0.00  0.00    +0.050 A 
ATOM     18  C   LIG    1        2.385   1.419   0.006  0.00  0.00    +0.030 A 
ATOM     19  C   LIG    1        2.396   0.034  -0.002  0.00  0.00    -0.020 A 
ATOM     20  C   LIG    1        1.205  -0.675   0.001  0.00  0.00    +0.030 A 
ATOM     21 CL   LIG    1        3.908  -0.818  -0.015  0.00  0.00    -0.060 Cl
ATOM     22  C   LIG    1        0.001  -0.005   0.012  0.00  0.00    +0.060 A 
ENDBRANCH  15  16
ENDBRANCH   2  14
BRANCH   8  23
ATOM     23  C   LIG    1       -2.789  11.916  -1.531  0.00  0.00    +0.390 C 
BRANCH  23  24
ATOM     24  C   LIG    1       -4.224  12.361  -1.646  0.00  0.00    -0.100 A 
ATOM     25  C   LIG    1       -4.926  12.132  -2.815  0.00  0.00    +0.050 A 
ATOM     26  C   LIG    1       -6.244  12.535  -2.921  0.00  0.00    +0.050 A 
ATOM     27  C   LIG    1       -6.858  13.177  -1.860  0.00  0.00    -0.020 A 
ATOM     28  C   LIG    1       -6.153  13.411  -0.692  0.00  0.00    -0.030 A 
ATOM     29 CL   LIG    1       -6.921  14.217   0.640  0.00  0.00    -0.040 Cl
ATOM     30 CL   LIG    1       -8.511  13.690  -1.995  0.00  0.00    -0.040 Cl
ATOM     31  C   LIG    1       -4.836  13.002  -0.586  0.00  0.00    +0.080 A 
ENDBRANCH  23  24
ENDBRANCH   8  23
TORSDOF 4
