REMARK  Name = ZINCpe00000MIsfV.2
REMARK                            x       y       z     vdW  Elec       q    Type
REMARK                         _______ _______ _______ _____ _____    ______ ____
ROOT
ATOM      1  C   LIG    1        1.383   3.482   0.145  0.00  0.00    +0.130 C 
ATOM      2  C   LIG    1        2.529   4.064  -0.720  0.00  0.00    +0.030 C 
ATOM      3  C   LIG    1        2.527   3.098  -1.934  0.00  0.00    +0.010 C 
ATOM      4  C   LIG    1        2.177   1.737  -1.294  0.00  0.00    +0.190 C 
ATOM      5  N   LIG    1        1.492   2.017  -0.019  0.00  0.00    -0.500 NA
ENDROOT
BRANCH   1  12
ATOM      6  C   LIG    1        0.885   7.681   1.586  0.00  0.00    +0.090 C 
ATOM      7  C   LIG    1        0.672   6.200   1.404  0.00  0.00    +0.530 C 
ATOM      8  N   LIG    1        1.648   5.333   1.738  0.00  0.00    -0.610 N 
ATOM      9  C   LIG    1        2.967   5.694   2.289  0.00  0.00    +0.250 C 
ATOM     10  C   LIG    1        3.437   4.432   3.054  0.00  0.00    +0.020 C 
ATOM     11  C   LIG    1        2.908   3.297   2.137  0.00  0.00    +0.050 C 
ATOM     12  C   LIG    1        1.574   3.870   1.613  0.00  0.00    +0.220 C 
ATOM     13  O   LIG    1       -0.378   5.789   0.957  0.00  0.00    -0.550 OA
ENDBRANCH   1  12
BRANCH   5  14
ATOM     14  C   LIG    1        0.168   1.383   0.018  0.00  0.00    +0.190 C 
BRANCH  14  15
ATOM     15  C   LIG    1        0.326  -0.095   0.268  0.00  0.00    +0.520 C 
ATOM     16  N   LIG    1       -0.763  -0.886   0.342  0.00  0.00    -0.620 N 
ATOM     17  C   LIG    1       -2.100  -0.309   0.180  0.00  0.00    +0.280 C 
ATOM     18  O   LIG    1        1.432  -0.573   0.402  0.00  0.00    -0.510 OA
BRANCH  16  19
ATOM     19  C   LIG    1       -0.610  -2.322   0.585  0.00  0.00    +0.370 C 
BRANCH  19  20
ATOM     20  C   LIG    1       -0.628  -2.586   2.068  0.00  0.00    -0.260 A 
ATOM     21  C   LIG    1       -1.725  -2.847   2.817  0.00  0.00    +0.240 A 
ATOM     22  N   LIG    1       -1.320  -3.023   4.092  0.00  0.00    -0.380 N 
ATOM     23  N   LIG    1        0.071  -2.866   4.128  0.00  0.00    -0.300 NA
ATOM     24  C   LIG    1       -2.183  -3.327   5.236  0.00  0.00    +0.360 C 
ATOM     25  C   LIG    1        0.485  -2.610   2.914  0.00  0.00    +0.250 A 
ENDBRANCH  19  20
ENDBRANCH  16  19
ENDBRANCH  14  15
ENDBRANCH   5  14
TORSDOF 5
