REMARK  Name = ZINCpk00000xNapO.0
REMARK                            x       y       z     vdW  Elec       q    Type
REMARK                         _______ _______ _______ _____ _____    ______ ____
ROOT
ATOM      1  C   LIG    1       -2.372   4.494  -2.470  0.00  0.00    +0.570 C 
ATOM      2  N   LIG    1       -2.315   3.182  -2.169  0.00  0.00    -0.600 N 
ATOM      3  C   LIG    1       -2.873   2.179  -3.086  0.00  0.00    +0.260 C 
ATOM      4  C   LIG    1       -3.856   1.295  -2.312  0.00  0.00    +0.030 C 
ATOM      5  C   LIG    1       -3.151   0.705  -1.089  0.00  0.00    +0.040 C 
ATOM      6  C   LIG    1       -2.691   1.837  -0.168  0.00  0.00    +0.140 C 
ATOM      7  C   LIG    1       -1.694   2.727  -0.917  0.00  0.00    +0.270 C 
ATOM      8  O   LIG    1       -2.006   5.321  -1.656  0.00  0.00    -0.510 OA
ENDROOT
BRANCH   1  14
ATOM      9  C   LIG    1       -2.197   4.261  -7.447  0.00  0.00    +0.100 C 
ATOM     10  C   LIG    1       -2.799   4.820  -6.183  0.00  0.00    -0.120 A 
ATOM     11  C   LIG    1       -3.829   5.744  -6.261  0.00  0.00    +0.060 A 
ATOM     12  C   LIG    1       -4.388   6.264  -5.112  0.00  0.00    -0.040 A 
ATOM     13  C   LIG    1       -3.925   5.859  -3.866  0.00  0.00    +0.150 A 
ATOM     14  C   LIG    1       -2.877   4.928  -3.785  0.00  0.00    -0.150 A 
ATOM     15  C   LIG    1       -2.321   4.410  -4.957  0.00  0.00    +0.060 A 
BRANCH  13  16
ATOM     16  N   LIG    1       -4.491   6.377  -2.709  0.00  0.00    -0.460 N 
ATOM     17  C   LIG    1       -5.669   7.223  -3.025  0.00  0.00    +0.180 C 
ATOM     18  C   LIG    1       -6.448   7.262  -1.686  0.00  0.00    +0.040 C 
ATOM     19  C   LIG    1       -6.256   5.831  -1.133  0.00  0.00    +0.020 C 
ATOM     20  C   LIG    1       -4.994   5.294  -1.835  0.00  0.00    +0.190 C 
ENDBRANCH  13  16
ENDBRANCH   1  14
BRANCH   6  21
ATOM     21  O   LIG    1       -3.820   2.616   0.232  0.00  0.00    -0.550 OA
ATOM     22  H   LIG    1       -3.601   3.354   0.818  0.00  0.00    +0.390 HD
ENDBRANCH   6  21
BRANCH   6  23
ATOM     23  C   LIG    1       -2.015   1.245   1.071  0.00  0.00    +0.050 C 
BRANCH  23  24
ATOM     24  C   LIG    1       -1.560   2.360   1.977  0.00  0.00    +0.520 C 
ATOM     25  O   LIG    1       -1.757   3.515   1.663  0.00  0.00    -0.530 OA
ATOM     26  N   LIG    1       -0.935   2.074   3.136  0.00  0.00    -0.850 N 
ATOM     27  H   LIG    1       -0.642   2.792   3.719  0.00  0.00    +0.400 HD
ATOM     28  H   LIG    1       -0.777   1.150   3.387  0.00  0.00    +0.400 HD
ENDBRANCH  23  24
ENDBRANCH   6  23
TORSDOF 5
