REMARK  Name = ZINCtV00000L6jmO.0
REMARK                            x       y       z     vdW  Elec       q    Type
REMARK                         _______ _______ _______ _____ _____    ______ ____
ROOT
ATOM      1  P   LIG    1       -1.644  -1.161  -1.494  0.00  0.00    +2.290 P 
ATOM      2  O   LIG    1       -2.870  -1.928  -1.179  0.00  0.00    -0.990 OA
ENDROOT
BRANCH   1   3
ATOM      3  O   LIG    1       -0.657  -2.069  -2.385  0.00  0.00    -0.710 OA
BRANCH   3   4
ATOM      4  C   LIG    1       -0.211  -3.364  -1.978  0.00  0.00    +0.290 C 
BRANCH   4   9
ATOM      5  C   LIG    1        5.554  -3.384  -1.594  0.00  0.00    +0.100 C 
ATOM      6  C   LIG    1        4.051  -3.380  -1.695  0.00  0.00    -0.060 A 
ATOM      7  C   LIG    1        3.297  -4.127  -0.809  0.00  0.00    +0.010 A 
ATOM      8  C   LIG    1        1.917  -4.122  -0.901  0.00  0.00    +0.050 A 
ATOM      9  C   LIG    1        1.292  -3.369  -1.878  0.00  0.00    -0.150 A 
ATOM     10  C   LIG    1        2.047  -2.626  -2.767  0.00  0.00    +0.060 A 
ATOM     11  C   LIG    1        3.426  -2.628  -2.672  0.00  0.00    +0.000 A 
ENDBRANCH   4   9
BRANCH   4  12
ATOM     12  C   LIG    1       -0.658  -4.404  -3.008  0.00  0.00    +0.450 C 
ATOM     13  F   LIG    1       -2.054  -4.399  -3.101  0.00  0.00    -0.160 F 
ATOM     14  F   LIG    1       -0.221  -5.672  -2.610  0.00  0.00    -0.170 F 
ATOM     15  F   LIG    1       -0.106  -4.091  -4.255  0.00  0.00    -0.170 F 
ENDBRANCH   4  12
ENDBRANCH   3   4
ENDBRANCH   1   3
BRANCH   1  16
ATOM     16  O   LIG    1       -2.038   0.168  -2.313  0.00  0.00    -0.620 OA
BRANCH  16  17
ATOM     17  C   LIG    1       -2.753  -0.072  -3.443  0.00  0.00    +0.080 A 
ATOM     18  C   LIG    1       -2.098  -0.301  -4.645  0.00  0.00    -0.010 A 
ATOM     19  C   LIG    1       -2.828  -0.549  -5.792  0.00  0.00    +0.040 A 
ATOM     20  C   LIG    1       -4.210  -0.559  -5.745  0.00  0.00    +0.020 A 
ATOM     21  C   LIG    1       -4.865  -0.326  -4.550  0.00  0.00    +0.040 A 
ATOM     22  C   LIG    1       -4.140  -0.083  -3.399  0.00  0.00    +0.030 A 
ENDBRANCH  16  17
ENDBRANCH   1  16
BRANCH   1  23
ATOM     23  O   LIG    1       -0.903  -0.748  -0.125  0.00  0.00    -0.630 OA
BRANCH  23  24
ATOM     24  C   LIG    1       -1.689  -0.055   0.741  0.00  0.00    +0.080 A 
ATOM     25  C   LIG    1       -2.425  -0.730   1.704  0.00  0.00    +0.030 A 
ATOM     26  C   LIG    1       -3.222  -0.024   2.584  0.00  0.00    +0.040 A 
ATOM     27  C   LIG    1       -3.287   1.355   2.505  0.00  0.00    +0.020 A 
ATOM     28  C   LIG    1       -2.555   2.030   1.546  0.00  0.00    +0.040 A 
ATOM     29  C   LIG    1       -1.756   1.329   0.664  0.00  0.00    -0.010 A 
ENDBRANCH  23  24
ENDBRANCH   1  23
TORSDOF 8
