REMARK  Name = ZINCpe000000YeIV.0
REMARK                            x       y       z     vdW  Elec       q    Type
REMARK                         _______ _______ _______ _____ _____    ______ ____
ROOT
ATOM      1  N   LIG    1       -5.887   1.687  -1.044  0.00  0.00    -0.690 N 
ATOM      2  H   LIG    1       -5.990   2.313  -0.310  0.00  0.00    +0.410 HD
ENDROOT
BRANCH   1   7
ATOM      3  C   LIG    1      -10.450  -0.415  -3.462  0.00  0.00    +0.350 C 
ATOM      4  N   LIG    1       -9.233   0.118  -2.845  0.00  0.00    -0.560 N 
ATOM      5  C   LIG    1       -8.031  -0.360  -3.224  0.00  0.00    +0.590 A 
ATOM      6  C   LIG    1       -6.855   0.161  -2.621  0.00  0.00    -0.320 A 
ATOM      7  C   LIG    1       -6.989   1.159  -1.649  0.00  0.00    +0.540 A 
ATOM      8  N   LIG    1       -8.242   1.592  -1.310  0.00  0.00    -0.540 N 
ATOM      9  C   LIG    1       -8.399   2.632  -0.290  0.00  0.00    +0.360 C 
ATOM     10  O   LIG    1       -7.954  -1.228  -4.073  0.00  0.00    -0.510 OA
ATOM     11  C   LIG    1       -9.330   1.077  -1.908  0.00  0.00    +0.710 A 
ATOM     12  O   LIG    1      -10.430   1.485  -1.590  0.00  0.00    -0.520 OA
BRANCH   6  13
ATOM     13  C   LIG    1       -5.561  -0.323  -3.000  0.00  0.00    +0.300 C 
ATOM     14  N   LIG    1       -4.536  -0.707  -3.300  0.00  0.00    -0.440 NA
ENDBRANCH   6  13
ENDBRANCH   1   7
BRANCH   1  15
ATOM     15  C   LIG    1       -4.548   1.310  -1.502  0.00  0.00    +0.290 C 
BRANCH  15  16
ATOM     16  C   LIG    1       -3.500   2.133  -0.749  0.00  0.00    -0.010 C 
ATOM     17  C   LIG    1       -3.488   1.761   0.751  0.00  0.00    +0.020 C 
ATOM     18  C   LIG    1       -2.001   1.756   1.152  0.00  0.00    +0.180 C 
ATOM     19  N   LIG    1       -1.226   2.134  -0.050  0.00  0.00    -0.480 N 
ATOM     20  C   LIG    1       -2.070   1.755  -1.212  0.00  0.00    +0.200 C 
BRANCH  19  21
ATOM     21  C   LIG    1        0.001   1.469  -0.084  0.00  0.00    +0.070 A 
ATOM     22  C   LIG    1        1.186   2.193  -0.098  0.00  0.00    +0.040 A 
ATOM     23  C   LIG    1        2.398   1.532  -0.138  0.00  0.00    +0.020 A 
ATOM     24  C   LIG    1        2.432   0.150  -0.164  0.00  0.00    +0.000 A 
ATOM     25  C   LIG    1        1.255  -0.575  -0.150  0.00  0.00    +0.010 A 
ATOM     26  C   LIG    1        0.040   0.080  -0.110  0.00  0.00    -0.030 A 
ENDBRANCH  19  21
ENDBRANCH  15  16
ENDBRANCH   1  15
TORSDOF 5
