REMARK  Name = ZINCpk00000eb5U9.0
REMARK                            x       y       z     vdW  Elec       q    Type
REMARK                         _______ _______ _______ _____ _____    ______ ____
ROOT
ATOM      1  C   LIG    1       -1.488   4.044   4.902  0.00  0.00    +0.170 C 
ATOM      2  C   LIG    1       -1.406   4.405   6.388  0.00  0.00    +0.170 C 
ATOM      3  N   LIG    1       -1.881   5.783   6.579  0.00  0.00    -0.520 NA
ATOM      4  C   LIG    1       -1.078   6.726   5.786  0.00  0.00    +0.160 C 
ATOM      5  C   LIG    1       -1.163   6.341   4.307  0.00  0.00    +0.230 C 
ATOM      6  O   LIG    1       -0.727   4.989   4.145  0.00  0.00    -0.380 OA
ENDROOT
BRANCH   1   7
ATOM      7  C   LIG    1       -0.920   2.640   4.686  0.00  0.00    +0.350 C 
BRANCH   7  11
ATOM      8  C   LIG    1       -0.013   1.086   0.008  0.00  0.00    +0.110 C 
ATOM      9  C   LIG    1       -0.718   1.572   1.248  0.00  0.00    -0.240 A 
ATOM     10  C   LIG    1       -0.138   1.839   2.441  0.00  0.00    +0.230 A 
ATOM     11  N   LIG    1       -1.107   2.248   3.287  0.00  0.00    -0.370 N 
ATOM     12  N   LIG    1       -2.322   2.232   2.591  0.00  0.00    -0.290 NA
ATOM     13  C   LIG    1       -2.087   1.833   1.367  0.00  0.00    +0.230 A 
ENDBRANCH   7  11
ENDBRANCH   1   7
BRANCH   3  14
ATOM     14  C   LIG    1       -1.873   6.151   8.001  0.00  0.00    +0.220 C 
BRANCH  14  15
ATOM     15  C   LIG    1       -2.589   7.464   8.185  0.00  0.00    +0.520 C 
ATOM     16  N   LIG    1       -2.706   8.002   9.415  0.00  0.00    -0.620 N 
ATOM     17  C   LIG    1       -2.137   7.309  10.574  0.00  0.00    +0.280 C 
ATOM     18  O   LIG    1       -3.059   8.037   7.225  0.00  0.00    -0.510 OA
BRANCH  16  19
ATOM     19  C   LIG    1       -3.401   9.278   9.594  0.00  0.00    +0.410 C 
BRANCH  19  20
ATOM     20  C   LIG    1       -4.866   9.022   9.842  0.00  0.00    -0.040 A 
ATOM     21  C   LIG    1       -5.440   8.842  11.044  0.00  0.00    -0.040 A 
ATOM     22  C   LIG    1       -6.819   8.634  10.813  0.00  0.00    -0.070 A 
ATOM     23  C   LIG    1       -7.005   8.700   9.482  0.00  0.00    -0.000 A 
ATOM     24  C   LIG    1       -8.322   8.536   8.767  0.00  0.00    +0.170 C 
ATOM     25  O   LIG    1       -5.819   8.941   8.899  0.00  0.00    -0.160 OA
ENDBRANCH  19  20
ENDBRANCH  16  19
ENDBRANCH  14  15
ENDBRANCH   3  14
TORSDOF 6
