REMARK  Name = ZINCkj000005fYio.0
REMARK                            x       y       z     vdW  Elec       q    Type
REMARK                         _______ _______ _______ _____ _____    ______ ____
ROOT
ATOM      1  C   LIG    1       -0.882   2.183   0.468  0.00  0.00    -0.130 A 
ATOM      2  C   LIG    1        0.334   1.638   0.880  0.00  0.00    +0.060 A 
ATOM      3  C   LIG    1        1.388   2.470   1.198  0.00  0.00    +0.060 A 
ATOM      4  C   LIG    1        1.238   3.843   1.114  0.00  0.00    -0.080 A 
ATOM      5  C   LIG    1        0.033   4.390   0.713  0.00  0.00    +0.030 A 
ATOM      6  C   LIG    1       -1.029   3.569   0.392  0.00  0.00    +0.030 A 
ENDROOT
BRANCH   1   8
ATOM      7  N   LIG    1       -3.248   1.564   0.589  0.00  0.00    -0.610 N 
ATOM      8  C   LIG    1       -2.014   1.297   0.119  0.00  0.00    +0.570 C 
ATOM      9  O   LIG    1       -1.830   0.328  -0.591  0.00  0.00    -0.520 OA
BRANCH   7  11
ATOM     10  C   LIG    1       -4.080   3.857   0.401  0.00  0.00    +0.030 C 
ATOM     11  C   LIG    1       -3.496   2.798   1.339  0.00  0.00    +0.270 C 
ENDBRANCH   7  11
BRANCH   7  12
ATOM     12  C   LIG    1       -4.343   0.621   0.349  0.00  0.00    +0.300 C 
BRANCH  12  13
ATOM     13  C   LIG    1       -4.404  -0.391   1.495  0.00  0.00    +0.250 C 
BRANCH  13  14
ATOM     14  N   LIG    1       -5.502  -1.337   1.255  0.00  0.00    -0.630 N 
ATOM     15  H   LIG    1       -6.375  -0.834   1.204  0.00  0.00    +0.440 HD
ATOM     16  H   LIG    1       -5.542  -2.005   2.011  0.00  0.00    +0.440 HD
ATOM     17  H   LIG    1       -5.343  -1.823   0.386  0.00  0.00    +0.440 HD
ENDBRANCH  13  14
ENDBRANCH  12  13
ENDBRANCH   7  12
ENDBRANCH   1   8
BRANCH   4  18
ATOM     18  C   LIG    1        2.393   4.746   1.463  0.00  0.00    +0.380 C 
BRANCH  18  19
ATOM     19  N   LIG    1        3.191   5.005   0.261  0.00  0.00    -0.380 N 
ATOM     20  C   LIG    1        3.502   6.219  -0.238  0.00  0.00    +0.220 A 
ATOM     21  C   LIG    1        4.251   6.028  -1.349  0.00  0.00    -0.120 A 
ATOM     22  C   LIG    1        4.394   4.650  -1.540  0.00  0.00    +0.230 A 
ATOM     23  N   LIG    1        3.759   4.035  -0.575  0.00  0.00    -0.290 NA
ENDBRANCH  18  19
ENDBRANCH   4  18
TORSDOF 7
