REMARK  Name = ZINCnE000001GLOh.1
REMARK                            x       y       z     vdW  Elec       q    Type
REMARK                         _______ _______ _______ _____ _____    ______ ____
ROOT
ATOM      1  S   LIG    1        2.712   0.920  -0.019  0.00  0.00    +2.620 S 
ATOM      2  O   LIG    1        2.455  -0.369   0.521  0.00  0.00    -1.020 OA
ATOM      3  O   LIG    1        3.679   1.811   0.521  0.00  0.00    -1.020 OA
ENDROOT
BRANCH   1   7
ATOM      4  C   LIG    1       -1.237   3.137   0.031  0.00  0.00    +0.170 A 
ATOM      5  C   LIG    1       -1.218   1.750   0.017  0.00  0.00    -0.100 A 
ATOM      6  C   LIG    1       -0.013   1.076   0.008  0.00  0.00    +0.160 A 
ATOM      7  C   LIG    1        1.176   1.783   0.000  0.00  0.00    -0.660 A 
ATOM      8  C   LIG    1        1.160   3.165   0.007  0.00  0.00    +0.160 A 
ATOM      9  C   LIG    1       -0.043   3.844   0.023  0.00  0.00    -0.040 A 
BRANCH   4  10
ATOM     10  O   LIG    1       -2.422   3.802   0.045  0.00  0.00    -0.310 OA
BRANCH  10  12
ATOM     11  C   LIG    1       -4.835   3.926   0.069  0.00  0.00    +0.070 C 
ATOM     12  C   LIG    1       -3.611   3.009   0.053  0.00  0.00    +0.170 C 
ENDBRANCH  10  12
ENDBRANCH   4  10
ENDBRANCH   1   7
BRANCH   1  13
ATOM     13  N   LIG    1        3.124   0.689  -1.606  0.00  0.00    -1.080 NA
BRANCH  13  14
ATOM     14  C   LIG    1        4.310   0.024  -1.930  0.00  0.00    +0.290 A 
ATOM     15  C   LIG    1        5.143  -0.444  -0.922  0.00  0.00    -0.100 A 
ATOM     16  C   LIG    1        6.314  -1.101  -1.245  0.00  0.00    +0.090 A 
ATOM     17  C   LIG    1        6.657  -1.294  -2.572  0.00  0.00    -0.090 A 
ATOM     18  C   LIG    1        5.829  -0.829  -3.578  0.00  0.00    +0.010 A 
ATOM     19 CL   LIG    1        8.130  -2.120  -2.974  0.00  0.00    -0.050 Cl
ATOM     20  C   LIG    1        4.654  -0.176  -3.261  0.00  0.00    +0.040 A 
BRANCH  18  21
ATOM     21  N   LIG    1        6.199  -1.037  -4.996  0.00  0.00    +0.030 N 
ATOM     22  O   LIG    1        7.233  -1.617  -5.277  0.00  0.00    -0.150 OA
ATOM     23  O   LIG    1        5.470  -0.629  -5.882  0.00  0.00    -0.180 OA
ENDBRANCH  18  21
ENDBRANCH  13  14
ENDBRANCH   1  13
TORSDOF 6
