REMARK  Name = ZINCnE000001D5PV.0
REMARK                            x       y       z     vdW  Elec       q    Type
REMARK                         _______ _______ _______ _____ _____    ______ ____
ROOT
ATOM      1  C   LIG    1       -0.732   7.016   2.338  0.00  0.00    +0.090 C 
ENDROOT
BRANCH   1   2
ATOM      2  C   LIG    1       -0.270   6.069   1.261  0.00  0.00    +0.530 C 
ATOM      3  N   LIG    1       -0.909   4.896   1.075  0.00  0.00    -0.700 N 
ATOM      4  H   LIG    1       -1.666   4.663   1.634  0.00  0.00    +0.420 HD
ATOM      5  O   LIG    1        0.676   6.361   0.561  0.00  0.00    -0.540 OA
BRANCH   3   6
ATOM      6  C   LIG    1       -0.460   3.976   0.027  0.00  0.00    +0.280 C 
BRANCH   6   7
ATOM      7  C   LIG    1       -1.349   2.730   0.028  0.00  0.00    -0.170 C 
ATOM      8  C   LIG    1       -0.959   1.695  -1.040  0.00  0.00    +0.040 C 
ATOM      9  C   LIG    1       -0.013   1.086   0.008  0.00  0.00    -0.020 C 
ATOM     10  C   LIG    1       -0.939   1.683   1.080  0.00  0.00    +0.030 C 
BRANCH   7  11
ATOM     11  C   LIG    1       -2.819   3.060   0.041  0.00  0.00    +0.510 C 
ATOM     12  O   LIG    1       -3.467   2.998  -0.990  0.00  0.00    -0.690 OA
ATOM     13  O   LIG    1       -3.361   3.389   1.083  0.00  0.00    -0.700 OA
ENDBRANCH   7  11
ENDBRANCH   6   7
ENDBRANCH   3   6
ENDBRANCH   1   2
BRANCH   1  14
ATOM     14  S   LIG    1        0.321   8.493   2.337  0.00  0.00    -0.040 S 
BRANCH  14  18
ATOM     15  C   LIG    1       -1.428  10.994   5.683  0.00  0.00    -0.080 A 
ATOM     16  C   LIG    1       -0.340  11.462   4.969  0.00  0.00    +0.020 A 
ATOM     17  C   LIG    1        0.196  10.702   3.948  0.00  0.00    +0.030 A 
ATOM     18  C   LIG    1       -0.359   9.466   3.639  0.00  0.00    -0.100 A 
ATOM     19  C   LIG    1       -1.456   9.001   4.356  0.00  0.00    -0.010 A 
ATOM     20  C   LIG    1       -1.983   9.764   5.378  0.00  0.00    +0.030 A 
BRANCH  15  22
ATOM     21  C   LIG    1       -2.484  13.168   6.235  0.00  0.00    +0.040 C 
ATOM     22  C   LIG    1       -2.010  11.826   6.796  0.00  0.00    -0.030 C 
ATOM     23  C   LIG    1       -0.942  12.069   7.864  0.00  0.00    +0.040 C 
ATOM     24  C   LIG    1       -3.196  11.087   7.420  0.00  0.00    +0.030 C 
ENDBRANCH  15  22
ENDBRANCH  14  18
ENDBRANCH   1  14
TORSDOF 7
