REMARK  Name = ZINCrg000000srvC.0
REMARK                            x       y       z     vdW  Elec       q    Type
REMARK                         _______ _______ _______ _____ _____    ______ ____
ROOT
ATOM      1  C   LIG    1        5.097   1.889  -1.338  0.00  0.00    +0.570 C 
ATOM      2  N   LIG    1        3.987   2.308  -0.698  0.00  0.00    -0.600 N 
ATOM      3  C   LIG    1        3.688   1.845   0.664  0.00  0.00    +0.300 C 
ATOM      4  C   LIG    1        2.274   1.256   0.686  0.00  0.00    +0.030 C 
ATOM      5  C   LIG    1        1.287   2.292   0.144  0.00  0.00    +0.250 C 
ATOM      6  C   LIG    1        1.646   2.632  -1.304  0.00  0.00    +0.010 C 
ATOM      7  C   LIG    1        3.053   3.237  -1.348  0.00  0.00    +0.270 C 
ATOM      8  O   LIG    1        5.899   1.180  -0.762  0.00  0.00    -0.510 OA
ENDROOT
BRANCH   1  15
ATOM      9  C   LIG    1        5.546  -0.131  -3.361  0.00  0.00    +0.170 C 
ATOM     10  C   LIG    1        5.557   1.331  -3.727  0.00  0.00    +0.230 A 
ATOM     11  N   LIG    1        5.772   1.690  -4.975  0.00  0.00    -0.470 NA
ATOM     12  C   LIG    1        5.790   2.958  -5.342  0.00  0.00    +0.390 A 
ATOM     13  C   LIG    1        5.582   3.970  -4.423  0.00  0.00    -0.110 A 
ATOM     14  C   LIG    1        5.346   3.646  -3.099  0.00  0.00    +0.190 A 
ATOM     15  C   LIG    1        5.338   2.293  -2.739  0.00  0.00    -0.180 A 
BRANCH  13  16
ATOM     16  N   LIG    1        5.606   5.387  -4.853  0.00  0.00    +0.030 N 
ATOM     17  O   LIG    1        5.422   6.273  -4.039  0.00  0.00    -0.150 OA
ATOM     18  O   LIG    1        5.810   5.665  -6.021  0.00  0.00    -0.140 OA
ENDBRANCH  13  16
ENDBRANCH   1  15
BRANCH   5  19
ATOM     19  N   LIG    1       -0.071   1.745   0.195  0.00  0.00    -0.730 N 
ATOM     20  H   LIG    1       -0.208   0.784   0.179  0.00  0.00    +0.400 HD
ATOM     21  C   LIG    1       -1.131   2.575   0.257  0.00  0.00    +0.600 C 
ATOM     22  O   LIG    1       -0.959   3.779   0.276  0.00  0.00    -0.550 OA
BRANCH  21  23
ATOM     23  C   LIG    1       -2.498   2.025   0.301  0.00  0.00    -0.300 A 
ATOM     24  C   LIG    1       -3.671   2.749   0.366  0.00  0.00    +0.320 A 
ATOM     25  N   LIG    1       -4.685   1.869   0.388  0.00  0.00    -0.360 N 
ATOM     26  N   LIG    1       -4.153   0.576   0.337  0.00  0.00    -0.290 NA
ATOM     27  C   LIG    1       -6.109   2.206   0.454  0.00  0.00    +0.360 C 
ATOM     28  C   LIG    1       -2.852   0.657   0.280  0.00  0.00    +0.270 A 
ENDBRANCH  21  23
ENDBRANCH   5  19
TORSDOF 4
