REMARK  Name = ZINCrD000000APTV.0
REMARK                            x       y       z     vdW  Elec       q    Type
REMARK                         _______ _______ _______ _____ _____    ______ ____
ROOT
ATOM      1  O   LIG    1        3.541  -4.485   1.473  0.00  0.00    -0.530 OA
ATOM      2  C   LIG    1        3.898  -3.617   0.699  0.00  0.00    +0.560 C 
ATOM      3  N   LIG    1        3.689  -2.320   0.998  0.00  0.00    -0.710 N 
ATOM      4  H   LIG    1        3.973  -1.628   0.381  0.00  0.00    +0.400 HD
ENDROOT
BRANCH   2   5
ATOM      5  C   LIG    1        4.559  -3.985  -0.566  0.00  0.00    -0.170 A 
ATOM      6  C   LIG    1        4.772  -5.327  -0.871  0.00  0.00    +0.200 A 
ATOM      7  C   LIG    1        5.406  -5.666  -2.084  0.00  0.00    -0.090 A 
ATOM      8  C   LIG    1        5.641  -7.006  -2.430  0.00  0.00    +0.040 A 
ATOM      9  C   LIG    1        6.255  -7.300  -3.610  0.00  0.00    +0.010 A 
ATOM     10  C   LIG    1        6.654  -6.290  -4.480  0.00  0.00    +0.030 A 
ATOM     11  C   LIG    1        6.442  -4.979  -4.176  0.00  0.00    +0.010 A 
ATOM     12  C   LIG    1        5.812  -4.637  -2.969  0.00  0.00    -0.020 A 
ATOM     13  C   LIG    1        5.579  -3.290  -2.628  0.00  0.00    +0.010 A 
ATOM     14  C   LIG    1        4.965  -2.978  -1.461  0.00  0.00    +0.050 A 
BRANCH   6  15
ATOM     15  O   LIG    1        4.377  -6.296  -0.011  0.00  0.00    -0.470 OA
ATOM     16  H   LIG    1        3.476  -6.612  -0.161  0.00  0.00    +0.400 HD
ENDBRANCH   6  15
ENDBRANCH   2   5
BRANCH   3  17
ATOM     17  C   LIG    1        3.031  -1.955   2.255  0.00  0.00    +0.280 C 
BRANCH  17  18
ATOM     18  C   LIG    1        2.918  -0.432   2.348  0.00  0.00    +0.100 C 
ATOM     19  C   LIG    1        2.232  -0.050   3.661  0.00  0.00    +0.000 C 
ATOM     20  C   LIG    1        3.057  -0.573   4.838  0.00  0.00    +0.020 C 
ATOM     21  C   LIG    1        4.456   0.047   4.795  0.00  0.00    +0.000 C 
ATOM     22  C   LIG    1        5.142  -0.335   3.482  0.00  0.00    +0.020 C 
ATOM     23  C   LIG    1        4.316   0.188   2.305  0.00  0.00    +0.030 C 
BRANCH  18  24
ATOM     24  N   LIG    1        2.125   0.070   1.217  0.00  0.00    -0.520 NA
ATOM     25  C   LIG    1        0.772  -0.505   1.227  0.00  0.00    +0.150 C 
ATOM     26  C   LIG    1        0.002  -0.004   0.002  0.00  0.00    +0.220 C 
ATOM     27  O   LIG    1       -0.017   1.426   0.010  0.00  0.00    -0.380 OA
ATOM     28  C   LIG    1        1.284   2.019   0.001  0.00  0.00    +0.220 C 
ATOM     29  C   LIG    1        2.067   1.539   1.225  0.00  0.00    +0.150 C 
ENDBRANCH  18  24
ENDBRANCH  17  18
ENDBRANCH   3  17
TORSDOF 5
