REMARK  Name = ZINCpe000000YBhJ.0
REMARK                            x       y       z     vdW  Elec       q    Type
REMARK                         _______ _______ _______ _____ _____    ______ ____
ROOT
ATOM      1  N   LIG    1        4.663  -0.026   0.843  0.00  0.00    -0.700 N 
ATOM      2  H   LIG    1        4.556   0.919   1.034  0.00  0.00    +0.410 HD
ATOM      3  C   LIG    1        5.686  -0.713   1.390  0.00  0.00    +0.520 C 
ATOM      4  O   LIG    1        5.818  -1.895   1.151  0.00  0.00    -0.530 OA
ENDROOT
BRANCH   1   5
ATOM      5  C   LIG    1        3.711  -0.707  -0.038  0.00  0.00    +0.300 C 
BRANCH   5   6
ATOM      6  C   LIG    1        2.396   0.029  -0.022  0.00  0.00    -0.100 A 
ATOM      7  C   LIG    1        1.208  -0.679  -0.013  0.00  0.00    +0.030 A 
ATOM      8  C   LIG    1        0.002  -0.004   0.002  0.00  0.00    +0.020 A 
ATOM      9  C   LIG    1       -0.017   1.378   0.010  0.00  0.00    +0.020 A 
ATOM     10  C   LIG    1        1.171   2.086   0.002  0.00  0.00    +0.020 A 
ATOM     11  C   LIG    1        2.377   1.411  -0.015  0.00  0.00    +0.010 A 
ENDBRANCH   5   6
BRANCH   5  15
ATOM     12  N   LIG    1        3.546  -1.310  -2.432  0.00  0.00    -0.850 N 
ATOM     13  H   LIG    1        3.897  -1.325  -3.336  0.00  0.00    +0.410 HD
ATOM     14  H   LIG    1        2.685  -1.712  -2.239  0.00  0.00    +0.400 HD
ATOM     15  C   LIG    1        4.256  -0.730  -1.443  0.00  0.00    +0.510 C 
ATOM     16  O   LIG    1        5.333  -0.228  -1.684  0.00  0.00    -0.530 OA
ENDBRANCH   5  15
ENDBRANCH   1   5
BRANCH   3  17
ATOM     17  C   LIG    1        6.664  -0.013   2.296  0.00  0.00    +0.320 C 
BRANCH  17  18
ATOM     18  N   LIG    1        7.674  -0.969   2.757  0.00  0.00    -0.740 N 
ATOM     19  H   LIG    1        7.634  -1.894   2.466  0.00  0.00    +0.410 HD
ATOM     20  C   LIG    1        8.658  -0.564   3.584  0.00  0.00    +0.710 C 
ATOM     21  N   LIG    1        9.587  -1.444   4.007  0.00  0.00    -0.740 N 
ATOM     22  H   LIG    1        9.547  -2.369   3.717  0.00  0.00    +0.400 HD
ATOM     23  O   LIG    1        8.708   0.595   3.948  0.00  0.00    -0.590 OA
BRANCH  21  24
ATOM     24  C   LIG    1       10.657  -1.004   4.907  0.00  0.00    +0.340 C 
BRANCH  24  25
ATOM     25  C   LIG    1       11.555  -2.171   5.227  0.00  0.00    -0.110 A 
ATOM     26  C   LIG    1       11.287  -2.970   6.322  0.00  0.00    +0.020 A 
ATOM     27  C   LIG    1       12.108  -4.043   6.613  0.00  0.00    +0.000 A 
ATOM     28  C   LIG    1       13.204  -4.311   5.815  0.00  0.00    +0.010 A 
ATOM     29  C   LIG    1       13.476  -3.508   4.723  0.00  0.00    +0.000 A 
ATOM     30  C   LIG    1       12.652  -2.438   4.429  0.00  0.00    +0.020 A 
ENDBRANCH  24  25
ENDBRANCH  21  24
ENDBRANCH  17  18
ENDBRANCH   3  17
TORSDOF 7
