REMARK  Name = ZINCvU0000000DFK.0
REMARK                            x       y       z     vdW  Elec       q    Type
REMARK                         _______ _______ _______ _____ _____    ______ ____
ROOT
ATOM      1  N   LIG    1        1.920  -3.857   2.480  0.00  0.00    -0.520 N 
ATOM      2  C   LIG    1        1.723  -2.524   2.453  0.00  0.00    +0.510 C 
ATOM      3  O   LIG    1        2.426  -1.793   3.118  0.00  0.00    -0.440 OA
ENDROOT
BRANCH   1   7
ATOM      4  C   LIG    1        4.459  -4.418   4.908  0.00  0.00    +0.130 A 
ATOM      5  C   LIG    1        4.440  -5.750   4.723  0.00  0.00    -0.230 A 
ATOM      6  S   LIG    1        3.230  -6.118   3.495  0.00  0.00    +0.070 S 
ATOM      7  C   LIG    1        2.865  -4.402   3.341  0.00  0.00    +0.310 A 
ATOM      8  C   LIG    1        5.300  -6.755   5.444  0.00  0.00    +0.160 C 
ATOM      9  N   LIG    1        3.611  -3.728   4.159  0.00  0.00    -0.460 NA
BRANCH   4  13
ATOM     10  C   LIG    1        7.063  -2.549   7.705  0.00  0.00    +0.140 A 
ATOM     11  C   LIG    1        6.756  -1.911   6.510  0.00  0.00    -0.020 A 
ATOM     12  C   LIG    1        5.912  -2.515   5.601  0.00  0.00    +0.100 A 
ATOM     13  C   LIG    1        5.367  -3.767   5.883  0.00  0.00    -0.060 A 
ATOM     14  C   LIG    1        5.673  -4.402   7.086  0.00  0.00    +0.070 A 
ATOM     15  C   LIG    1        6.522  -3.796   7.988  0.00  0.00    -0.080 A 
BRANCH  10  17
ATOM     16  C   LIG    1        8.168  -2.664   9.807  0.00  0.00    +0.250 C 
ATOM     17  O   LIG    1        7.895  -1.952   8.598  0.00  0.00    -0.320 OA
ENDBRANCH  10  17
ENDBRANCH   4  13
ENDBRANCH   1   7
BRANCH   2  18
ATOM     18  C   LIG    1        0.628  -1.941   1.597  0.00  0.00    +0.220 C 
BRANCH  18  19
ATOM     19  N   LIG    1        0.660  -0.475   1.692  0.00  0.00    -0.520 NA
ATOM     20  C   LIG    1        0.291  -0.027   3.040  0.00  0.00    +0.170 C 
ATOM     21  C   LIG    1        0.476   1.489   3.144  0.00  0.00    +0.030 C 
ATOM     22  C   LIG    1       -0.405   2.178   2.098  0.00  0.00    +0.010 C 
ATOM     23  C   LIG    1       -0.033   1.657   0.706  0.00  0.00    +0.020 C 
ATOM     24  C   LIG    1       -0.203   0.137   0.674  0.00  0.00    +0.180 C 
ENDBRANCH  18  19
ENDBRANCH   2  18
BRANCH   1  25
ATOM     25  C   LIG    1        1.139  -4.731   1.601  0.00  0.00    +0.350 C 
BRANCH  25  26
ATOM     26  C   LIG    1        1.889  -4.947   0.312  0.00  0.00    -0.120 A 
ATOM     27  C   LIG    1        1.698  -4.085  -0.752  0.00  0.00    +0.020 A 
ATOM     28  C   LIG    1        2.389  -4.281  -1.933  0.00  0.00    +0.010 A 
ATOM     29  C   LIG    1        3.264  -5.345  -2.053  0.00  0.00    +0.020 A 
ATOM     30  C   LIG    1        3.451  -6.209  -0.991  0.00  0.00    +0.010 A 
ATOM     31  C   LIG    1        2.764  -6.011   0.192  0.00  0.00    +0.020 A 
ENDBRANCH  25  26
ENDBRANCH   1  25
TORSDOF 7
