REMARK  Name = ZINCkj00000y7MUI.0
REMARK                            x       y       z     vdW  Elec       q    Type
REMARK                         _______ _______ _______ _____ _____    ______ ____
ROOT
ATOM      1  C   LIG    1       -0.994  -0.920   0.319  0.00  0.00    +0.150 A 
ATOM      2  C   LIG    1       -0.740  -2.280   0.235  0.00  0.00    -0.080 A 
ATOM      3  C   LIG    1        0.507  -2.724  -0.164  0.00  0.00    +0.060 A 
ATOM      4  C   LIG    1        1.496  -1.813  -0.478  0.00  0.00    -0.020 A 
ATOM      5  C   LIG    1        1.246  -0.453  -0.396  0.00  0.00    -0.060 A 
ATOM      6  C   LIG    1        2.148   0.729  -0.683  0.00  0.00    +0.090 C 
ATOM      7  C   LIG    1        1.466   1.933  -0.002  0.00  0.00    +0.250 C 
ATOM      8  C   LIG    1       -0.018   1.509   0.010  0.00  0.00    +0.100 C 
ATOM      9  C   LIG    1        0.002  -0.004   0.002  0.00  0.00    -0.140 A 
ENDROOT
BRANCH   7  10
ATOM     10  N   LIG    1        1.967   2.113   1.363  0.00  0.00    -0.700 N 
ATOM     11  H   LIG    1        1.546   1.642   2.100  0.00  0.00    +0.410 HD
ATOM     12  C   LIG    1        3.013   2.931   1.595  0.00  0.00    +0.530 C 
ATOM     13  O   LIG    1        3.540   3.520   0.671  0.00  0.00    -0.530 OA
BRANCH  12  14
ATOM     14  C   LIG    1        3.516   3.111   2.965  0.00  0.00    +0.010 C 
ATOM     15  C   LIG    1        4.548   3.918   3.194  0.00  0.00    +0.000 C 
BRANCH  15  16
ATOM     16  C   LIG    1        5.064   4.103   4.598  0.00  0.00    +0.320 C 
BRANCH  16  17
ATOM     17  N   LIG    1        6.499   3.793   4.637  0.00  0.00    -0.390 N 
ATOM     18  C   LIG    1        6.702   2.371   4.332  0.00  0.00    +0.320 C 
ATOM     19  C   LIG    1        7.027   4.088   5.976  0.00  0.00    +0.330 C 
ATOM     20  H   LIG    1        6.983   4.356   3.953  0.00  0.00    +0.430 HD
ENDBRANCH  16  17
ENDBRANCH  15  16
ENDBRANCH  12  14
ENDBRANCH   7  10
BRANCH   1  22
ATOM     21  C   LIG    1       -3.196  -1.478   1.021  0.00  0.00    +0.240 C 
ATOM     22  O   LIG    1       -2.219  -0.482   0.711  0.00  0.00    -0.320 OA
ENDBRANCH   1  22
TORSDOF 5
