REMARK  Name = ZINCkj000005kbjE.0
REMARK                            x       y       z     vdW  Elec       q    Type
REMARK                         _______ _______ _______ _____ _____    ______ ____
ROOT
ATOM      1  C   LIG    1       -4.532   1.510   0.277  0.00  0.00    +0.140 C 
ATOM      2  C   LIG    1       -3.129   1.974  -0.018  0.00  0.00    +0.190 A 
ATOM      3  C   LIG    1       -2.875   3.323  -0.157  0.00  0.00    -0.090 A 
ATOM      4  C   LIG    1       -1.569   3.746  -0.432  0.00  0.00    -0.050 A 
ATOM      5  C   LIG    1       -0.573   2.777  -0.555  0.00  0.00    -0.040 A 
ATOM      6  C   LIG    1       -0.915   1.437  -0.401  0.00  0.00    +0.420 A 
ATOM      7  N   LIG    1       -2.164   1.084  -0.146  0.00  0.00    -0.530 NA
ENDROOT
BRANCH   4   8
ATOM      8  C   LIG    1       -1.253   5.185  -0.588  0.00  0.00    +0.590 C 
ATOM      9  N   LIG    1       -2.043   6.114  -0.014  0.00  0.00    -0.620 N 
ATOM     10  C   LIG    1       -3.276   5.843   0.746  0.00  0.00    +0.300 C 
ATOM     11  C   LIG    1       -3.443   7.071   1.679  0.00  0.00    -0.010 C 
ATOM     12  C   LIG    1       -2.958   8.224   0.761  0.00  0.00    +0.170 C 
ATOM     13  C   LIG    1       -4.910   7.263   2.072  0.00  0.00    +0.080 C 
ATOM     14  C   LIG    1       -1.819   7.567  -0.047  0.00  0.00    +0.280 C 
ATOM     15  O   LIG    1       -0.282   5.528  -1.234  0.00  0.00    -0.510 OA
BRANCH  12  16
ATOM     16  N   LIG    1       -2.448   9.346   1.561  0.00  0.00    -0.630 N 
ATOM     17  H   LIG    1       -1.729   9.013   2.186  0.00  0.00    +0.440 HD
ATOM     18  H   LIG    1       -3.202   9.745   2.099  0.00  0.00    +0.440 HD
ATOM     19  H   LIG    1       -2.063  10.048   0.948  0.00  0.00    +0.440 HD
ENDBRANCH  12  16
ENDBRANCH   4   8
BRANCH   6  20
ATOM     20  N   LIG    1        0.066   0.459  -0.521  0.00  0.00    -0.690 N 
ATOM     21  H   LIG    1       -0.180  -0.479  -0.504  0.00  0.00    +0.410 HD
BRANCH  20  22
ATOM     22  C   LIG    1        1.470   0.846  -0.679  0.00  0.00    +0.210 C 
ATOM     23  C   LIG    1        2.299   0.086  -1.717  0.00  0.00    +0.020 C 
ATOM     24  C   LIG    1        2.534  -0.156  -0.225  0.00  0.00    +0.030 C 
ENDBRANCH  20  22
ENDBRANCH   6  20
TORSDOF 4
