REMARK  Name = ZINCrg00000AgRGN.0
REMARK                            x       y       z     vdW  Elec       q    Type
REMARK                         _______ _______ _______ _____ _____    ______ ____
ROOT
ATOM      1  C   LIG    1       -0.924   0.720  -1.486  0.00  0.00    +0.230 C 
ATOM      2  C   LIG    1       -0.184   0.210  -0.247  0.00  0.00    +0.020 C 
ATOM      3  C   LIG    1       -0.650   0.997   0.982  0.00  0.00    +0.280 C 
ATOM      4  N   LIG    1       -2.115   0.905   1.074  0.00  0.00    -0.610 N 
ATOM      5  C   LIG    1       -2.921   1.285  -0.095  0.00  0.00    +0.300 C 
ATOM      6  C   LIG    1       -2.706   0.481   2.208  0.00  0.00    +0.570 C 
ATOM      7  O   LIG    1       -3.919   0.468   2.292  0.00  0.00    -0.520 OA
ATOM      8  C   LIG    1       -2.428   0.495  -1.311  0.00  0.00    +0.010 C 
ENDROOT
BRANCH   6   9
ATOM      9  C   LIG    1       -1.881   0.032   3.349  0.00  0.00    -0.180 A 
ATOM     10  C   LIG    1       -2.147  -1.181   3.985  0.00  0.00    +0.330 A 
ATOM     11  N   LIG    1       -1.408  -1.582   4.996  0.00  0.00    -0.480 NA
ATOM     12  C   LIG    1       -0.398  -0.864   5.463  0.00  0.00    +0.140 A 
ATOM     13  C   LIG    1        0.554  -1.150   6.606  0.00  0.00    +0.100 C 
ATOM     14  C   LIG    1        1.200   0.210   6.945  0.00  0.00    +0.050 C 
ATOM     15  C   LIG    1        1.106   0.966   5.603  0.00  0.00    +0.090 C 
ATOM     16  C   LIG    1       -0.077   0.353   4.887  0.00  0.00    -0.150 A 
ATOM     17  C   LIG    1       -0.821   0.818   3.816  0.00  0.00    +0.100 A 
ENDBRANCH   6   9
BRANCH   1  19
ATOM     18  C   LIG    1       -0.552   0.556  -3.888  0.00  0.00    +0.500 C 
ATOM     19  N   LIG    1       -0.456  -0.008  -2.668  0.00  0.00    -0.720 N 
ATOM     20  H   LIG    1       -0.077  -0.896  -2.572  0.00  0.00    +0.400 HD
ATOM     21  O   LIG    1       -1.026   1.666  -4.008  0.00  0.00    -0.520 OA
BRANCH  18  23
ATOM     22  C   LIG    1       -1.179  -1.119  -5.607  0.00  0.00    +0.090 C 
ATOM     23  C   LIG    1       -0.070  -0.193  -5.104  0.00  0.00    +0.060 C 
ATOM     24  C   LIG    1        0.302   0.805  -6.205  0.00  0.00    +0.240 C 
ATOM     25  O   LIG    1        1.412   1.594  -5.767  0.00  0.00    -0.370 OA
ATOM     26  C   LIG    1        2.566   0.819  -5.426  0.00  0.00    +0.200 C 
ATOM     27  C   LIG    1        2.194  -0.178  -4.325  0.00  0.00    +0.190 C 
ATOM     28  O   LIG    1        1.082  -0.968  -4.762  0.00  0.00    -0.360 OA
ENDBRANCH  18  23
ENDBRANCH   1  19
TORSDOF 3
