REMARK  Name = ZINCpe00000MJKm1.0
REMARK                            x       y       z     vdW  Elec       q    Type
REMARK                         _______ _______ _______ _____ _____    ______ ____
ROOT
ATOM      1  C   LIG    1       -5.149   1.350   2.611  0.00  0.00    +0.110 C 
ATOM      2  C   LIG    1       -4.722   2.827   2.405  0.00  0.00    -0.010 C 
ATOM      3  C   LIG    1       -3.252   2.704   1.951  0.00  0.00    +0.200 C 
ATOM      4  N   LIG    1       -3.076   1.346   1.403  0.00  0.00    -0.510 NA
ATOM      5  C   LIG    1       -4.372   0.638   1.475  0.00  0.00    +0.230 C 
ENDROOT
BRANCH   1   6
ATOM      6  O   LIG    1       -4.736   0.872   3.893  0.00  0.00    -0.530 OA
ATOM      7  H   LIG    1       -5.124   1.354   4.636  0.00  0.00    +0.370 HD
ENDBRANCH   1   6
BRANCH   1   8
ATOM      8  C   LIG    1       -6.659   1.186   2.428  0.00  0.00    +0.280 C 
BRANCH   8  11
ATOM      9  O   LIG    1       -9.342   1.390   2.615  0.00  0.00    -0.500 OA
ATOM     10  C   LIG    1       -8.710   2.110   3.364  0.00  0.00    +0.610 C 
ATOM     11  N   LIG    1       -7.363   2.083   3.348  0.00  0.00    -0.710 N 
ATOM     12  H   LIG    1       -6.859   2.657   3.946  0.00  0.00    +0.410 HD
BRANCH  10  13
ATOM     13  C   LIG    1       -9.419   3.013   4.291  0.00  0.00    -0.080 A 
ATOM     14  C   LIG    1      -10.773   3.154   4.426  0.00  0.00    +0.070 A 
ATOM     15  C   LIG    1      -10.911   4.134   5.436  0.00  0.00    +0.050 A 
ATOM     16  N   LIG    1       -9.705   4.470   5.794  0.00  0.00    -0.320 NA
ATOM     17 CL   LIG    1      -12.398   4.763   6.075  0.00  0.00    +0.040 Cl
ATOM     18  O   LIG    1       -8.864   3.859   5.178  0.00  0.00    +0.140 OA
ENDBRANCH  10  13
ENDBRANCH   8  11
ENDBRANCH   1   8
BRANCH   4  19
ATOM     19  C   LIG    1       -2.580   1.397   0.021  0.00  0.00    +0.280 C 
BRANCH  19  20
ATOM     20  C   LIG    1       -1.154   1.883   0.017  0.00  0.00    +0.080 A 
ATOM     21  N   LIG    1       -0.770   3.132   0.025  0.00  0.00    -0.270 NA
ATOM     22  N   LIG    1        0.635   3.163   0.010  0.00  0.00    -0.390 N 
ATOM     23  C   LIG    1        1.763   4.107  -0.003  0.00  0.00    +0.310 C 
ATOM     24  C   LIG    1        2.998   3.284   0.418  0.00  0.00    +0.060 C 
ATOM     25  C   LIG    1        2.586   1.857  -0.009  0.00  0.00    +0.130 C 
ATOM     26  C   LIG    1        1.072   1.888   0.002  0.00  0.00    +0.060 A 
ATOM     27  C   LIG    1       -0.013   1.076   0.008  0.00  0.00    -0.090 A 
ENDBRANCH  19  20
ENDBRANCH   4  19
TORSDOF 6
