REMARK  Name = ZINCrH000004pP84.1
REMARK                            x       y       z     vdW  Elec       q    Type
REMARK                         _______ _______ _______ _____ _____    ______ ____
ROOT
ATOM      1  C   LIG    1        0.753  -1.869  -1.243  0.00  0.00    +0.060 A 
ATOM      2  C   LIG    1        1.288  -2.621  -0.207  0.00  0.00    +0.010 A 
ATOM      3  C   LIG    1        1.282  -4.001  -0.282  0.00  0.00    +0.030 A 
ATOM      4  C   LIG    1        0.744  -4.633  -1.387  0.00  0.00    -0.080 A 
ATOM      5  C   LIG    1        0.209  -3.888  -2.422  0.00  0.00    +0.010 A 
ATOM      6  C   LIG    1        0.207  -2.507  -2.352  0.00  0.00    +0.130 A 
ATOM      7  F   LIG    1       -0.321  -1.780  -3.360  0.00  0.00    -0.120 F 
ENDROOT
BRANCH   1  11
ATOM      8  C   LIG    1        3.513   2.130  -1.025  0.00  0.00    +0.050 C 
ATOM      9  C   LIG    1        2.088   1.581  -1.128  0.00  0.00    +0.160 C 
ATOM     10  C   LIG    1        2.130   0.050  -1.148  0.00  0.00    +0.170 C 
ATOM     11  N   LIG    1        0.756  -0.472  -1.170  0.00  0.00    -0.500 N 
ATOM     12  C   LIG    1        0.002  -0.004   0.002  0.00  0.00    +0.170 C 
ATOM     13  C   LIG    1       -0.019   1.527   0.010  0.00  0.00    +0.160 C 
ATOM     14  C   LIG    1       -0.733   2.021   1.270  0.00  0.00    +0.050 C 
ATOM     15  O   LIG    1        1.325   2.017   0.000  0.00  0.00    -0.380 OA
ENDBRANCH   1  11
BRANCH   4  16
ATOM     16  C   LIG    1        0.740  -6.138  -1.464  0.00  0.00    +0.330 C 
BRANCH  16  17
ATOM     17  N   LIG    1       -0.497  -6.654  -0.871  0.00  0.00    -0.720 N 
ATOM     18  H   LIG    1       -1.154  -6.040  -0.509  0.00  0.00    +0.400 HD
ATOM     19  C   LIG    1       -0.721  -7.982  -0.829  0.00  0.00    +0.560 C 
ATOM     20  O   LIG    1        0.103  -8.753  -1.282  0.00  0.00    -0.530 OA
BRANCH  19  21
ATOM     21  C   LIG    1       -1.966  -8.502  -0.232  0.00  0.00    -0.140 A 
ATOM     22  C   LIG    1       -2.200  -9.879  -0.187  0.00  0.00    +0.110 A 
ATOM     23  C   LIG    1       -3.364 -10.360   0.372  0.00  0.00    +0.010 A 
ATOM     24  C   LIG    1       -4.305  -9.479   0.890  0.00  0.00    +0.150 A 
ATOM     25  C   LIG    1       -4.076  -8.107   0.848  0.00  0.00    -0.070 A 
ATOM     26 CL   LIG    1       -5.254  -7.011   1.499  0.00  0.00    -0.050 Cl
ATOM     27  C   LIG    1       -2.912  -7.618   0.295  0.00  0.00    +0.080 A 
BRANCH  24  28
ATOM     28  O   LIG    1       -5.450  -9.958   1.440  0.00  0.00    -0.480 OA
ATOM     29  H   LIG    1       -5.386 -10.138   2.388  0.00  0.00    +0.400 HD
ENDBRANCH  24  28
ENDBRANCH  19  21
ENDBRANCH  16  17
ENDBRANCH   4  16
TORSDOF 5
