REMARK  Name = ZINC9p0000002icm.0
REMARK                            x       y       z     vdW  Elec       q    Type
REMARK                         _______ _______ _______ _____ _____    ______ ____
ROOT
ATOM      1  C   LIG    1        0.636   5.561  -1.224  0.00  0.00    +0.030 C 
ATOM      2  C   LIG    1        0.657   4.031  -1.232  0.00  0.00    -0.070 C 
ATOM      3  C   LIG    1        1.397   3.524   0.008  0.00  0.00    +0.060 C 
ATOM      4  C   LIG    1        1.417   1.994  -0.001  0.00  0.00    +0.030 C 
ATOM      5  C   LIG    1       -0.018   1.465   0.010  0.00  0.00    +0.170 C 
ATOM      6  C   LIG    1       -0.758   1.972  -1.229  0.00  0.00    +0.030 C 
ATOM      7  C   LIG    1        1.373   3.538  -2.491  0.00  0.00    +0.020 C 
ATOM      8  C   LIG    1       -0.779   3.501  -1.221  0.00  0.00    +0.060 C 
ENDROOT
BRANCH   5   9
ATOM      9  N   LIG    1        0.002  -0.004   0.002  0.00  0.00    -0.640 N 
ATOM     10  H   LIG    1        0.474  -0.330  -0.828  0.00  0.00    +0.430 HD
ATOM     11  H   LIG    1       -0.945  -0.353   0.009  0.00  0.00    +0.440 HD
ATOM     12  H   LIG    1        0.490  -0.338   0.820  0.00  0.00    +0.440 HD
ENDBRANCH   5   9
TORSDOF 1
