REMARK  Name = ZINCqH00000055zN.1
REMARK                            x       y       z     vdW  Elec       q    Type
REMARK                         _______ _______ _______ _____ _____    ______ ____
ROOT
ATOM      1  N   LIG    1        0.095   0.593   0.124  0.00  0.00    -0.720 N 
ATOM      2  H   LIG    1        0.196  -0.368   0.208  0.00  0.00    +0.410 HD
ATOM      3  C   LIG    1       -1.134   1.145   0.142  0.00  0.00    +0.510 C 
ATOM      4  O   LIG    1       -1.260   2.347   0.037  0.00  0.00    -0.510 OA
ENDROOT
BRANCH   1   5
ATOM      5  C   LIG    1        1.279   1.443  -0.030  0.00  0.00    +0.290 C 
BRANCH   5   6
ATOM      6  C   LIG    1        2.536   0.572  -0.025  0.00  0.00    +0.250 C 
BRANCH   6   7
ATOM      7  C   LIG    1        3.743   1.430  -0.305  0.00  0.00    -0.220 A 
ATOM      8  C   LIG    1        4.663   1.780   0.594  0.00  0.00    +0.020 A 
ATOM      9  C   LIG    1        5.685   2.575   0.105  0.00  0.00    +0.000 A 
ATOM     10  C   LIG    1        5.594   2.871  -1.193  0.00  0.00    -0.060 A 
ATOM     11  S   LIG    1        4.157   2.117  -1.871  0.00  0.00    +0.110 S 
ENDBRANCH   6   7
BRANCH   6  13
ATOM     12  C   LIG    1        1.942   0.113  -2.327  0.00  0.00    +0.200 C 
ATOM     13  N   LIG    1        2.420  -0.462  -1.063  0.00  0.00    -0.530 NA
ATOM     14  C   LIG    1        3.696  -1.164  -1.252  0.00  0.00    +0.200 C 
ENDBRANCH   6  13
ENDBRANCH   5   6
ENDBRANCH   1   5
BRANCH   3  15
ATOM     15  C   LIG    1       -2.351   0.271   0.293  0.00  0.00    +0.230 C 
BRANCH  15  16
ATOM     16  O   LIG    1       -3.526   1.084   0.284  0.00  0.00    -0.260 OA
BRANCH  16  17
ATOM     17  C   LIG    1       -4.719   0.446   0.412  0.00  0.00    +0.170 A 
ATOM     18  C   LIG    1       -4.760  -0.914   0.536  0.00  0.00    -0.060 A 
ATOM     19  C   LIG    1       -5.972  -1.585   0.674  0.00  0.00    +0.080 A 
ATOM     20  C   LIG    1       -7.153  -0.906   0.678  0.00  0.00    -0.060 A 
ATOM     21  C   LIG    1       -7.152   0.494   0.546  0.00  0.00    -0.060 A 
ATOM     22  C   LIG    1       -8.350   1.231   0.546  0.00  0.00    +0.080 A 
ATOM     23  C   LIG    1       -8.272   2.588   0.414  0.00  0.00    -0.010 A 
ATOM     24  C   LIG    1       -7.029   3.204   0.285  0.00  0.00    +0.290 A 
ATOM     25  N   LIG    1       -5.915   2.513   0.286  0.00  0.00    -0.440 NA
ATOM     26 CL   LIG    1       -8.653  -1.764   0.844  0.00  0.00    -0.060 Cl
ATOM     27  C   LIG    1       -5.921   1.183   0.412  0.00  0.00    +0.120 A 
ENDBRANCH  16  17
ENDBRANCH  15  16
ENDBRANCH   3  15
TORSDOF 7
