REMARK  Name = ZINCrH000004nQxJ.0
REMARK                            x       y       z     vdW  Elec       q    Type
REMARK                         _______ _______ _______ _____ _____    ______ ____
ROOT
ATOM      1  C   LIG    1        4.859   1.143  -0.254  0.00  0.00    +0.270 C 
ENDROOT
BRANCH   1   2
ATOM      2  C   LIG    1        3.537   1.855  -0.123  0.00  0.00    +0.520 C 
ATOM      3  N   LIG    1        2.397   1.145  -0.015  0.00  0.00    -0.660 N 
ATOM      4  H   LIG    1        2.432   0.178   0.057  0.00  0.00    +0.420 HD
ATOM      5  O   LIG    1        3.500   3.067  -0.117  0.00  0.00    -0.510 OA
BRANCH   3   6
ATOM      6  C   LIG    1        1.161   1.803  -0.005  0.00  0.00    +0.080 A 
ATOM      7  C   LIG    1        0.985   2.960  -0.738  0.00  0.00    +0.090 A 
ATOM      8  C   LIG    1       -0.273   3.587  -0.691  0.00  0.00    -0.080 A 
ATOM      9  C   LIG    1       -0.526   4.770  -1.404  0.00  0.00    +0.030 A 
ATOM     10  C   LIG    1       -1.757   5.348  -1.334  0.00  0.00    +0.020 A 
ATOM     11  C   LIG    1       -2.769   4.782  -0.563  0.00  0.00    +0.030 A 
ATOM     12  C   LIG    1       -2.562   3.631   0.133  0.00  0.00    +0.050 A 
ATOM     13  C   LIG    1       -1.304   3.006   0.090  0.00  0.00    +0.110 A 
ATOM     14  N   LIG    1       -1.070   1.883   0.777  0.00  0.00    -0.450 NA
ATOM     15  C   LIG    1        0.098   1.291   0.747  0.00  0.00    +0.280 A 
ENDBRANCH   3   6
ENDBRANCH   1   2
BRANCH   1  16
ATOM     16  N   LIG    1        5.937   2.129  -0.356  0.00  0.00    -0.710 N 
ATOM     17  H   LIG    1        5.750   3.019  -0.692  0.00  0.00    +0.410 HD
ATOM     18  C   LIG    1        7.189   1.799   0.018  0.00  0.00    +0.570 C 
ATOM     19  O   LIG    1        7.424   0.683   0.439  0.00  0.00    -0.530 OA
BRANCH  18  20
ATOM     20  C   LIG    1        8.278   2.794  -0.085  0.00  0.00    -0.140 A 
ATOM     21  C   LIG    1        8.013   4.074  -0.574  0.00  0.00    +0.050 A 
ATOM     22  C   LIG    1        9.033   5.000  -0.664  0.00  0.00    +0.000 A 
ATOM     23  C   LIG    1       10.317   4.658  -0.280  0.00  0.00    +0.040 A 
ATOM     24  C   LIG    1       10.587   3.389   0.201  0.00  0.00    +0.000 A 
ATOM     25  C   LIG    1        9.576   2.456   0.300  0.00  0.00    +0.080 A 
ENDBRANCH  18  20
ENDBRANCH   1  16
BRANCH   1  26
ATOM     26  C   LIG    1        4.846   0.269  -1.510  0.00  0.00    +0.070 C 
BRANCH  26  27
ATOM     27  C   LIG    1        6.137  -0.549  -1.575  0.00  0.00    +0.100 C 
BRANCH  27  29
ATOM     28  C   LIG    1        7.706  -2.463  -2.967  0.00  0.00    +0.140 C 
ATOM     29  S   LIG    1        6.122  -1.585  -3.065  0.00  0.00    -0.270 S 
ENDBRANCH  27  29
ENDBRANCH  26  27
ENDBRANCH   1  26
TORSDOF 7
