REMARK  Name = ZINCkj00000y7NZ9.0
REMARK                            x       y       z     vdW  Elec       q    Type
REMARK                         _______ _______ _______ _____ _____    ______ ____
ROOT
ATOM      1  C   LIG    1       -3.636  -0.775   0.319  0.00  0.00    -0.250 A 
ATOM      2  C   LIG    1       -4.454  -0.145   1.187  0.00  0.00    +0.210 A 
ATOM      3  N   LIG    1       -5.484  -0.985   1.488  0.00  0.00    -0.420 N 
ATOM      4  C   LIG    1       -5.311  -2.152   0.805  0.00  0.00    +0.180 A 
ATOM      5  C   LIG    1       -4.184  -2.049   0.072  0.00  0.00    -0.030 A 
ENDROOT
BRANCH   1   6
ATOM      6  C   LIG    1       -2.371  -0.217  -0.280  0.00  0.00    +0.340 C 
BRANCH   6   7
ATOM      7  N   LIG    1       -1.231  -0.548   0.586  0.00  0.00    -0.490 N 
ATOM      8  H   LIG    1       -1.376  -0.147   1.501  0.00  0.00    +0.430 HD
ATOM      9  H   LIG    1       -1.151  -1.551   0.667  0.00  0.00    +0.430 HD
BRANCH   7  14
ATOM     10  C   LIG    1        1.224  -0.317   0.900  0.00  0.00    +0.170 C 
ATOM     11  C   LIG    1        2.055   0.981   0.873  0.00  0.00    +0.210 C 
ATOM     12  O   LIG    1        1.380   1.902  -0.001  0.00  0.00    -0.340 OA
ATOM     13  C   LIG    1       -0.019   1.546   0.011  0.00  0.00    +0.250 C 
ATOM     14  C   LIG    1        0.002  -0.004   0.002  0.00  0.00    +0.150 C 
BRANCH  10  15
ATOM     15  O   LIG    1        0.801  -0.615   2.232  0.00  0.00    -0.570 OA
ATOM     16  H   LIG    1        1.527  -0.819   2.839  0.00  0.00    +0.420 HD
ENDBRANCH  10  15
ENDBRANCH   7  14
ENDBRANCH   6   7
ENDBRANCH   1   6
BRANCH   3  17
ATOM     17  C   LIG    1       -6.594  -0.684   2.395  0.00  0.00    +0.360 C 
BRANCH  17  18
ATOM     18  C   LIG    1       -7.722  -0.055   1.618  0.00  0.00    -0.130 A 
ATOM     19  C   LIG    1       -7.779   1.318   1.472  0.00  0.00    +0.020 A 
ATOM     20  C   LIG    1       -8.811   1.895   0.756  0.00  0.00    +0.010 A 
ATOM     21  C   LIG    1       -9.791   1.099   0.193  0.00  0.00    +0.030 A 
ATOM     22  C   LIG    1       -9.736  -0.274   0.343  0.00  0.00    +0.010 A 
ATOM     23  C   LIG    1       -8.702  -0.851   1.056  0.00  0.00    +0.020 A 
ENDBRANCH  17  18
ENDBRANCH   3  17
TORSDOF 6
