REMARK  Name = ZINCrD000000CQrB.0
REMARK                            x       y       z     vdW  Elec       q    Type
REMARK                         _______ _______ _______ _____ _____    ______ ____
ROOT
ATOM      1  C   LIG    1       -2.131  -0.224   1.246  0.00  0.00    -0.060 A 
ATOM      2  C   LIG    1       -2.576   0.956   1.816  0.00  0.00    +0.040 A 
ATOM      3  C   LIG    1       -3.919   1.271   1.798  0.00  0.00    +0.050 A 
ATOM      4  C   LIG    1       -4.831   0.391   1.215  0.00  0.00    -0.140 A 
ATOM      5  C   LIG    1       -4.377  -0.800   0.647  0.00  0.00    +0.090 A 
ATOM      6  C   LIG    1       -3.031  -1.101   0.666  0.00  0.00    +0.020 A 
ENDROOT
BRANCH   4   7
ATOM      7  C   LIG    1       -6.272   0.720   1.197  0.00  0.00    +0.560 C 
ATOM      8  N   LIG    1       -6.708   1.871   1.746  0.00  0.00    -0.620 N 
ATOM      9  H   LIG    1       -6.075   2.484   2.153  0.00  0.00    +0.420 HD
ATOM     10  O   LIG    1       -7.065  -0.049   0.688  0.00  0.00    -0.500 OA
BRANCH   8  11
ATOM     11  C   LIG    1       -8.061   2.179   1.730  0.00  0.00    +0.280 A 
ATOM     12  N   LIG    1       -8.590   3.254   2.226  0.00  0.00    -0.490 NA
ATOM     13  C   LIG    1       -9.911   3.381   2.118  0.00  0.00    +0.160 A 
ATOM     14  C   LIG    1      -10.537   2.363   1.497  0.00  0.00    -0.120 A 
ATOM     15  S   LIG    1       -9.324   1.175   1.025  0.00  0.00    +0.220 S 
BRANCH  13  16
ATOM     16  C   LIG    1      -10.639   4.558   2.640  0.00  0.00    -0.130 A 
ATOM     17  C   LIG    1      -10.074   5.604   3.274  0.00  0.00    +0.050 A 
ATOM     18  C   LIG    1      -10.961   6.587   3.668  0.00  0.00    +0.000 A 
ATOM     19  C   LIG    1      -12.240   6.346   3.371  0.00  0.00    -0.040 A 
ATOM     20  S   LIG    1      -12.378   4.803   2.539  0.00  0.00    +0.130 S 
ENDBRANCH  13  16
ENDBRANCH   8  11
ENDBRANCH   4   7
BRANCH   1  21
ATOM     21  C   LIG    1       -0.662  -0.558   1.264  0.00  0.00    +0.110 C 
BRANCH  21  25
ATOM     22  O   LIG    1        3.374   1.202  -0.023  0.00  0.00    -0.480 OA
ATOM     23  C   LIG    1        2.177   1.011  -0.013  0.00  0.00    +0.530 C 
ATOM     24  C   LIG    1        1.506  -0.345  -0.014  0.00  0.00    +0.100 C 
ATOM     25  C   LIG    1        0.002  -0.004   0.002  0.00  0.00    +0.010 C 
ATOM     26  C   LIG    1       -0.018   1.509   0.010  0.00  0.00    +0.530 C 
ATOM     27  O   LIG    1       -1.016   2.198   0.019  0.00  0.00    -0.460 OA
ATOM     28  N   LIG    1        1.240   1.966   0.001  0.00  0.00    -0.680 N 
ATOM     29  H   LIG    1        1.454   2.913   0.004  0.00  0.00    +0.420 HD
ENDBRANCH  21  25
ENDBRANCH   1  21
TORSDOF 5
