REMARK  Name = ZINCpk0000050VIu.0
REMARK                            x       y       z     vdW  Elec       q    Type
REMARK                         _______ _______ _______ _____ _____    ______ ____
ROOT
ATOM      1  N   LIG    1        1.149   1.883   0.001  0.00  0.00    -0.570 N 
ATOM      2  C   LIG    1        1.188   3.205   0.248  0.00  0.00    +0.520 C 
ATOM      3  C   LIG    1       -0.073   3.936   0.636  0.00  0.00    +0.100 C 
ATOM      4  C   LIG    1       -1.263   3.308  -0.094  0.00  0.00    +0.310 C 
ATOM      5  N   LIG    1       -1.195   1.851   0.018  0.00  0.00    -0.720 N 
ATOM      6  H   LIG    1       -2.015   1.339   0.103  0.00  0.00    +0.430 HD
ATOM      7  O   LIG    1        2.235   3.808   0.158  0.00  0.00    -0.480 OA
ATOM      8  C   LIG    1       -0.014   1.211   0.009  0.00  0.00    +0.710 C 
ATOM      9  O   LIG    1        0.002  -0.004   0.002  0.00  0.00    -0.550 OA
ENDROOT
BRANCH   4  10
ATOM     10  C   LIG    1       -1.222   3.698  -1.549  0.00  0.00    -0.130 A 
ATOM     11  C   LIG    1       -0.376   3.034  -2.418  0.00  0.00    +0.050 A 
ATOM     12  C   LIG    1       -0.342   3.387  -3.754  0.00  0.00    -0.010 A 
ATOM     13  C   LIG    1       -1.146   4.413  -4.219  0.00  0.00    +0.110 A 
ATOM     14  C   LIG    1       -1.989   5.081  -3.346  0.00  0.00    -0.010 A 
ATOM     15  F   LIG    1       -1.109   4.763  -5.523  0.00  0.00    -0.130 F 
ATOM     16  C   LIG    1       -2.026   4.723  -2.012  0.00  0.00    +0.070 A 
ENDBRANCH   4  10
BRANCH   1  17
ATOM     17  C   LIG    1        2.395   1.165  -0.279  0.00  0.00    +0.310 C 
BRANCH  17  18
ATOM     18  C   LIG    1        2.666   1.181  -1.785  0.00  0.00    -0.010 C 
BRANCH  18  19
ATOM     19  C   LIG    1        3.966   0.431  -2.078  0.00  0.00    +0.310 C 
BRANCH  19  20
ATOM     20  N   LIG    1        4.226   0.447  -3.519  0.00  0.00    -1.000 NA
ATOM     21  C   LIG    1        3.613  -0.563  -4.385  0.00  0.00    +0.300 C 
BRANCH  20  22
ATOM     22  S   LIG    1        5.211   1.608  -4.171  0.00  0.00    +2.600 S 
ATOM     23  O   LIG    1        5.113   2.699  -3.266  0.00  0.00    -0.940 OA
ATOM     24  O   LIG    1        4.769   1.729  -5.515  0.00  0.00    -0.950 OA
BRANCH  22  26
ATOM     25  C   LIG    1        7.884   1.866  -4.692  0.00  0.00    +0.070 C 
ATOM     26  C   LIG    1        6.871   0.878  -4.111  0.00  0.00    -0.370 C 
ENDBRANCH  22  26
ENDBRANCH  20  22
ENDBRANCH  19  20
ENDBRANCH  18  19
ENDBRANCH  17  18
ENDBRANCH   1  17
TORSDOF 7
