REMARK  Name = ZINCpk00000xLNxG.0
REMARK                            x       y       z     vdW  Elec       q    Type
REMARK                         _______ _______ _______ _____ _____    ______ ____
ROOT
ATOM      1  C   LIG    1       -2.143   5.486  -0.831  0.00  0.00    +0.190 C 
ATOM      2  N   LIG    1       -1.391   4.924   0.299  0.00  0.00    -0.530 NA
ATOM      3  C   LIG    1       -0.013   5.436   0.322  0.00  0.00    +0.150 C 
ATOM      4  C   LIG    1        0.719   4.875   1.544  0.00  0.00    +0.230 C 
ATOM      5  O   LIG    1        0.668   3.445   1.512  0.00  0.00    -0.370 OA
ATOM      6  C   LIG    1       -0.662   2.922   1.490  0.00  0.00    +0.170 C 
ATOM      7  C   LIG    1       -0.619   1.394   1.463  0.00  0.00    +0.040 C 
ATOM      8  C   LIG    1        0.127   0.925   0.210  0.00  0.00    +0.280 C 
ATOM      9  N   LIG    1       -0.500   1.535  -0.970  0.00  0.00    -0.580 N 
ATOM     10  C   LIG    1       -0.654   2.995  -1.009  0.00  0.00    +0.260 C 
ATOM     11  C   LIG    1       -0.926   0.771  -1.995  0.00  0.00    +0.580 C 
ATOM     12  O   LIG    1       -1.516   1.280  -2.928  0.00  0.00    -0.540 OA
ATOM     13  C   LIG    1       -1.393   3.452   0.254  0.00  0.00    +0.140 C 
ENDROOT
BRANCH  11  14
ATOM     14  C   LIG    1       -0.675  -0.686  -1.985  0.00  0.00    -0.090 A 
ATOM     15  C   LIG    1       -1.163  -1.474  -0.942  0.00  0.00    +0.030 A 
ATOM     16  C   LIG    1       -0.926  -2.833  -0.939  0.00  0.00    +0.020 A 
ATOM     17  C   LIG    1       -0.207  -3.415  -1.968  0.00  0.00    +0.030 A 
ATOM     18  C   LIG    1        0.280  -2.639  -3.005  0.00  0.00    +0.030 A 
ATOM     19  C   LIG    1        0.045  -1.280  -3.023  0.00  0.00    -0.070 A 
BRANCH  19  20
ATOM     20  C   LIG    1        0.571  -0.438  -4.157  0.00  0.00    +0.380 C 
BRANCH  20  21
ATOM     21  N   LIG    1        1.851   0.159  -3.769  0.00  0.00    -0.370 N 
ATOM     22  C   LIG    1        3.015   0.048  -4.443  0.00  0.00    +0.220 A 
ATOM     23  C   LIG    1        3.954   0.744  -3.761  0.00  0.00    -0.120 A 
ATOM     24  C   LIG    1        3.346   1.291  -2.627  0.00  0.00    +0.220 A 
ATOM     25  N   LIG    1        2.085   0.941  -2.631  0.00  0.00    -0.280 NA
ENDBRANCH  20  21
ENDBRANCH  19  20
ENDBRANCH  11  14
TORSDOF 3
