REMARK  Name = ZINCbu0000000Gxo.0
REMARK                            x       y       z     vdW  Elec       q    Type
REMARK                         _______ _______ _______ _____ _____    ______ ____
ROOT
ATOM      1  C   LIG    1       -2.990   0.953  -0.301  0.00  0.00    +0.160 C 
ATOM      2  C   LIG    1       -1.992   0.842  -1.465  0.00  0.00    +0.050 C 
ATOM      3  C   LIG    1       -0.767   1.602  -1.243  0.00  0.00    +0.040 C 
ATOM      4  C   LIG    1       -0.013   1.086   0.008  0.00  0.00    -0.030 C 
ATOM      5  C   LIG    1       -0.723   1.574   1.243  0.00  0.00    +0.060 C 
ATOM      6  C   LIG    1       -1.786   0.590   1.767  0.00  0.00    +0.250 C 
ATOM      7  C   LIG    1        1.422   1.618  -0.003  0.00  0.00    +0.040 C 
ATOM      8  N   LIG    1       -2.612  -0.014   0.700  0.00  0.00    -0.500 N 
ATOM      9  H   LIG    1       -2.088  -0.755   0.260  0.00  0.00    +0.420 HD
ATOM     10  H   LIG    1       -3.447  -0.403   1.112  0.00  0.00    +0.420 HD
ENDROOT
BRANCH   1  12
ATOM     11  C   LIG    1       -5.392   0.766   0.360  0.00  0.00    +0.040 C 
ATOM     12  C   LIG    1       -4.404   0.654  -0.803  0.00  0.00    -0.010 C 
ATOM     13  C   LIG    1       -4.783   1.659  -1.892  0.00  0.00    +0.070 C 
ENDBRANCH   1  12
TORSDOF 1
