REMARK  Name = ZINCpe000027pHv4.0
REMARK                            x       y       z     vdW  Elec       q    Type
REMARK                         _______ _______ _______ _____ _____    ______ ____
ROOT
ATOM      1  C   LIG    1        1.856   1.521   1.391  0.00  0.00    +0.130 C 
ATOM      2  C   LIG    1        0.616   1.531   2.304  0.00  0.00    +0.040 C 
ATOM      3  C   LIG    1       -0.593   1.617   1.343  0.00  0.00    +0.050 C 
ATOM      4  C   LIG    1       -0.013   1.086   0.008  0.00  0.00    +0.130 C 
ATOM      5  N   LIG    1        1.370   1.629  -0.002  0.00  0.00    -0.460 NA
ENDROOT
BRANCH   4   6
ATOM      6  C   LIG    1       -0.799   1.612  -1.165  0.00  0.00    +0.520 C 
ATOM      7  O   LIG    1       -0.266   2.339  -1.976  0.00  0.00    -0.480 OA
ATOM      8  N   LIG    1       -2.096   1.274  -1.312  0.00  0.00    -0.860 N 
ATOM      9  H   LIG    1       -2.602   1.613  -2.067  0.00  0.00    +0.400 HD
ATOM     10  H   LIG    1       -2.522   0.693  -0.664  0.00  0.00    +0.400 HD
ENDBRANCH   4   6
BRANCH   1  13
ATOM     11  C   LIG    1        3.040   1.774   3.953  0.00  0.00    +0.280 C 
ATOM     12  N   LIG    1        3.298   2.800   2.941  0.00  0.00    -0.620 N 
ATOM     13  C   LIG    1        2.742   2.695   1.717  0.00  0.00    +0.520 C 
ATOM     14  O   LIG    1        2.956   3.545   0.879  0.00  0.00    -0.500 OA
BRANCH  12  15
ATOM     15  C   LIG    1        4.160   3.942   3.258  0.00  0.00    +0.360 C 
BRANCH  15  16
ATOM     16  C   LIG    1        3.323   5.063   3.818  0.00  0.00    -0.260 A 
ATOM     17  C   LIG    1        3.030   5.261   5.124  0.00  0.00    +0.240 A 
ATOM     18  N   LIG    1        2.261   6.367   5.210  0.00  0.00    -0.480 N 
ATOM     19  H   LIG    1        1.900   6.750   6.025  0.00  0.00    +0.440 HD
ATOM     20  N   LIG    1        2.075   6.864   3.913  0.00  0.00    -0.300 NA
ATOM     21  C   LIG    1        2.717   6.085   3.081  0.00  0.00    +0.260 A 
ENDBRANCH  15  16
ENDBRANCH  12  15
ENDBRANCH   1  13
BRANCH   5  22
ATOM     22  C   LIG    1        2.228   0.867  -0.919  0.00  0.00    +0.220 C 
BRANCH  22  23
ATOM     23  C   LIG    1        1.812   1.143  -2.342  0.00  0.00    -0.050 A 
ATOM     24  C   LIG    1        0.859   0.347  -2.950  0.00  0.00    -0.010 A 
ATOM     25  C   LIG    1        0.474   0.602  -4.253  0.00  0.00    -0.010 A 
ATOM     26  C   LIG    1        1.050   1.647  -4.951  0.00  0.00    -0.010 A 
ATOM     27  C   LIG    1        2.007   2.440  -4.345  0.00  0.00    -0.010 A 
ATOM     28  C   LIG    1        2.388   2.187  -3.040  0.00  0.00    +0.040 A 
ENDBRANCH  22  23
ENDBRANCH   5  22
TORSDOF 6
