REMARK  Name = ZINCqH00000082eq.0
REMARK                            x       y       z     vdW  Elec       q    Type
REMARK                         _______ _______ _______ _____ _____    ______ ____
ROOT
ATOM      1  C   LIG    1        4.836   1.006  -0.120  0.00  0.00    +0.150 A 
ATOM      2  C   LIG    1        4.802  -0.354  -0.401  0.00  0.00    +0.020 A 
ATOM      3  C   LIG    1        5.974  -1.043  -0.650  0.00  0.00    +0.040 A 
ATOM      4  C   LIG    1        7.188  -0.386  -0.609  0.00  0.00    +0.010 A 
ATOM      5  C   LIG    1        7.233   0.979  -0.321  0.00  0.00    -0.020 A 
ATOM      6  C   LIG    1        6.051   1.674  -0.077  0.00  0.00    +0.090 A 
ENDROOT
BRANCH   5   7
ATOM      7  C   LIG    1        8.533   1.685  -0.277  0.00  0.00    +0.290 A 
ATOM      8  N   LIG    1        8.720   2.986  -0.357  0.00  0.00    -0.310 NA
ATOM      9  N   LIG    1        9.971   3.265  -0.285  0.00  0.00    -0.040 NA
ATOM     10  N   LIG    1       10.666   2.187  -0.157  0.00  0.00    -0.080 NA
ATOM     11  N   LIG    1        9.756   1.115  -0.141  0.00  0.00    -0.350 N 
BRANCH  11  12
ATOM     12  C   LIG    1       10.063  -0.311  -0.009  0.00  0.00    +0.210 C 
ATOM     13  C   LIG    1       11.531  -0.703   0.172  0.00  0.00    +0.090 C 
ATOM     14  C   LIG    1       10.824  -0.979  -1.157  0.00  0.00    +0.060 C 
ENDBRANCH  11  12
ENDBRANCH   5   7
BRANCH   1  16
ATOM     15  C   LIG    1        3.516   2.978  -0.284  0.00  0.00    +0.560 C 
ATOM     16  N   LIG    1        3.647   1.700   0.125  0.00  0.00    -0.670 N 
ATOM     17  H   LIG    1        2.916   1.262   0.589  0.00  0.00    +0.410 HD
ATOM     18  O   LIG    1        4.460   3.555  -0.787  0.00  0.00    -0.500 OA
BRANCH  15  22
ATOM     19  C   LIG    1       -0.196   4.988   0.188  0.00  0.00    -0.040 A 
ATOM     20  C   LIG    1        0.878   5.649  -0.380  0.00  0.00    +0.030 A 
ATOM     21  C   LIG    1        2.085   5.000  -0.542  0.00  0.00    +0.090 A 
ATOM     22  C   LIG    1        2.224   3.677  -0.120  0.00  0.00    -0.130 A 
ATOM     23  C   LIG    1        1.138   3.018   0.458  0.00  0.00    +0.050 A 
ATOM     24  C   LIG    1       -0.065   3.676   0.609  0.00  0.00    +0.020 A 
BRANCH  19  25
ATOM     25  C   LIG    1       -1.513   5.701   0.355  0.00  0.00    +0.140 C 
BRANCH  25  27
ATOM     26  C   LIG    1       -3.184   7.320   1.982  0.00  0.00    +0.130 C 
ATOM     27  S   LIG    1       -1.550   6.532   1.967  0.00  0.00    -0.250 S 
ENDBRANCH  25  27
ENDBRANCH  19  25
ENDBRANCH  15  22
ENDBRANCH   1  16
TORSDOF 6
