REMARK  Name = ZINCb70000003X7V.0
REMARK                            x       y       z     vdW  Elec       q    Type
REMARK                         _______ _______ _______ _____ _____    ______ ____
ROOT
ATOM      1  C   LIG    1       -0.774   3.123  -1.221  0.00  0.00    +0.100 C 
ATOM      2  C   LIG    1       -0.755   1.594  -1.230  0.00  0.00    +0.170 C 
ATOM      3  C   LIG    1       -0.013   1.086   0.008  0.00  0.00    +0.080 C 
ATOM      4  C   LIG    1       -0.731   1.581   1.267  0.00  0.00    +0.090 C 
ATOM      5  C   LIG    1       -2.189   1.109   1.228  0.00  0.00    -0.470 C 
ATOM      6  C   LIG    1       -2.850   1.616  -0.056  0.00  0.00    +0.300 C 
ATOM      7  N   LIG    1       -2.132   1.087  -1.222  0.00  0.00    -0.500 N 
ATOM      8  H   LIG    1       -2.119   0.079  -1.179  0.00  0.00    +0.430 HD
ATOM      9  H   LIG    1       -2.602   1.379  -2.065  0.00  0.00    +0.440 HD
ENDROOT
BRANCH   5  10
ATOM     10  S   LIG    1       -3.077   1.765   2.667  0.00  0.00    +2.430 S 
ATOM     11  O   LIG    1       -4.345   1.129   2.745  0.00  0.00    -0.920 OA
ATOM     12  O   LIG    1       -3.013   3.184   2.630  0.00  0.00    -0.910 OA
ATOM     13  C   LIG    1       -2.050   1.176   4.042  0.00  0.00    -0.230 C 
ENDBRANCH   5  10
TORSDOF 1
