REMARK  Name = ZINCrH000004pBRP.0
REMARK                            x       y       z     vdW  Elec       q    Type
REMARK                         _______ _______ _______ _____ _____    ______ ____
ROOT
ATOM      1  C   LIG    1       -0.276   4.319  -1.717  0.00  0.00    +0.500 C 
ATOM      2  N   LIG    1       -1.039   3.579  -0.888  0.00  0.00    -0.610 N 
ATOM      3  C   LIG    1       -1.248   2.144  -1.133  0.00  0.00    +0.300 C 
ATOM      4  C   LIG    1       -0.628   1.343   0.017  0.00  0.00    +0.110 C 
ATOM      5  C   LIG    1       -1.022   1.977   1.330  0.00  0.00    +0.090 A 
ATOM      6  C   LIG    1       -1.491   3.240   1.449  0.00  0.00    -0.190 A 
ATOM      7  C   LIG    1       -1.748   3.471   2.854  0.00  0.00    -0.070 A 
ATOM      8  C   LIG    1       -2.224   4.575   3.565  0.00  0.00    +0.040 A 
ATOM      9  C   LIG    1       -2.343   4.433   4.938  0.00  0.00    +0.070 A 
ATOM     10  C   LIG    1       -2.003   3.255   5.584  0.00  0.00    +0.010 A 
ATOM     11  C   LIG    1       -1.525   2.149   4.902  0.00  0.00    +0.040 A 
ATOM     12  F   LIG    1       -2.804   5.473   5.667  0.00  0.00    -0.140 F 
ATOM     13  C   LIG    1       -1.396   2.264   3.520  0.00  0.00    +0.090 A 
ATOM     14  N   LIG    1       -0.966   1.386   2.565  0.00  0.00    -0.580 N 
ATOM     15  H   LIG    1       -0.666   0.479   2.736  0.00  0.00    +0.420 HD
ATOM     16  C   LIG    1       -1.687   4.185   0.288  0.00  0.00    +0.370 C 
ATOM     17  O   LIG    1       -0.185   5.516  -1.550  0.00  0.00    -0.520 OA
ENDROOT
BRANCH   1  18
ATOM     18  C   LIG    1        0.464   3.658  -2.851  0.00  0.00    +0.130 C 
ATOM     19  C   LIG    1       -0.495   3.426  -4.020  0.00  0.00    +0.090 C 
BRANCH  18  21
ATOM     20  C   LIG    1        2.370   3.886  -4.451  0.00  0.00    +0.050 C 
ATOM     21  C   LIG    1        1.613   4.561  -3.306  0.00  0.00    +0.040 C 
BRANCH  21  22
ATOM     22  C   LIG    1        2.553   4.796  -2.152  0.00  0.00    -0.090 A 
ATOM     23  C   LIG    1        3.339   3.763  -1.679  0.00  0.00    +0.000 A 
ATOM     24  C   LIG    1        4.205   3.980  -0.623  0.00  0.00    +0.000 A 
ATOM     25  C   LIG    1        4.278   5.229  -0.035  0.00  0.00    +0.000 A 
ATOM     26  C   LIG    1        3.488   6.261  -0.505  0.00  0.00    +0.000 A 
ATOM     27  C   LIG    1        2.625   6.045  -1.563  0.00  0.00    +0.030 A 
ENDBRANCH  21  22
ENDBRANCH  18  21
BRANCH  18  28
ATOM     28  O   LIG    1        0.990   2.404  -2.411  0.00  0.00    -0.540 OA
ATOM     29  H   LIG    1        1.507   2.459  -1.596  0.00  0.00    +0.380 HD
ENDBRANCH  18  28
ENDBRANCH   1  18
TORSDOF 4
