REMARK  Name = ZINCrD000000CHB5.0
REMARK                            x       y       z     vdW  Elec       q    Type
REMARK                         _______ _______ _______ _____ _____    ______ ____
ROOT
ATOM      1  C   LIG    1        3.349   6.066  -1.860  0.00  0.00    +0.600 C 
ATOM      2  N   LIG    1        2.321   6.599  -1.171  0.00  0.00    -0.590 N 
ATOM      3  C   LIG    1        0.948   6.122  -1.388  0.00  0.00    +0.270 C 
ATOM      4  C   LIG    1        0.349   5.723  -0.030  0.00  0.00    +0.010 C 
ATOM      5  C   LIG    1        0.459   6.905   0.936  0.00  0.00    +0.020 C 
ATOM      6  C   LIG    1        1.933   7.260   1.145  0.00  0.00    +0.050 C 
ATOM      7  C   LIG    1        2.550   7.673  -0.195  0.00  0.00    +0.320 C 
ATOM      8  O   LIG    1        4.491   6.396  -1.600  0.00  0.00    -0.510 OA
ENDROOT
BRANCH   1  11
ATOM      9  O   LIG    1        1.765   6.519  -4.104  0.00  0.00    -0.510 OA
ATOM     10  C   LIG    1        2.270   5.413  -4.025  0.00  0.00    +0.550 A 
ATOM     11  C   LIG    1        3.092   5.086  -2.922  0.00  0.00    -0.320 A 
ATOM     12  C   LIG    1        3.653   3.809  -2.868  0.00  0.00    +0.440 A 
ATOM     13  N   LIG    1        3.396   2.957  -3.842  0.00  0.00    -0.520 NA
ATOM     14  C   LIG    1        2.623   3.267  -4.880  0.00  0.00    +0.380 A 
ATOM     15  S   LIG    1        2.185   2.246  -6.260  0.00  0.00    +0.050 S 
ATOM     16  C   LIG    1        1.152   3.482  -7.101  0.00  0.00    +0.150 C 
ATOM     17  C   LIG    1        1.216   4.704  -6.189  0.00  0.00    +0.300 C 
ATOM     18  N   LIG    1        2.043   4.484  -5.005  0.00  0.00    -0.530 N 
ENDBRANCH   1  11
BRANCH   7  19
ATOM     19  C   LIG    1        4.031   7.891  -0.023  0.00  0.00    +0.130 A 
ATOM     20  N   LIG    1        4.756   7.271   0.829  0.00  0.00    -0.460 NA
ATOM     21  C   LIG    1        6.069   7.566   0.870  0.00  0.00    +0.100 A 
ATOM     22  C   LIG    1        7.084   7.040   1.695  0.00  0.00    +0.060 A 
ATOM     23  C   LIG    1        8.366   7.485   1.580  0.00  0.00    +0.020 A 
ATOM     24  C   LIG    1        8.698   8.461   0.651  0.00  0.00    +0.020 A 
ATOM     25  C   LIG    1        7.728   8.992  -0.169  0.00  0.00    +0.060 A 
ATOM     26  C   LIG    1        6.411   8.550  -0.065  0.00  0.00    -0.180 A 
ATOM     27  S   LIG    1        4.949   9.004  -0.935  0.00  0.00    +0.110 S 
ENDBRANCH   7  19
TORSDOF 2
