REMARK  Name = ZINCnE000001I2V7.1
REMARK                            x       y       z     vdW  Elec       q    Type
REMARK                         _______ _______ _______ _____ _____    ______ ____
ROOT
ATOM      1  N   LIG    1        3.125   0.692  -1.606  0.00  0.00    -1.080 NA
ENDROOT
BRANCH   1   2
ATOM      2  C   LIG    1        4.312   0.029  -1.930  0.00  0.00    +0.270 A 
ATOM      3  C   LIG    1        5.146  -0.438  -0.920  0.00  0.00    -0.110 A 
ATOM      4  C   LIG    1        6.320  -1.095  -1.234  0.00  0.00    +0.060 A 
ATOM      5  C   LIG    1        6.674  -1.294  -2.555  0.00  0.00    -0.080 A 
ATOM      6  C   LIG    1        5.843  -0.828  -3.578  0.00  0.00    -0.080 A 
ATOM      7 CL   LIG    1        8.150  -2.119  -2.943  0.00  0.00    -0.080 Cl
ATOM      8  C   LIG    1        4.654  -0.169  -3.259  0.00  0.00    +0.030 A 
BRANCH   6   9
ATOM      9  C   LIG    1        6.217  -1.038  -4.990  0.00  0.00    +0.510 C 
ATOM     10  O   LIG    1        7.250  -1.617  -5.265  0.00  0.00    -0.500 OA
BRANCH   9  11
ATOM     11  O   LIG    1        5.415  -0.589  -5.974  0.00  0.00    -0.350 OA
ATOM     12  C   LIG    1        5.846  -0.830  -7.340  0.00  0.00    +0.260 C 
ENDBRANCH   9  11
ENDBRANCH   6   9
ENDBRANCH   1   2
BRANCH   1  13
ATOM     13  S   LIG    1        2.713   0.923  -0.019  0.00  0.00    +2.610 S 
ATOM     14  O   LIG    1        2.458  -0.366   0.521  0.00  0.00    -1.030 OA
ATOM     15  O   LIG    1        3.678   1.815   0.521  0.00  0.00    -1.030 OA
BRANCH  13  19
ATOM     16  C   LIG    1       -1.238   3.133   0.030  0.00  0.00    -0.050 A 
ATOM     17  C   LIG    1       -1.219   1.751   0.017  0.00  0.00    -0.030 A 
ATOM     18  C   LIG    1       -0.013   1.076   0.008  0.00  0.00    +0.120 A 
ATOM     19  C   LIG    1        1.175   1.783   0.000  0.00  0.00    -0.620 A 
ATOM     20  C   LIG    1        1.156   3.165   0.008  0.00  0.00    +0.120 A 
ATOM     21  C   LIG    1       -0.050   3.840   0.022  0.00  0.00    -0.030 A 
BRANCH  16  23
ATOM     22  C   LIG    1       -3.012   4.125  -1.390  0.00  0.00    +0.030 C 
ATOM     23  C   LIG    1       -2.553   3.869   0.047  0.00  0.00    +0.050 C 
ENDBRANCH  16  23
ENDBRANCH  13  19
ENDBRANCH   1  13
TORSDOF 6
