REMARK  Name = ZINCvU00000007Ab.0
REMARK                            x       y       z     vdW  Elec       q    Type
REMARK                         _______ _______ _______ _____ _____    ______ ____
ROOT
ATOM      1  C   LIG    1        6.358  -1.959  -5.009  0.00  0.00    +0.190 A 
ATOM      2  C   LIG    1        5.505  -2.184  -3.933  0.00  0.00    -0.010 A 
ATOM      3  C   LIG    1        5.359  -1.225  -2.957  0.00  0.00    +0.120 A 
ATOM      4  C   LIG    1        6.069  -0.025  -3.046  0.00  0.00    -0.140 A 
ATOM      5  C   LIG    1        6.922   0.200  -4.131  0.00  0.00    +0.180 A 
ATOM      6  C   LIG    1        7.067  -0.764  -5.101  0.00  0.00    -0.040 A 
ENDROOT
BRANCH   1  11
ATOM      7  C   LIG    1        6.292  -6.381  -8.507  0.00  0.00    +0.010 C 
ATOM      8  C   LIG    1        6.002  -5.435  -7.340  0.00  0.00    -0.020 C 
ATOM      9  C   LIG    1        5.471  -4.104  -7.880  0.00  0.00    +0.040 C 
ATOM     10  C   LIG    1        5.240  -3.141  -6.714  0.00  0.00    +0.190 C 
ATOM     11  N   LIG    1        6.503  -2.929  -5.995  0.00  0.00    -0.500 N 
ATOM     12  C   LIG    1        7.007  -4.186  -5.427  0.00  0.00    +0.180 C 
ATOM     13  C   LIG    1        7.291  -5.180  -6.555  0.00  0.00    +0.040 C 
ENDBRANCH   1  11
BRANCH   4  14
ATOM     14  C   LIG    1        5.915   1.005  -2.001  0.00  0.00    +0.570 C 
ATOM     15  N   LIG    1        5.477   0.660  -0.774  0.00  0.00    -0.590 N 
ATOM     16  C   LIG    1        5.251  -0.750  -0.447  0.00  0.00    +0.300 C 
ATOM     17  O   LIG    1        6.183   2.165  -2.247  0.00  0.00    -0.520 OA
BRANCH  15  18
ATOM     18  C   LIG    1        5.225   1.695   0.232  0.00  0.00    +0.350 C 
ATOM     19  C   LIG    1        6.120   1.451   1.449  0.00  0.00    +0.070 C 
BRANCH  18  20
ATOM     20  C   LIG    1        3.779   1.645   0.653  0.00  0.00    +0.070 A 
ATOM     21  N   LIG    1        3.145   0.568   0.925  0.00  0.00    -0.450 NA
ATOM     22  C   LIG    1        1.853   0.673   1.289  0.00  0.00    +0.080 A 
ATOM     23  C   LIG    1        0.931  -0.334   1.639  0.00  0.00    +0.070 A 
ATOM     24  C   LIG    1       -0.348  -0.011   1.975  0.00  0.00    +0.030 A 
ATOM     25  C   LIG    1       -0.766   1.312   1.991  0.00  0.00    +0.040 A 
ATOM     26  C   LIG    1        0.113   2.317   1.654  0.00  0.00    +0.060 A 
ATOM     27  C   LIG    1        1.424   2.006   1.302  0.00  0.00    -0.180 A 
ATOM     28  S   LIG    1        2.782   3.020   0.826  0.00  0.00    +0.130 S 
ENDBRANCH  18  20
ENDBRANCH  15  18
ENDBRANCH   4  14
BRANCH   6  29
ATOM     29  N   LIG    1        7.974  -0.529  -6.248  0.00  0.00    +0.030 N 
ATOM     30  O   LIG    1        8.029  -1.338  -7.156  0.00  0.00    -0.090 OA
ATOM     31  O   LIG    1        8.665   0.474  -6.282  0.00  0.00    -0.190 OA
ENDBRANCH   6  29
TORSDOF 5
