REMARK  Name = ZINCrD000000fIXV.0
REMARK                            x       y       z     vdW  Elec       q    Type
REMARK                         _______ _______ _______ _____ _____    ______ ____
ROOT
ATOM      1  C   LIG    1       -3.993   4.683   6.657  0.00  0.00    -0.010 C 
ATOM      2  C   LIG    1       -5.310   4.077   6.169  0.00  0.00    +0.100 C 
ENDROOT
BRANCH   1   3
ATOM      3  C   LIG    1       -4.273   5.674   7.757  0.00  0.00    +0.420 C 
ATOM      4  O   LIG    1       -4.385   6.854   7.497  0.00  0.00    -0.430 OA
BRANCH   3   8
ATOM      5  C   LIG    1       -4.672   4.341  11.758  0.00  0.00    +0.190 A 
ATOM      6  C   LIG    1       -4.800   5.695  11.461  0.00  0.00    +0.000 A 
ATOM      7  C   LIG    1       -4.672   6.131  10.168  0.00  0.00    +0.110 A 
ATOM      8  C   LIG    1       -4.411   5.212   9.144  0.00  0.00    -0.180 A 
ATOM      9  C   LIG    1       -4.288   3.850   9.446  0.00  0.00    +0.090 A 
ATOM     10  C   LIG    1       -4.413   3.424  10.743  0.00  0.00    -0.020 A 
BRANCH   5  13
ATOM     11  C   LIG    1       -5.715   4.129  15.362  0.00  0.00    +0.110 C 
ATOM     12  C   LIG    1       -5.658   4.525  13.909  0.00  0.00    +0.510 C 
ATOM     13  N   LIG    1       -4.804   3.902  13.073  0.00  0.00    -0.680 N 
ATOM     14  H   LIG    1       -4.280   3.148  13.388  0.00  0.00    +0.420 HD
ATOM     15  O   LIG    1       -6.382   5.404  13.492  0.00  0.00    -0.520 OA
ENDBRANCH   5  13
ENDBRANCH   3   8
ENDBRANCH   1   3
BRANCH   1  16
ATOM     16  S   LIG    1       -3.168   5.527   5.279  0.00  0.00    +0.090 S 
BRANCH  16  17
ATOM     17  C   LIG    1       -2.792   4.207   4.174  0.00  0.00    +0.240 A 
ATOM     18  N   LIG    1       -2.181   4.337   3.013  0.00  0.00    -0.310 NA
ATOM     19  N   LIG    1       -2.081   3.054   2.458  0.00  0.00    -0.320 N 
ATOM     20  C   LIG    1       -2.660   2.198   3.352  0.00  0.00    +0.460 A 
ATOM     21  N   LIG    1       -2.714   0.886   3.092  0.00  0.00    -0.460 NA
ATOM     22  C   LIG    1       -2.215   0.398   1.978  0.00  0.00    +0.240 A 
ATOM     23  C   LIG    1       -1.615   1.248   1.042  0.00  0.00    -0.190 A 
ATOM     24  C   LIG    1       -1.042   0.691  -0.235  0.00  0.00    +0.150 C 
ATOM     25  C   LIG    1       -2.289  -1.082   1.709  0.00  0.00    +0.180 C 
ATOM     26  C   LIG    1       -1.550   2.580   1.301  0.00  0.00    +0.200 A 
ATOM     27  C   LIG    1       -0.905   3.520   0.315  0.00  0.00    +0.170 C 
ATOM     28  N   LIG    1       -3.082   2.925   4.381  0.00  0.00    -0.530 NA
ENDBRANCH  16  17
ENDBRANCH   1  16
TORSDOF 5
