REMARK  Name = ZINCrH000004qQaH.0
REMARK                            x       y       z     vdW  Elec       q    Type
REMARK                         _______ _______ _______ _____ _____    ______ ____
ROOT
ATOM      1  C   LIG    1        1.180  -2.071   0.664  0.00  0.00    +0.520 C 
ATOM      2  N   LIG    1        2.263  -2.873   0.643  0.00  0.00    -0.720 N 
ATOM      3  H   LIG    1        3.138  -2.502   0.451  0.00  0.00    +0.410 HD
ATOM      4  O   LIG    1        0.086  -2.535   0.904  0.00  0.00    -0.500 OA
ENDROOT
BRANCH   1   5
ATOM      5  C   LIG    1        1.329  -0.597   0.389  0.00  0.00    +0.240 C 
BRANCH   5   6
ATOM      6  O   LIG    1        0.050   0.034   0.469  0.00  0.00    -0.280 OA
BRANCH   6  10
ATOM      7  C   LIG    1       -2.555   4.149   0.144  0.00  0.00    +0.130 C 
ATOM      8  C   LIG    1       -1.242   3.413   0.078  0.00  0.00    +0.030 A 
ATOM      9  C   LIG    1       -1.203   2.050   0.300  0.00  0.00    +0.010 A 
ATOM     10  C   LIG    1        0.008   1.374   0.245  0.00  0.00    +0.190 A 
ATOM     11  C   LIG    1        1.174   2.067  -0.045  0.00  0.00    -0.070 A 
ATOM     12  C   LIG    1        1.128   3.429  -0.273  0.00  0.00    +0.160 A 
ATOM     13  C   LIG    1       -0.078   4.101  -0.211  0.00  0.00    -0.090 A 
BRANCH  13  14
ATOM     14  N   LIG    1       -0.124   5.561  -0.455  0.00  0.00    +0.040 N 
ATOM     15  O   LIG    1       -1.196   6.134  -0.517  0.00  0.00    -0.160 OA
ATOM     16  O   LIG    1        0.911   6.188  -0.593  0.00  0.00    -0.170 OA
ENDBRANCH  13  14
ENDBRANCH   6  10
ENDBRANCH   5   6
ENDBRANCH   1   5
BRANCH   2  17
ATOM     17  C   LIG    1        2.118  -4.306   0.910  0.00  0.00    +0.410 C 
BRANCH  17  18
ATOM     18  C   LIG    1        3.250  -5.056   0.257  0.00  0.00    -0.100 A 
ATOM     19  C   LIG    1        4.529  -4.530   0.275  0.00  0.00    +0.010 A 
ATOM     20  C   LIG    1        5.568  -5.220  -0.321  0.00  0.00    +0.010 A 
ATOM     21  C   LIG    1        5.327  -6.432  -0.941  0.00  0.00    +0.020 A 
ATOM     22  C   LIG    1        4.048  -6.955  -0.964  0.00  0.00    +0.020 A 
ATOM     23  C   LIG    1        3.010  -6.267  -0.364  0.00  0.00    +0.030 A 
ENDBRANCH  17  18
BRANCH  17  24
ATOM     24  C   LIG    1        2.149  -4.546   2.398  0.00  0.00    -0.030 A 
ATOM     25  C   LIG    1        1.371  -5.412   3.072  0.00  0.00    -0.040 A 
ATOM     26  C   LIG    1        1.734  -5.314   4.434  0.00  0.00    -0.060 A 
ATOM     27  C   LIG    1        2.707  -4.388   4.513  0.00  0.00    +0.160 A 
ATOM     28  O   LIG    1        2.954  -3.926   3.276  0.00  0.00    -0.170 OA
ENDBRANCH  17  24
ENDBRANCH   2  17
TORSDOF 7
