REMARK  Name = ZINCkj000005hCYB.1
REMARK                            x       y       z     vdW  Elec       q    Type
REMARK                         _______ _______ _______ _____ _____    ______ ____
ROOT
ATOM      1  N   LIG    1       -1.195   2.161   0.019  0.00  0.00    -0.700 N 
ATOM      2  H   LIG    1       -2.028   1.664   0.021  0.00  0.00    +0.410 HD
ATOM      3  C   LIG    1       -0.018   1.503   0.010  0.00  0.00    +0.510 C 
ATOM      4  O   LIG    1        1.024   2.123   0.004  0.00  0.00    -0.520 OA
ENDROOT
BRANCH   1   5
ATOM      5  C   LIG    1       -1.214   3.626   0.028  0.00  0.00    +0.280 C 
BRANCH   5   6
ATOM      6  C   LIG    1       -2.664   4.116   0.037  0.00  0.00    +0.040 C 
BRANCH   6   7
ATOM      7  C   LIG    1       -2.684   5.646   0.045  0.00  0.00    +0.110 C 
BRANCH   7   8
ATOM      8  C   LIG    1       -4.112   6.129   0.055  0.00  0.00    +0.460 C 
ATOM      9  O   LIG    1       -5.020   5.331   0.055  0.00  0.00    -0.510 OA
BRANCH   8  11
ATOM     10  C   LIG    1       -5.773   7.838   0.072  0.00  0.00    +0.280 C 
ATOM     11  O   LIG    1       -4.375   7.445   0.063  0.00  0.00    -0.360 OA
ENDBRANCH   8  11
ENDBRANCH   7   8
ENDBRANCH   6   7
ENDBRANCH   5   6
ENDBRANCH   1   5
BRANCH   3  12
ATOM     12  C   LIG    1        0.002  -0.004   0.002  0.00  0.00    +0.220 C 
BRANCH  12  13
ATOM     13  C   LIG    1       -0.251  -0.502  -1.398  0.00  0.00    -0.150 A 
ATOM     14  C   LIG    1        0.775  -0.512  -2.324  0.00  0.00    +0.010 A 
ATOM     15  C   LIG    1        0.544  -0.973  -3.606  0.00  0.00    +0.040 A 
ATOM     16  C   LIG    1       -0.716  -1.416  -3.965  0.00  0.00    +0.060 A 
ATOM     17  C   LIG    1       -1.743  -1.401  -3.041  0.00  0.00    +0.040 A 
ATOM     18  C   LIG    1       -1.511  -0.944  -1.757  0.00  0.00    +0.050 A 
ENDBRANCH  12  13
BRANCH  12  19
ATOM     19  N   LIG    1        1.315  -0.478   0.461  0.00  0.00    -0.370 N 
ATOM     20  C   LIG    1        1.334  -1.947   0.453  0.00  0.00    +0.340 C 
ATOM     21  C   LIG    1        1.561   0.007   1.825  0.00  0.00    +0.320 C 
ATOM     22  H   LIG    1        2.033  -0.129  -0.156  0.00  0.00    +0.430 HD
ENDBRANCH  12  19
ENDBRANCH   3  12
TORSDOF 8
