REMARK  Name = ZINCkj000005g6aL.0
REMARK                            x       y       z     vdW  Elec       q    Type
REMARK                         _______ _______ _______ _____ _____    ______ ____
ROOT
ATOM      1  S   LIG    1       -4.678  -1.051  -0.644  0.00  0.00    +2.710 S 
ATOM      2  O   LIG    1       -3.693  -1.323  -1.632  0.00  0.00    -0.940 OA
ATOM      3  O   LIG    1       -5.928  -0.443  -0.939  0.00  0.00    -0.930 OA
ENDROOT
BRANCH   1   4
ATOM      4  C   LIG    1       -3.902  -0.030   0.564  0.00  0.00    -0.660 A 
ATOM      5  C   LIG    1       -2.587   0.359   0.397  0.00  0.00    +0.100 A 
ATOM      6  C   LIG    1       -1.976   1.163   1.348  0.00  0.00    +0.110 A 
ATOM      7  C   LIG    1       -2.683   1.570   2.471  0.00  0.00    -0.040 A 
ATOM      8  C   LIG    1       -4.000   1.184   2.635  0.00  0.00    +0.000 A 
ATOM      9 BR   LIG    1       -1.847   2.659   3.771  0.00  0.00    +0.000 Br
ATOM     10  C   LIG    1       -4.611   0.381   1.684  0.00  0.00    +0.180 A 
BRANCH   6  11
ATOM     11  O   LIG    1       -0.682   1.547   1.184  0.00  0.00    -0.300 OA
ATOM     12  C   LIG    1       -0.013   1.086   0.008  0.00  0.00    +0.250 C 
ENDBRANCH   6  11
BRANCH  10  13
ATOM     13  O   LIG    1       -5.905  -0.003   1.848  0.00  0.00    -0.320 OA
ATOM     14  C   LIG    1       -6.574   0.457   3.023  0.00  0.00    +0.250 C 
ENDBRANCH  10  13
ENDBRANCH   1   4
BRANCH   1  15
ATOM     15  N   LIG    1       -5.022  -2.498   0.084  0.00  0.00    -1.110 NA
ATOM     16  H   LIG    1       -4.583  -3.309  -0.217  0.00  0.00    +0.430 HD
BRANCH  15  17
ATOM     17  C   LIG    1       -5.990  -2.553   1.183  0.00  0.00    +0.290 C 
BRANCH  17  18
ATOM     18  C   LIG    1       -6.405  -4.006   1.424  0.00  0.00    +0.260 C 
BRANCH  18  19
ATOM     19  N   LIG    1       -7.375  -4.061   2.526  0.00  0.00    -0.510 N 
ATOM     20  H   LIG    1       -8.188  -3.515   2.286  0.00  0.00    +0.430 HD
ATOM     21  H   LIG    1       -6.954  -3.688   3.364  0.00  0.00    +0.430 HD
BRANCH  19  23
ATOM     22  C   LIG    1       -8.784  -5.514   3.905  0.00  0.00    +0.080 C 
ATOM     23  C   LIG    1       -7.774  -5.456   2.757  0.00  0.00    +0.250 C 
ENDBRANCH  19  23
ENDBRANCH  18  19
ENDBRANCH  17  18
ENDBRANCH  15  17
ENDBRANCH   1  15
TORSDOF 8
