REMARK  Name = ZINCpe000027pHrU.1
REMARK                            x       y       z     vdW  Elec       q    Type
REMARK                         _______ _______ _______ _____ _____    ______ ____
ROOT
ATOM      1  C   LIG    1        2.866   4.531  -0.393  0.00  0.00    +0.600 C 
ATOM      2  N   LIG    1        3.526   3.385  -0.134  0.00  0.00    -0.610 N 
ATOM      3  C   LIG    1        2.903   2.069   0.098  0.00  0.00    +0.290 C 
ATOM      4  C   LIG    1        3.945   1.278   0.928  0.00  0.00    +0.280 C 
ATOM      5  C   LIG    1        5.277   1.761   0.297  0.00  0.00    +0.150 C 
ATOM      6  C   LIG    1        4.986   3.238  -0.043  0.00  0.00    +0.280 C 
ATOM      7  O   LIG    1        3.487   5.543  -0.659  0.00  0.00    -0.500 OA
ENDROOT
BRANCH   1  16
ATOM      8  C   LIG    1       -1.566   3.602  -2.506  0.00  0.00    +0.120 C 
ATOM      9  C   LIG    1       -0.750   4.121  -1.351  0.00  0.00    -0.120 A 
ATOM     10  C   LIG    1       -1.380   4.620  -0.265  0.00  0.00    +0.250 A 
ATOM     11  N   LIG    1       -0.689   5.102   0.805  0.00  0.00    -0.370 N 
ATOM     12  C   LIG    1       -1.086   5.642   2.000  0.00  0.00    +0.100 A 
ATOM     13  C   LIG    1        0.033   5.952   2.688  0.00  0.00    +0.230 A 
ATOM     14  N   LIG    1        1.095   5.610   1.952  0.00  0.00    -0.480 NA
ATOM     15  C   LIG    1        0.683   5.094   0.809  0.00  0.00    +0.240 A 
ATOM     16  C   LIG    1        1.395   4.559  -0.355  0.00  0.00    -0.090 A 
ATOM     17  C   LIG    1        0.645   4.079  -1.422  0.00  0.00    +0.100 A 
ENDBRANCH   1  16
BRANCH   4  18
ATOM     18  N   LIG    1        3.872   1.642   2.345  0.00  0.00    -0.270 N 
ATOM     19  C   LIG    1        3.582   2.869   2.835  0.00  0.00    +0.150 A 
ATOM     20  C   LIG    1        3.623   2.757   4.183  0.00  0.00    +0.130 A 
ATOM     21  N   LIG    1        3.932   1.483   4.449  0.00  0.00    -0.270 NA
ATOM     22  N   LIG    1        4.067   0.847   3.339  0.00  0.00    -0.080 NA
ENDBRANCH   4  18
BRANCH   5  23
ATOM     23  N   LIG    1        6.379   1.651   1.263  0.00  0.00    -0.530 NA
ATOM     24  C   LIG    1        7.582   2.335   0.769  0.00  0.00    +0.200 C 
ATOM     25  C   LIG    1        6.665   0.245   1.577  0.00  0.00    +0.200 C 
ENDBRANCH   5  23
TORSDOF 3
