REMARK  Name = ZINCpk00000ea1HJ.0
REMARK                            x       y       z     vdW  Elec       q    Type
REMARK                         _______ _______ _______ _____ _____    ______ ____
ROOT
ATOM      1  C   LIG    1       -3.209  -3.485   1.844  0.00  0.00    +0.020 C 
ATOM      2  C   LIG    1       -3.733  -2.435   0.848  0.00  0.00    +0.300 C 
ATOM      3  N   LIG    1       -2.527  -1.954   0.134  0.00  0.00    -0.620 N 
ATOM      4  C   LIG    1       -1.709  -3.173  -0.066  0.00  0.00    +0.290 C 
ATOM      5  C   LIG    1       -2.238  -0.693  -0.242  0.00  0.00    +0.540 C 
ATOM      6  O   LIG    1       -1.198  -0.456  -0.819  0.00  0.00    -0.510 OA
ATOM      7  C   LIG    1       -1.872  -3.971   1.246  0.00  0.00    +0.070 C 
ENDROOT
BRANCH   5   8
ATOM      8  C   LIG    1       -3.206   0.423   0.053  0.00  0.00    +0.260 C 
ATOM      9  C   LIG    1       -3.095   1.499  -1.028  0.00  0.00    +0.050 C 
ATOM     10  C   LIG    1       -2.764   0.881  -2.374  0.00  0.00    +0.020 C 
ATOM     11  C   LIG    1       -3.873   0.013  -2.945  0.00  0.00    +0.030 C 
ATOM     12  C   LIG    1       -4.079  -1.235  -2.083  0.00  0.00    +0.040 C 
ATOM     13  C   LIG    1       -5.006  -0.886  -0.938  0.00  0.00    +0.520 C 
ATOM     14  O   LIG    1       -6.139  -1.318  -0.925  0.00  0.00    -0.530 OA
ATOM     15  N   LIG    1       -4.581  -0.103   0.055  0.00  0.00    -0.730 N 
ATOM     16  H   LIG    1       -5.182   0.120   0.783  0.00  0.00    +0.410 HD
ENDBRANCH   5   8
BRANCH   7  17
ATOM     17  C   LIG    1       -1.934  -5.449   0.956  0.00  0.00    -0.100 A 
ATOM     18  C   LIG    1       -2.746  -5.920  -0.059  0.00  0.00    +0.010 A 
ATOM     19  C   LIG    1       -2.799  -7.275  -0.328  0.00  0.00    +0.000 A 
ATOM     20  C   LIG    1       -2.049  -8.159   0.424  0.00  0.00    +0.010 A 
ATOM     21  C   LIG    1       -1.241  -7.688   1.442  0.00  0.00    +0.000 A 
ATOM     22  C   LIG    1       -1.183  -6.333   1.708  0.00  0.00    +0.020 A 
ENDBRANCH   7  17
BRANCH   1  23
ATOM     23  C   LIG    1       -4.178  -4.633   1.961  0.00  0.00    +0.480 C 
ATOM     24  O   LIG    1       -5.014  -4.807   1.106  0.00  0.00    -0.490 OA
BRANCH  23  26
ATOM     25  C   LIG    1       -5.079  -6.546   3.061  0.00  0.00    +0.260 C 
ATOM     26  O   LIG    1       -4.113  -5.462   3.014  0.00  0.00    -0.350 OA
ENDBRANCH  23  26
ENDBRANCH   1  23
TORSDOF 4
