REMARK  Name = ZINCpe000027pHeF.0
REMARK                            x       y       z     vdW  Elec       q    Type
REMARK                         _______ _______ _______ _____ _____    ______ ____
ROOT
ATOM      1  C   LIG    1       -2.969   2.565  -1.501  0.00  0.00    +0.590 C 
ATOM      2  N   LIG    1       -2.222   1.538  -1.050  0.00  0.00    -0.590 N 
ATOM      3  C   LIG    1       -2.894   0.401  -0.460  0.00  0.00    +0.290 C 
ATOM      4  C   LIG    1       -3.035   0.618   1.068  0.00  0.00    +0.040 C 
ATOM      5  C   LIG    1       -1.708   0.537   1.708  0.00  0.00    +0.200 C 
ATOM      6  N   LIG    1       -0.761   1.560   1.263  0.00  0.00    -0.460 N 
ATOM      7  C   LIG    1       -0.042   1.113   0.089  0.00  0.00    +0.210 C 
ATOM      8  C   LIG    1       -0.752   1.623  -1.179  0.00  0.00    +0.270 C 
ATOM      9  O   LIG    1       -4.183   2.495  -1.466  0.00  0.00    -0.510 OA
ENDROOT
BRANCH   6  10
ATOM     10  C   LIG    1        0.112   1.901   2.280  0.00  0.00    +0.360 A 
ATOM     11  C   LIG    1        1.103   2.852   2.045  0.00  0.00    -0.070 A 
ATOM     12  C   LIG    1        1.960   3.189   3.055  0.00  0.00    +0.160 A 
ATOM     13  C   LIG    1        1.818   2.551   4.304  0.00  0.00    -0.280 A 
ATOM     14  C   LIG    1        2.588   2.710   5.542  0.00  0.00    +0.410 C 
ATOM     15  C   LIG    1        2.008   1.778   6.579  0.00  0.00    +0.050 C 
ATOM     16  C   LIG    1        0.848   1.060   5.875  0.00  0.00    +0.130 C 
ATOM     17  O   LIG    1        3.528   3.459   5.705  0.00  0.00    -0.440 OA
ATOM     18  C   LIG    1        0.806   1.604   4.466  0.00  0.00    +0.200 A 
ATOM     19  N   LIG    1       -0.002   1.314   3.463  0.00  0.00    -0.520 NA
ENDBRANCH   6  10
BRANCH   1  24
ATOM     20  O   LIG    1        0.055   5.531  -3.702  0.00  0.00    -0.490 OA
ATOM     21  C   LIG    1       -0.892   5.106  -3.067  0.00  0.00    +0.620 A 
ATOM     22  N   LIG    1       -1.129   3.812  -2.774  0.00  0.00    -0.640 N 
ATOM     23  H   LIG    1       -0.580   3.053  -3.029  0.00  0.00    +0.440 HD
ATOM     24  C   LIG    1       -2.317   3.768  -2.035  0.00  0.00    -0.050 A 
ATOM     25  C   LIG    1       -2.748   5.038  -1.902  0.00  0.00    +0.280 A 
ATOM     26  O   LIG    1       -1.875   5.848  -2.532  0.00  0.00    -0.230 OA
ENDBRANCH   1  24
TORSDOF 2
