REMARK  Name = ZINCrD000007151U.0
REMARK                            x       y       z     vdW  Elec       q    Type
REMARK                         _______ _______ _______ _____ _____    ______ ____
ROOT
ATOM      1  C   LIG    1        2.555  -0.082  -0.328  0.00  0.00    +0.510 C 
ATOM      2  N   LIG    1        3.538  -0.891   0.116  0.00  0.00    -0.650 N 
ATOM      3  H   LIG    1        4.185  -0.560   0.759  0.00  0.00    +0.420 HD
ATOM      4  O   LIG    1        1.694  -0.519  -1.062  0.00  0.00    -0.430 OA
ENDROOT
BRANCH   1  11
ATOM      5  C   LIG    1        0.064   1.037   0.624  0.00  0.00    +0.670 C 
ATOM      6  N   LIG    1        1.134   1.805   0.337  0.00  0.00    -0.600 N 
ATOM      7  C   LIG    1        1.185   3.280   0.207  0.00  0.00    +0.310 C 
ATOM      8  C   LIG    1        2.130   3.533  -0.987  0.00  0.00    -0.030 C 
ATOM      9  C   LIG    1        2.031   2.600  -2.195  0.00  0.00    +0.080 C 
ATOM     10  C   LIG    1        3.014   2.271  -1.070  0.00  0.00    -0.030 C 
ATOM     11  C   LIG    1        2.527   1.367   0.088  0.00  0.00    +0.280 C 
ATOM     12  O   LIG    1        0.163  -0.174   0.604  0.00  0.00    -0.530 OA
BRANCH   5  13
ATOM     13  O   LIG    1       -1.115   1.611   0.926  0.00  0.00    -0.360 OA
BRANCH  13  15
ATOM     14  C   LIG    1       -1.875  -0.154   2.421  0.00  0.00    +0.040 C 
ATOM     15  C   LIG    1       -2.226   0.722   1.217  0.00  0.00    +0.140 C 
ATOM     16  C   LIG    1       -2.501  -0.166   0.002  0.00  0.00    +0.040 C 
ATOM     17  C   LIG    1       -3.472   1.551   1.535  0.00  0.00    +0.080 C 
ENDBRANCH  13  15
ENDBRANCH   5  13
ENDBRANCH   1  11
BRANCH   2  18
ATOM     18  C   LIG    1        3.625  -2.212  -0.352  0.00  0.00    +0.320 A 
ATOM     19  C   LIG    1        4.645  -3.022  -0.023  0.00  0.00    -0.120 A 
ATOM     20  S   LIG    1        4.386  -4.579  -0.806  0.00  0.00    +0.130 S 
ATOM     21  C   LIG    1        2.893  -3.971  -1.515  0.00  0.00    +0.120 A 
ATOM     22  N   LIG    1        2.710  -2.738  -1.136  0.00  0.00    -0.430 NA
BRANCH  21  23
ATOM     23  C   LIG    1        1.988  -4.739  -2.396  0.00  0.00    +0.020 A 
ATOM     24  C   LIG    1        0.818  -4.162  -2.905  0.00  0.00    +0.030 A 
ATOM     25  C   LIG    1        0.005  -4.913  -3.728  0.00  0.00    +0.260 A 
ATOM     26  N   LIG    1        0.312  -6.161  -4.027  0.00  0.00    -0.480 NA
ATOM     27  C   LIG    1        1.401  -6.745  -3.565  0.00  0.00    +0.260 A 
ATOM     28  C   LIG    1        2.273  -6.065  -2.740  0.00  0.00    -0.010 A 
ENDBRANCH  21  23
ENDBRANCH   2  18
TORSDOF 5
