REMARK  Name = ZINCnE000004w2vI.0
REMARK                            x       y       z     vdW  Elec       q    Type
REMARK                         _______ _______ _______ _____ _____    ______ ____
ROOT
ATOM      1  N   LIG    1        2.296   3.913  -0.011  0.00  0.00    -0.640 N 
ATOM      2  H   LIG    1        3.154   3.467  -0.082  0.00  0.00    +0.420 HD
ATOM      3  C   LIG    1        2.241   5.256   0.084  0.00  0.00    +0.550 C 
ATOM      4  O   LIG    1        1.175   5.810   0.270  0.00  0.00    -0.530 OA
ENDROOT
BRANCH   3   5
ATOM      5  C   LIG    1        3.475   6.055  -0.040  0.00  0.00    -0.150 A 
ATOM      6  C   LIG    1        4.699   5.422  -0.254  0.00  0.00    +0.100 A 
ATOM      7  C   LIG    1        5.853   6.166  -0.370  0.00  0.00    -0.020 A 
ATOM      8  C   LIG    1        5.799   7.548  -0.278  0.00  0.00    +0.080 A 
ATOM      9  C   LIG    1        4.595   8.184  -0.070  0.00  0.00    -0.190 A 
ATOM     10  C   LIG    1        4.227   9.650   0.053  0.00  0.00    +0.020 C 
ATOM     11  C   LIG    1        4.596  10.192   1.436  0.00  0.00    +0.040 C 
ATOM     12  C   LIG    1        2.691   9.610  -0.150  0.00  0.00    +0.240 C 
ATOM     13  O   LIG    1        2.354   8.276   0.267  0.00  0.00    -0.270 OA
ATOM     14  C   LIG    1        3.418   7.458   0.052  0.00  0.00    +0.170 A 
ENDBRANCH   3   5
BRANCH   1  19
ATOM     15  C   LIG    1       -2.498   0.874  -0.006  0.00  0.00    +0.080 C 
ATOM     16  C   LIG    1       -1.221   1.675   0.001  0.00  0.00    -0.130 A 
ATOM     17  C   LIG    1       -1.189   2.924  -0.599  0.00  0.00    +0.000 A 
ATOM     18  C   LIG    1       -0.025   3.667  -0.605  0.00  0.00    -0.010 A 
ATOM     19  C   LIG    1        1.123   3.167  -0.005  0.00  0.00    +0.170 A 
ATOM     20  C   LIG    1        1.092   1.903   0.609  0.00  0.00    -0.160 A 
ATOM     21  C   LIG    1       -0.095   1.164   0.607  0.00  0.00    +0.060 A 
BRANCH  20  22
ATOM     22  C   LIG    1        2.301   1.361   1.248  0.00  0.00    +0.530 C 
ATOM     23  O   LIG    1        3.360   1.970   1.170  0.00  0.00    -0.690 OA
ATOM     24  O   LIG    1        2.248   0.303   1.859  0.00  0.00    -0.680 OA
ENDBRANCH  20  22
ENDBRANCH   1  19
TORSDOF 3
