REMARK  Name = ZINCrD0000072st9.0
REMARK                            x       y       z     vdW  Elec       q    Type
REMARK                         _______ _______ _______ _____ _____    ______ ____
ROOT
ATOM      1  O   LIG    1       -2.683   4.096   0.037  0.00  0.00    -0.330 OA
ENDROOT
BRANCH   1   2
ATOM      2  C   LIG    1       -2.871   5.430   0.045  0.00  0.00    +0.520 C 
ATOM      3  O   LIG    1       -1.914   6.178   0.045  0.00  0.00    -0.500 OA
BRANCH   2   9
ATOM      4  N   LIG    1       -7.948   7.777   0.081  0.00  0.00    -0.390 N 
ATOM      5  N   LIG    1       -7.508   9.109   0.086  0.00  0.00    +0.000 NA
ATOM      6  N   LIG    1       -6.222   9.137   0.080  0.00  0.00    -0.200 NA
ATOM      7  C   LIG    1       -5.728   7.875   0.072  0.00  0.00    -0.030 A 
ATOM      8  C   LIG    1       -4.430   7.359   0.069  0.00  0.00    +0.210 A 
ATOM      9  C   LIG    1       -4.239   5.983   0.055  0.00  0.00    -0.140 A 
ATOM     10  C   LIG    1       -5.343   5.117   0.055  0.00  0.00    +0.140 A 
ATOM     11  C   LIG    1       -6.611   5.614   0.064  0.00  0.00    +0.010 A 
ATOM     12  C   LIG    1       -6.823   6.991   0.072  0.00  0.00    +0.120 A 
BRANCH   4  14
ATOM     13  C   LIG    1       -9.816   7.146   1.528  0.00  0.00    +0.050 C 
ATOM     14  C   LIG    1       -9.338   7.315   0.084  0.00  0.00    +0.330 C 
ENDBRANCH   4  14
ENDBRANCH   2   9
ENDBRANCH   1   2
BRANCH   1  15
ATOM     15  C   LIG    1       -1.310   3.624   0.028  0.00  0.00    +0.240 C 
BRANCH  15  16
ATOM     16  C   LIG    1       -1.298   2.117   0.020  0.00  0.00    +0.400 C 
ATOM     17  O   LIG    1       -2.342   1.502   0.021  0.00  0.00    -0.430 OA
BRANCH  16  18
ATOM     18  C   LIG    1       -0.017   1.392   0.010  0.00  0.00    -0.170 A 
ATOM     19  C   LIG    1        1.192   2.095   0.002  0.00  0.00    +0.050 A 
ATOM     20  C   LIG    1        2.381   1.402  -0.016  0.00  0.00    +0.000 A 
ATOM     21  C   LIG    1        2.394   0.011  -0.027  0.00  0.00    -0.040 A 
ATOM     22  C   LIG    1        3.736  -0.673  -0.061  0.00  0.00    +0.070 C 
ATOM     23  C   LIG    1        3.606  -2.133   0.369  0.00  0.00    +0.020 C 
ATOM     24  C   LIG    1        2.489  -2.782  -0.457  0.00  0.00    +0.020 C 
ATOM     25  C   LIG    1        1.153  -2.195  -0.006  0.00  0.00    +0.080 C 
ATOM     26  C   LIG    1        1.206  -0.689  -0.013  0.00  0.00    -0.090 A 
ATOM     27  C   LIG    1        0.002  -0.004   0.002  0.00  0.00    +0.090 A 
ENDBRANCH  16  18
ENDBRANCH  15  16
ENDBRANCH   1  15
TORSDOF 6
