REMARK  Name = ZINCqH00000037EC.0
REMARK                            x       y       z     vdW  Elec       q    Type
REMARK                         _______ _______ _______ _____ _____    ______ ____
ROOT
ATOM      1  N   LIG    1        3.518   1.391  -6.372  0.00  0.00    -0.600 N 
ATOM      2  C   LIG    1        3.169   1.186  -5.086  0.00  0.00    +0.540 C 
ATOM      3  O   LIG    1        3.866   0.499  -4.370  0.00  0.00    -0.520 OA
ENDROOT
BRANCH   1   5
ATOM      4  C   LIG    1        3.132   3.679  -7.146  0.00  0.00    +0.020 C 
ATOM      5  C   LIG    1        2.675   2.221  -7.236  0.00  0.00    +0.270 C 
ENDBRANCH   1   5
BRANCH   2   6
ATOM      6  C   LIG    1        1.911   1.810  -4.538  0.00  0.00    +0.080 C 
BRANCH   6   7
ATOM      7  S   LIG    1        1.719   1.351  -2.798  0.00  0.00    +0.090 S 
BRANCH   7   8
ATOM      8  C   LIG    1        0.216   2.191  -2.424  0.00  0.00    +0.140 A 
ATOM      9  N   LIG    1       -0.495   2.924  -3.250  0.00  0.00    -0.290 NA
ATOM     10  N   LIG    1       -1.530   3.386  -2.643  0.00  0.00    -0.280 NA
ATOM     11  C   LIG    1       -1.544   2.975  -1.407  0.00  0.00    +0.230 A 
ATOM     12  N   LIG    1       -0.430   2.204  -1.222  0.00  0.00    -0.430 N 
BRANCH  11  13
ATOM     13  C   LIG    1       -2.592   3.293  -0.372  0.00  0.00    +0.040 C 
ATOM     14  C   LIG    1       -3.859   4.008  -0.847  0.00  0.00    +0.070 C 
ATOM     15  C   LIG    1       -2.816   4.766  -0.022  0.00  0.00    +0.050 C 
ENDBRANCH  11  13
BRANCH  12  16
ATOM     16  C   LIG    1       -0.019   1.526   0.010  0.00  0.00    +0.200 C 
ATOM     17  C   LIG    1        1.431   1.046   0.102  0.00  0.00    +0.070 C 
ATOM     18  C   LIG    1        0.300   0.032  -0.078  0.00  0.00    +0.060 C 
ENDBRANCH  12  16
ENDBRANCH   7   8
ENDBRANCH   6   7
ENDBRANCH   2   6
BRANCH   1  19
ATOM     19  C   LIG    1        4.741   0.785  -6.904  0.00  0.00    +0.350 C 
BRANCH  19  20
ATOM     20  C   LIG    1        4.421  -0.574  -7.472  0.00  0.00    -0.080 A 
ATOM     21  C   LIG    1        4.499  -1.695  -6.666  0.00  0.00    +0.030 A 
ATOM     22  C   LIG    1        4.201  -2.942  -7.184  0.00  0.00    +0.040 A 
ATOM     23  C   LIG    1        3.836  -3.071  -8.511  0.00  0.00    -0.010 A 
ATOM     24  C   LIG    1        3.763  -1.949  -9.320  0.00  0.00    +0.090 A 
ATOM     25  F   LIG    1        3.406  -2.074 -10.617  0.00  0.00    -0.140 F 
ATOM     26  C   LIG    1        4.056  -0.701  -8.799  0.00  0.00    -0.010 A 
ENDBRANCH  19  20
ENDBRANCH   1  19
TORSDOF 8
