REMARK  Name = ZINCrH000004szfc.0
REMARK                            x       y       z     vdW  Elec       q    Type
REMARK                         _______ _______ _______ _____ _____    ______ ____
ROOT
ATOM      1  N   LIG    1       -0.011   0.966   0.007  0.00  0.00    -0.670 N 
ATOM      2  H   LIG    1        0.026  -0.004   0.007  0.00  0.00    +0.410 HD
ATOM      3  C   LIG    1       -1.203   1.594   0.017  0.00  0.00    +0.520 C 
ATOM      4  O   LIG    1       -1.252   2.803  -0.067  0.00  0.00    -0.510 OA
ENDROOT
BRANCH   1  11
ATOM      5  C   LIG    1        5.519   6.124  -1.065  0.00  0.00    +0.190 C 
ATOM      6  C   LIG    1        4.446   5.090  -0.838  0.00  0.00    +0.120 A 
ATOM      7  N   LIG    1        4.595   4.023  -0.147  0.00  0.00    -0.460 NA
ATOM      8  C   LIG    1        3.542   3.189  -0.031  0.00  0.00    +0.070 A 
ATOM      9  C   LIG    1        3.455   1.966   0.668  0.00  0.00    +0.100 A 
ATOM     10  C   LIG    1        2.298   1.252   0.675  0.00  0.00    +0.010 A 
ATOM     11  C   LIG    1        1.174   1.712  -0.008  0.00  0.00    +0.160 A 
ATOM     12  C   LIG    1        1.233   2.904  -0.706  0.00  0.00    +0.070 A 
ATOM     13  C   LIG    1        2.411   3.648  -0.715  0.00  0.00    -0.150 A 
ATOM     14  S   LIG    1        2.813   5.181  -1.484  0.00  0.00    +0.050 S 
ENDBRANCH   1  11
BRANCH   3  15
ATOM     15  C   LIG    1       -2.476   0.795   0.133  0.00  0.00    -0.010 C 
ATOM     16  C   LIG    1       -2.583  -0.169  -1.052  0.00  0.00    +0.060 C 
ATOM     17  C   LIG    1       -3.906  -0.934  -0.962  0.00  0.00    +0.210 C 
ATOM     18  N   LIG    1       -5.025   0.016  -0.978  0.00  0.00    -0.480 N 
ATOM     19  C   LIG    1       -4.969   0.922   0.176  0.00  0.00    +0.230 C 
ATOM     20  C   LIG    1       -3.678   1.743   0.120  0.00  0.00    +0.060 C 
BRANCH  18  21
ATOM     21  C   LIG    1       -6.240  -0.648  -1.030  0.00  0.00    +0.340 A 
ATOM     22  C   LIG    1       -6.484  -1.555  -2.058  0.00  0.00    -0.040 A 
ATOM     23  C   LIG    1       -7.685  -2.210  -2.106  0.00  0.00    +0.150 A 
ATOM     24  C   LIG    1       -8.635  -1.940  -1.109  0.00  0.00    -0.110 A 
ATOM     25  C   LIG    1       -8.322  -1.019  -0.108  0.00  0.00    +0.360 A 
ATOM     26  N   LIG    1       -7.152  -0.415  -0.096  0.00  0.00    -0.520 NA
BRANCH  24  27
ATOM     27  C   LIG    1       -9.905  -2.601  -1.117  0.00  0.00    +0.260 C 
ATOM     28  N   LIG    1      -10.913  -3.125  -1.124  0.00  0.00    -0.410 NA
ENDBRANCH  24  27
ENDBRANCH  18  21
ENDBRANCH   3  15
TORSDOF 4
