REMARK  Name = ZINCnE000004RdwH.0
REMARK                            x       y       z     vdW  Elec       q    Type
REMARK                         _______ _______ _______ _____ _____    ______ ____
ROOT
ATOM      1  S   LIG    1        2.393   5.138   0.694  0.00  0.00    +2.680 S 
ATOM      2  O   LIG    1        1.078   5.235   0.164  0.00  0.00    -0.950 OA
ATOM      3  O   LIG    1        3.403   6.108   0.450  0.00  0.00    -0.950 OA
ENDROOT
BRANCH   1   9
ATOM      4  C   LIG    1       -0.552   4.948   5.008  0.00  0.00    +0.100 C 
ATOM      5  C   LIG    1        0.821   4.949   4.387  0.00  0.00    -0.120 A 
ATOM      6  C   LIG    1        1.943   4.866   5.190  0.00  0.00    +0.070 A 
ATOM      7  C   LIG    1        3.202   4.867   4.620  0.00  0.00    -0.120 A 
ATOM      8  C   LIG    1        3.340   4.950   3.248  0.00  0.00    +0.020 A 
ATOM      9  C   LIG    1        2.218   5.032   2.444  0.00  0.00    -0.670 A 
ATOM     10  C   LIG    1        4.713   4.951   2.626  0.00  0.00    +0.110 C 
ATOM     11  C   LIG    1        4.426   4.777   5.496  0.00  0.00    +0.090 C 
ATOM     12  C   LIG    1        0.959   5.037   3.014  0.00  0.00    +0.020 A 
ATOM     13  C   LIG    1       -0.265   5.133   2.139  0.00  0.00    +0.110 C 
ENDBRANCH   1   9
BRANCH   1  14
ATOM     14  N   LIG    1        3.002   3.689   0.173  0.00  0.00    -1.020 N 
ATOM     15  H   LIG    1        3.899   3.642  -0.191  0.00  0.00    +0.440 HD
BRANCH  14  16
ATOM     16  C   LIG    1        2.227   2.541   0.258  0.00  0.00    +0.210 A 
ATOM     17  C   LIG    1        1.335   2.376   1.311  0.00  0.00    -0.070 A 
ATOM     18  C   LIG    1        0.567   1.233   1.393  0.00  0.00    +0.030 A 
ATOM     19  C   LIG    1        0.672   0.244   0.427  0.00  0.00    -0.040 A 
ATOM     20  C   LIG    1        1.553   0.386  -0.622  0.00  0.00    +0.070 A 
ATOM     21  C   LIG    1        2.340   1.538  -0.720  0.00  0.00    -0.160 A 
BRANCH  21  22
ATOM     22  C   LIG    1        3.280   1.699  -1.840  0.00  0.00    +0.530 C 
ATOM     23  O   LIG    1        3.967   2.709  -1.922  0.00  0.00    -0.680 OA
ATOM     24  O   LIG    1        3.376   0.824  -2.689  0.00  0.00    -0.680 OA
ENDBRANCH  21  22
ENDBRANCH  14  16
ENDBRANCH   1  14
TORSDOF 4
