REMARK  Name = ZINCrD00000753ld.0
REMARK                            x       y       z     vdW  Elec       q    Type
REMARK                         _______ _______ _______ _____ _____    ______ ____
ROOT
ATOM      1  C   LIG    1       -3.087   3.088   1.476  0.00  0.00    +0.460 C 
ATOM      2  O   LIG    1       -3.619   3.388   0.434  0.00  0.00    -0.500 OA
ENDROOT
BRANCH   1   3
ATOM      3  O   LIG    1       -3.667   3.408   2.643  0.00  0.00    -0.350 OA
BRANCH   3   4
ATOM      4  C   LIG    1       -4.934   4.115   2.577  0.00  0.00    +0.320 C 
BRANCH   4  15
ATOM      5  C   LIG    1       -6.638   2.188   3.889  0.00  0.00    +0.150 C 
ATOM      6  C   LIG    1       -6.254   3.456   4.608  0.00  0.00    +0.130 A 
ATOM      7  N   LIG    1       -6.694   3.670   5.827  0.00  0.00    -0.430 NA
ATOM      8  C   LIG    1       -6.359   4.798   6.464  0.00  0.00    +0.090 A 
ATOM      9  C   LIG    1       -6.818   5.059   7.767  0.00  0.00    +0.050 A 
ATOM     10  C   LIG    1       -6.460   6.215   8.389  0.00  0.00    +0.050 A 
ATOM     11  C   LIG    1       -5.643   7.149   7.753  0.00  0.00    +0.040 A 
ATOM     12  C   LIG    1       -5.179   6.929   6.492  0.00  0.00    +0.060 A 
ATOM     13  C   LIG    1       -5.528   5.747   5.817  0.00  0.00    +0.070 A 
ATOM     14  N   LIG    1       -5.088   5.503   4.578  0.00  0.00    -0.400 NA
ATOM     15  C   LIG    1       -5.430   4.388   3.973  0.00  0.00    +0.100 A 
ENDBRANCH   4  15
ENDBRANCH   3   4
ENDBRANCH   1   3
BRANCH   1  16
ATOM     16  C   LIG    1       -1.771   2.353   1.466  0.00  0.00    +0.110 C 
BRANCH  16  17
ATOM     17  C   LIG    1       -1.333   2.113   0.020  0.00  0.00    +0.120 C 
BRANCH  17  18
ATOM     18  C   LIG    1       -0.017   1.378   0.010  0.00  0.00    -0.080 A 
ATOM     19  C   LIG    1        1.169   2.088   0.002  0.00  0.00    +0.020 A 
ATOM     20  C   LIG    1        2.378   1.418  -0.014  0.00  0.00    +0.030 A 
ATOM     21  C   LIG    1        2.404   0.031  -0.024  0.00  0.00    +0.050 A 
ATOM     22  O   LIG    1        3.602  -0.614  -0.044  0.00  0.00    -0.310 OA
ATOM     23  C   LIG    1        3.594  -1.998   0.325  0.00  0.00    +0.220 C 
ATOM     24  C   LIG    1        2.433  -2.684  -0.409  0.00  0.00    +0.220 C 
ATOM     25  O   LIG    1        1.214  -2.043  -0.018  0.00  0.00    -0.310 OA
ATOM     26  C   LIG    1        1.211  -0.682  -0.014  0.00  0.00    +0.050 A 
ATOM     27  C   LIG    1        0.002  -0.004   0.002  0.00  0.00    +0.030 A 
ENDBRANCH  17  18
ENDBRANCH  16  17
ENDBRANCH   1  16
TORSDOF 6
