REMARK  Name = ZINCvU0000000Gn7.0
REMARK                            x       y       z     vdW  Elec       q    Type
REMARK                         _______ _______ _______ _____ _____    ______ ____
ROOT
ATOM      1  N   LIG    1        3.389  -3.508  -4.951  0.00  0.00    -0.670 N 
ATOM      2  H   LIG    1        2.692  -2.943  -4.583  0.00  0.00    +0.410 HD
ATOM      3  C   LIG    1        4.228  -4.167  -4.127  0.00  0.00    +0.600 C 
ATOM      4  O   LIG    1        5.045  -4.943  -4.583  0.00  0.00    -0.500 OA
ENDROOT
BRANCH   3   5
ATOM      5  C   LIG    1        4.154  -3.946  -2.672  0.00  0.00    -0.270 A 
ATOM      6  C   LIG    1        3.380  -4.656  -1.772  0.00  0.00    +0.170 A 
ATOM      7  N   LIG    1        3.603  -4.135  -0.554  0.00  0.00    -0.340 N 
ATOM      8  N   LIG    1        4.531  -3.095  -0.679  0.00  0.00    -0.250 NA
ATOM      9 CL   LIG    1        2.313  -5.973  -2.148  0.00  0.00    +0.010 Cl
ATOM     10  C   LIG    1        4.866  -2.974  -1.933  0.00  0.00    +0.120 A 
ATOM     11  C   LIG    1        5.840  -1.972  -2.497  0.00  0.00    +0.170 C 
BRANCH   7  12
ATOM     12  C   LIG    1        2.984  -4.584   0.696  0.00  0.00    +0.390 C 
BRANCH  12  13
ATOM     13  C   LIG    1        1.710  -3.814   0.930  0.00  0.00    -0.120 A 
ATOM     14  C   LIG    1        0.490  -4.385   0.620  0.00  0.00    +0.050 A 
ATOM     15  C   LIG    1       -0.679  -3.679   0.835  0.00  0.00    +0.010 A 
ATOM     16  C   LIG    1       -0.628  -2.401   1.359  0.00  0.00    +0.050 A 
ATOM     17  C   LIG    1        0.591  -1.829   1.669  0.00  0.00    +0.030 A 
ATOM     18  C   LIG    1        1.761  -2.535   1.455  0.00  0.00    -0.010 A 
ATOM     19 CL   LIG    1        3.293  -1.817   1.845  0.00  0.00    -0.040 Cl
ENDBRANCH  12  13
ENDBRANCH   7  12
ENDBRANCH   3   5
BRANCH   1  24
ATOM     20  C   LIG    1        4.913  -3.921  -8.282  0.00  0.00    -0.110 A 
ATOM     21  C   LIG    1        3.776  -3.899  -9.090  0.00  0.00    +0.030 A 
ATOM     22  C   LIG    1        2.527  -3.749  -8.521  0.00  0.00    +0.020 A 
ATOM     23  C   LIG    1        2.398  -3.624  -7.151  0.00  0.00    +0.010 A 
ATOM     24  C   LIG    1        3.525  -3.639  -6.337  0.00  0.00    +0.140 A 
ATOM     25  C   LIG    1        4.783  -3.790  -6.899  0.00  0.00    +0.070 A 
BRANCH  20  27
ATOM     26  N   LIG    1        6.422  -4.915  -9.934  0.00  0.00    -0.610 N 
ATOM     27  C   LIG    1        6.252  -4.082  -8.889  0.00  0.00    +0.560 C 
ATOM     28  O   LIG    1        7.199  -3.462  -8.446  0.00  0.00    -0.530 OA
BRANCH  26  30
ATOM     29  C   LIG    1        8.545  -6.128  -9.895  0.00  0.00    +0.020 C 
ATOM     30  C   LIG    1        7.734  -5.025 -10.578  0.00  0.00    +0.270 C 
ENDBRANCH  26  30
BRANCH  26  31
ATOM     31  C   LIG    1        5.295  -5.711 -10.428  0.00  0.00    +0.260 C 
ATOM     32  C   LIG    1        4.750  -5.083 -11.712  0.00  0.00    +0.020 C 
ENDBRANCH  26  31
ENDBRANCH  20  27
ENDBRANCH   1  24
TORSDOF 7
