REMARK  Name = ZINCpe000000UTGO.1
REMARK                            x       y       z     vdW  Elec       q    Type
REMARK                         _______ _______ _______ _____ _____    ______ ____
ROOT
ATOM      1  N   LIG    1       -3.761   1.651   0.029  0.00  0.00    -0.540 NA
ATOM      2  C   LIG    1       -3.944   2.385   1.289  0.00  0.00    +0.190 C 
ATOM      3  C   LIG    1       -5.250   3.180   1.228  0.00  0.00    +0.210 C 
ATOM      4  N   LIG    1       -6.371   2.259   0.990  0.00  0.00    -0.480 N 
ATOM      5  C   LIG    1       -6.188   1.526  -0.270  0.00  0.00    +0.220 C 
ATOM      6  C   LIG    1       -4.881   0.730  -0.209  0.00  0.00    +0.190 C 
ENDROOT
BRANCH   4   7
ATOM      7  C   LIG    1       -7.580   2.935   0.999  0.00  0.00    +0.360 A 
ATOM      8  C   LIG    1       -7.959   3.694   2.108  0.00  0.00    -0.110 A 
ATOM      9  C   LIG    1       -9.173   4.353   2.067  0.00  0.00    +0.190 A 
ATOM     10  N   LIG    1       -9.936   4.237   0.990  0.00  0.00    -0.530 NA
ATOM     11  C   LIG    1       -9.551   3.509  -0.039  0.00  0.00    +0.360 A 
ATOM     12  C   LIG    1       -9.626   5.189   3.236  0.00  0.00    +0.140 C 
ATOM     13  N   LIG    1       -8.400   2.867  -0.045  0.00  0.00    -0.560 NA
BRANCH  11  14
ATOM     14  C   LIG    1      -10.453   3.407  -1.242  0.00  0.00    +0.060 C 
ATOM     15  C   LIG    1      -10.683   4.802  -1.827  0.00  0.00    +0.050 C 
ATOM     16  C   LIG    1      -11.794   2.801  -0.825  0.00  0.00    +0.050 C 
ENDBRANCH  11  14
ENDBRANCH   4   7
BRANCH   1  17
ATOM     17  C   LIG    1       -2.479   0.934   0.019  0.00  0.00    +0.210 C 
BRANCH  17  18
ATOM     18  C   LIG    1       -1.330   1.944   0.019  0.00  0.00    +0.070 C 
BRANCH  18  25
ATOM     19  C   LIG    1        4.756   1.214  -0.037  0.00  0.00    +0.300 C 
ATOM     20  N   LIG    1        3.478   1.930  -0.021  0.00  0.00    -0.740 N 
ATOM     21  H   LIG    1        3.465   2.900  -0.015  0.00  0.00    +0.400 HD
ATOM     22  C   LIG    1        2.320   1.240  -0.013  0.00  0.00    +0.690 C 
ATOM     23  N   LIG    1        1.143   1.898   0.001  0.00  0.00    -0.690 N 
ATOM     24  H   LIG    1        1.130   2.868   0.007  0.00  0.00    +0.410 HD
ATOM     25  C   LIG    1       -0.014   1.208   0.009  0.00  0.00    +0.520 C 
ATOM     26  O   LIG    1        0.002  -0.004   0.002  0.00  0.00    -0.470 OA
ATOM     27  O   LIG    1        2.336   0.025  -0.020  0.00  0.00    -0.530 OA
ENDBRANCH  18  25
ENDBRANCH  17  18
ENDBRANCH   1  17
TORSDOF 5
