REMARK  Name = ZINCvU0000000GvO.0
REMARK                            x       y       z     vdW  Elec       q    Type
REMARK                         _______ _______ _______ _____ _____    ______ ____
ROOT
ATOM      1  O   LIG    1        1.851  -1.071  -4.048  0.00  0.00    -0.520 OA
ATOM      2  C   LIG    1        2.715  -0.809  -3.234  0.00  0.00    +0.710 C 
ATOM      3  N   LIG    1        3.077  -1.635  -2.236  0.00  0.00    -0.720 N 
ATOM      4  H   LIG    1        2.709  -2.513  -2.047  0.00  0.00    +0.440 HD
ATOM      5  C   LIG    1        4.142  -0.948  -1.486  0.00  0.00    +0.180 C 
ATOM      6  C   LIG    1        4.304   0.368  -2.220  0.00  0.00    +0.540 C 
ATOM      7  O   LIG    1        5.075   1.265  -1.955  0.00  0.00    -0.460 OA
ATOM      8  N   LIG    1        3.410   0.334  -3.229  0.00  0.00    -0.570 N 
ENDROOT
BRANCH   5   9
ATOM      9  C   LIG    1        5.421  -1.745  -1.531  0.00  0.00    -0.100 A 
ATOM     10  C   LIG    1        6.344  -1.628  -0.508  0.00  0.00    +0.040 A 
ATOM     11  C   LIG    1        7.515  -2.362  -0.547  0.00  0.00    +0.010 A 
ATOM     12  C   LIG    1        7.767  -3.205  -1.614  0.00  0.00    +0.020 A 
ATOM     13  C   LIG    1        6.847  -3.317  -2.639  0.00  0.00    +0.010 A 
ATOM     14  C   LIG    1        5.673  -2.587  -2.597  0.00  0.00    +0.020 A 
ENDBRANCH   5   9
BRANCH   5  15
ATOM     15  C   LIG    1        3.711  -0.707  -0.038  0.00  0.00    +0.130 C 
BRANCH  15  16
ATOM     16  C   LIG    1        2.396   0.029  -0.021  0.00  0.00    -0.100 A 
ATOM     17  C   LIG    1        1.208  -0.679  -0.014  0.00  0.00    +0.020 A 
ATOM     18  C   LIG    1        0.002  -0.004   0.002  0.00  0.00    +0.010 A 
ATOM     19  C   LIG    1       -0.017   1.378   0.010  0.00  0.00    +0.010 A 
ATOM     20  C   LIG    1        1.171   2.086   0.002  0.00  0.00    +0.000 A 
ATOM     21  C   LIG    1        2.377   1.411  -0.014  0.00  0.00    +0.010 A 
ENDBRANCH  15  16
ENDBRANCH   5  15
BRANCH   8  22
ATOM     22  C   LIG    1        3.225   1.414  -4.201  0.00  0.00    +0.420 C 
BRANCH  22  23
ATOM     23  C   LIG    1        2.184   2.377  -3.689  0.00  0.00    +0.050 A 
ATOM     24  C   LIG    1        2.512   3.482  -3.013  0.00  0.00    -0.040 A 
ATOM     25  S   LIG    1        1.027   4.335  -2.597  0.00  0.00    +0.120 S 
ATOM     26  C   LIG    1        0.086   3.076  -3.391  0.00  0.00    +0.140 A 
ATOM     27  N   LIG    1        0.899   2.179  -3.877  0.00  0.00    -0.440 NA
BRANCH  26  28
ATOM     28  C   LIG    1       -1.382   3.041  -3.491  0.00  0.00    -0.140 A 
ATOM     29  C   LIG    1       -2.221   3.970  -2.983  0.00  0.00    +0.030 A 
ATOM     30  C   LIG    1       -3.558   3.722  -3.207  0.00  0.00    +0.010 A 
ATOM     31  C   LIG    1       -3.821   2.599  -3.884  0.00  0.00    -0.040 A 
ATOM     32  S   LIG    1       -2.317   1.781  -4.286  0.00  0.00    +0.200 S 
ENDBRANCH  26  28
ENDBRANCH  22  23
ENDBRANCH   8  22
TORSDOF 6
