REMARK  Name = ZINCrD000000AH9R.0
REMARK                            x       y       z     vdW  Elec       q    Type
REMARK                         _______ _______ _______ _____ _____    ______ ____
ROOT
ATOM      1  N   LIG    1       -2.426  -4.152   0.220  0.00  0.00    -0.630 N 
ATOM      2  H   LIG    1       -1.589  -4.635   0.137  0.00  0.00    +0.440 HD
ATOM      3  C   LIG    1       -2.429  -2.804   0.226  0.00  0.00    +0.590 C 
ATOM      4  O   LIG    1       -3.478  -2.199   0.330  0.00  0.00    -0.520 OA
ENDROOT
BRANCH   1  10
ATOM      5  O   LIG    1       -4.996 -10.037   0.425  0.00  0.00    -0.550 OA
ATOM      6  C   LIG    1       -4.618  -8.871   0.397  0.00  0.00    +0.400 A 
ATOM      7  C   LIG    1       -3.247  -8.581   0.264  0.00  0.00    -0.100 A 
ATOM      8  C   LIG    1       -2.817  -7.293   0.232  0.00  0.00    +0.110 A 
ATOM      9  C   LIG    1       -3.741  -6.239   0.333  0.00  0.00    -0.280 A 
ATOM     10  C   LIG    1       -3.602  -4.837   0.331  0.00  0.00    +0.460 A 
ATOM     11  N   LIG    1       -4.829  -4.286   0.451  0.00  0.00    -0.440 N 
ATOM     12  H   LIG    1       -5.019  -3.335   0.474  0.00  0.00    +0.460 HD
ATOM     13  N   LIG    1       -5.783  -5.307   0.540  0.00  0.00    -0.500 N 
ATOM     14  H   LIG    1       -6.741  -5.185   0.633  0.00  0.00    +0.460 HD
ATOM     15  C   LIG    1       -5.121  -6.523   0.471  0.00  0.00    +0.260 A 
ATOM     16  C   LIG    1       -5.550  -7.831   0.508  0.00  0.00    -0.230 A 
ENDBRANCH   1  10
BRANCH   3  17
ATOM     17  C   LIG    1       -1.160  -2.064   0.106  0.00  0.00    -0.260 A 
ATOM     18  C   LIG    1       -1.156  -0.684   0.112  0.00  0.00    +0.420 A 
ATOM     19  N   LIG    1        0.002  -0.004   0.002  0.00  0.00    -0.440 N 
ATOM     20  C   LIG    1        1.176  -0.650  -0.120  0.00  0.00    +0.520 A 
ATOM     21  C   LIG    1        1.221  -2.056  -0.125  0.00  0.00    -0.050 A 
ATOM     22  O   LIG    1        2.210  -0.011  -0.223  0.00  0.00    -0.500 OA
ATOM     23  C   LIG    1        0.065  -2.764  -0.016  0.00  0.00    +0.140 A 
BRANCH  19  24
ATOM     24  C   LIG    1       -0.017   1.396   0.010  0.00  0.00    +0.090 A 
ATOM     25  C   LIG    1       -0.149   2.096  -1.182  0.00  0.00    +0.050 A 
ATOM     26  C   LIG    1       -0.168   3.478  -1.172  0.00  0.00    +0.060 A 
ATOM     27  C   LIG    1       -0.056   4.163   0.023  0.00  0.00    +0.060 A 
ATOM     28  C   LIG    1        0.076   3.469   1.213  0.00  0.00    -0.030 A 
ATOM     29 CL   LIG    1        0.217   4.334   2.712  0.00  0.00    -0.050 Cl
ATOM     30  C   LIG    1        0.091   2.087   1.210  0.00  0.00    +0.050 A 
ENDBRANCH  19  24
ENDBRANCH   3  17
TORSDOF 3
