REMARK  Name = ZINCrH000004mRbs.0
REMARK                            x       y       z     vdW  Elec       q    Type
REMARK                         _______ _______ _______ _____ _____    ______ ____
ROOT
ATOM      1  C   LIG    1       -4.837   1.080   0.226  0.00  0.00    -0.150 A 
ATOM      2  C   LIG    1       -4.758  -0.312   0.285  0.00  0.00    +0.130 A 
ATOM      3  C   LIG    1       -5.905  -1.059   0.451  0.00  0.00    +0.020 A 
ATOM      4  C   LIG    1       -7.136  -0.430   0.548  0.00  0.00    +0.080 A 
ATOM      5  C   LIG    1       -7.221   0.951   0.484  0.00  0.00    -0.680 A 
ATOM      6 CL   LIG    1       -8.576  -1.377   0.751  0.00  0.00    -0.020 Cl
ATOM      7  C   LIG    1       -6.080   1.708   0.324  0.00  0.00    +0.220 A 
ENDROOT
BRANCH   1  10
ATOM      8  N   LIG    1       -2.412   1.278  -0.041  0.00  0.00    -0.670 N 
ATOM      9  H   LIG    1       -2.361   0.309  -0.072  0.00  0.00    +0.410 HD
ATOM     10  C   LIG    1       -3.610   1.886   0.054  0.00  0.00    +0.560 C 
ATOM     11  O   LIG    1       -3.683   3.099  -0.003  0.00  0.00    -0.500 OA
BRANCH   8  15
ATOM     12  C   LIG    1        1.079   3.553  -0.194  0.00  0.00    +0.120 A 
ATOM     13  C   LIG    1       -0.004   3.994   0.553  0.00  0.00    +0.010 A 
ATOM     14  C   LIG    1       -1.162   3.243   0.601  0.00  0.00    +0.060 A 
ATOM     15  C   LIG    1       -1.240   2.043  -0.094  0.00  0.00    +0.100 A 
ATOM     16  C   LIG    1       -0.158   1.605  -0.846  0.00  0.00    +0.030 A 
ATOM     17  C   LIG    1        0.999   2.357  -0.893  0.00  0.00    -0.060 A 
BRANCH  12  19
ATOM     18  C   LIG    1        3.294   3.778  -1.029  0.00  0.00    +0.250 C 
ATOM     19  O   LIG    1        2.219   4.292  -0.240  0.00  0.00    -0.320 OA
ENDBRANCH  12  19
ENDBRANCH   8  15
ENDBRANCH   1  10
BRANCH   5  20
ATOM     20  S   LIG    1       -8.791   1.741   0.609  0.00  0.00    +2.690 S 
ATOM     21  O   LIG    1       -9.669   1.026  -0.249  0.00  0.00    -0.930 OA
ATOM     22  O   LIG    1       -8.549   3.136   0.485  0.00  0.00    -0.940 OA
BRANCH  20  23
ATOM     23  N   LIG    1       -9.342   1.497   2.151  0.00  0.00    -0.990 NA
ATOM     24  C   LIG    1      -10.293   0.416   2.444  0.00  0.00    +0.290 C 
ATOM     25  C   LIG    1       -9.718  -0.446   3.578  0.00  0.00    +0.010 C 
ATOM     26  C   LIG    1       -9.394   0.447   4.777  0.00  0.00    +0.020 C 
ATOM     27  C   LIG    1       -8.338   1.480   4.376  0.00  0.00    -0.000 C 
ATOM     28  C   LIG    1       -8.893   2.361   3.252  0.00  0.00    +0.290 C 
ENDBRANCH  20  23
ENDBRANCH   5  20
TORSDOF 5
