REMARK  Name = ZINCqH0000004to4.0
REMARK                            x       y       z     vdW  Elec       q    Type
REMARK                         _______ _______ _______ _____ _____    ______ ____
ROOT
ATOM      1  C   LIG    1        5.634  -4.191  -0.533  0.00  0.00    +0.200 C 
ATOM      2  C   LIG    1        6.521  -4.343  -1.763  0.00  0.00    +0.230 C 
ATOM      3  N   LIG    1        7.206  -3.077  -2.060  0.00  0.00    -0.500 N 
ATOM      4  C   LIG    1        6.435  -2.293  -2.923  0.00  0.00    +0.100 A 
ATOM      5  C   LIG    1        6.827  -2.133  -4.248  0.00  0.00    +0.040 A 
ATOM      6  C   LIG    1        6.054  -1.375  -5.106  0.00  0.00    +0.020 A 
ATOM      7  C   LIG    1        4.892  -0.777  -4.653  0.00  0.00    +0.010 A 
ATOM      8  C   LIG    1        4.504  -0.927  -3.333  0.00  0.00    +0.020 A 
ATOM      9  C   LIG    1        5.280  -1.674  -2.474  0.00  0.00    -0.140 A 
ATOM     10  C   LIG    1        4.900  -1.809  -1.020  0.00  0.00    +0.330 C 
ATOM     11  C   LIG    1        7.520  -2.346  -0.825  0.00  0.00    +0.200 C 
ATOM     12  N   LIG    1        4.571  -3.215  -0.752  0.00  0.00    -0.600 N 
ATOM     13  C   LIG    1        3.282  -3.608  -0.713  0.00  0.00    +0.570 C 
ATOM     14  O   LIG    1        3.007  -4.792  -0.705  0.00  0.00    -0.510 OA
ENDROOT
BRANCH  13  15
ATOM     15  C   LIG    1        2.204  -2.599  -0.680  0.00  0.00    -0.180 A 
ATOM     16  C   LIG    1        2.365  -1.380  -1.356  0.00  0.00    +0.080 A 
ATOM     17  C   LIG    1        1.381  -0.439  -1.336  0.00  0.00    -0.020 A 
ATOM     18  C   LIG    1        0.196  -0.678  -0.640  0.00  0.00    +0.150 A 
ATOM     19  N   LIG    1       -0.944   0.052  -0.440  0.00  0.00    -0.510 N 
ATOM     20  H   LIG    1       -1.112   0.940  -0.793  0.00  0.00    +0.440 HD
ATOM     21  N   LIG    1       -1.829  -0.685   0.353  0.00  0.00    -0.250 NA
ATOM     22  C   LIG    1       -1.303  -1.836   0.660  0.00  0.00    +0.110 A 
ATOM     23  C   LIG    1       -1.944  -2.911   1.500  0.00  0.00    +0.170 C 
ATOM     24  C   LIG    1        0.020  -1.899   0.044  0.00  0.00    -0.180 A 
ATOM     25  C   LIG    1        1.032  -2.860   0.019  0.00  0.00    +0.170 A 
ENDBRANCH  13  15
BRANCH   1  27
ATOM     26  C   LIG    1        4.295  -5.460   1.152  0.00  0.00    +0.020 C 
ATOM     27  C   LIG    1        5.008  -5.546  -0.199  0.00  0.00    +0.040 C 
ENDBRANCH   1  27
TORSDOF 2
