REMARK  Name = ZINCnE000001I72l.1
REMARK                            x       y       z     vdW  Elec       q    Type
REMARK                         _______ _______ _______ _____ _____    ______ ____
ROOT
ATOM      1  N   LIG    1        1.164   3.490   0.009  0.00  0.00    -1.090 NA
ENDROOT
BRANCH   1   2
ATOM      2  C   LIG    1        1.177   2.093   0.002  0.00  0.00    +0.280 A 
ATOM      3  C   LIG    1        2.388   1.410  -0.014  0.00  0.00    -0.180 A 
ATOM      4  C   LIG    1        2.405   0.028  -0.021  0.00  0.00    +0.040 A 
ATOM      5  C   LIG    1        1.220  -0.681  -0.013  0.00  0.00    -0.120 A 
ATOM      6  C   LIG    1        0.002  -0.004   0.002  0.00  0.00    +0.030 A 
ATOM      7  C   LIG    1       -0.017   1.387   0.010  0.00  0.00    -0.060 A 
BRANCH   6   8
ATOM      8  C   LIG    1       -1.272  -0.766   0.010  0.00  0.00    -0.170 A 
ATOM      9  C   LIG    1       -1.400  -2.124   0.004  0.00  0.00    +0.240 A 
ATOM     10  N   LIG    1       -2.718  -2.410   0.014  0.00  0.00    -0.480 N 
ATOM     11  H   LIG    1       -3.107  -3.299   0.013  0.00  0.00    +0.440 HD
ATOM     12  N   LIG    1       -3.427  -1.203   0.027  0.00  0.00    -0.310 NA
ATOM     13  C   LIG    1       -2.570  -0.217   0.031  0.00  0.00    +0.260 A 
ENDBRANCH   6   8
ENDBRANCH   1   2
BRANCH   1  14
ATOM     14  S   LIG    1        2.590   4.332   0.000  0.00  0.00    +2.600 S 
ATOM     15  O   LIG    1        3.200   4.074  -1.257  0.00  0.00    -1.030 OA
ATOM     16  O   LIG    1        3.224   4.061   1.243  0.00  0.00    -1.030 OA
BRANCH  14  21
ATOM     17  C   LIG    1        1.715   8.058   1.224  0.00  0.00    -0.110 A 
ATOM     18  C   LIG    1        1.545   8.737   0.032  0.00  0.00    +0.040 A 
ATOM     19  C   LIG    1        1.694   8.070  -1.170  0.00  0.00    -0.010 A 
ATOM     20  C   LIG    1        2.017   6.726  -1.180  0.00  0.00    +0.110 A 
ATOM     21  C   LIG    1        2.183   6.047   0.013  0.00  0.00    -0.610 A 
ATOM     22  C   LIG    1        2.034   6.713   1.214  0.00  0.00    +0.110 A 
BRANCH  17  24
ATOM     23  C   LIG    1        2.901   9.364   2.967  0.00  0.00    +0.020 C 
ATOM     24  C   LIG    1        1.553   8.784   2.534  0.00  0.00    +0.060 C 
ENDBRANCH  17  24
ENDBRANCH  14  21
ENDBRANCH   1  14
TORSDOF 5
