REMARK  Name = ZINCrD0000072u5D.0
REMARK                            x       y       z     vdW  Elec       q    Type
REMARK                         _______ _______ _______ _____ _____    ______ ____
ROOT
ATOM      1  C   LIG    1        2.252   1.235   0.118  0.00  0.00    -0.070 A 
ATOM      2  C   LIG    1        1.039   1.918   0.113  0.00  0.00    +0.040 A 
ATOM      3  C   LIG    1       -0.151   1.214   0.109  0.00  0.00    +0.060 A 
ATOM      4  C   LIG    1       -0.146  -0.170   0.111  0.00  0.00    +0.030 A 
ATOM      5  C   LIG    1        1.049  -0.865   0.116  0.00  0.00    +0.090 A 
ATOM      6  C   LIG    1        2.257  -0.173   0.120  0.00  0.00    -0.080 A 
ENDROOT
BRANCH   1   9
ATOM      7  C   LIG    1        2.739   3.234  -1.815  0.00  0.00    +0.300 C 
ATOM      8  N   LIG    1        3.779   2.892  -0.841  0.00  0.00    -0.550 N 
ATOM      9  C   LIG    1        3.527   1.984   0.122  0.00  0.00    +0.560 C 
ATOM     10  O   LIG    1        4.349   1.780   0.995  0.00  0.00    -0.480 OA
BRANCH   8  11
ATOM     11  C   LIG    1        5.032   3.508  -0.912  0.00  0.00    +0.150 A 
ATOM     12  C   LIG    1        6.069   3.071  -0.097  0.00  0.00    +0.020 A 
ATOM     13  C   LIG    1        7.307   3.679  -0.172  0.00  0.00    +0.020 A 
ATOM     14  C   LIG    1        7.512   4.727  -1.050  0.00  0.00    -0.030 A 
ATOM     15  C   LIG    1        6.481   5.168  -1.859  0.00  0.00    +0.020 A 
ATOM     16  C   LIG    1        5.242   4.561  -1.793  0.00  0.00    -0.040 A 
ENDBRANCH   8  11
ENDBRANCH   1   9
BRANCH   6  17
ATOM     17  C   LIG    1        3.538  -0.912   0.125  0.00  0.00    +0.500 C 
ATOM     18  O   LIG    1        4.587  -0.309   0.021  0.00  0.00    -0.470 OA
BRANCH  17  19
ATOM     19  O   LIG    1        3.541  -2.253   0.245  0.00  0.00    -0.330 OA
BRANCH  19  20
ATOM     20  C   LIG    1        4.834  -2.913   0.243  0.00  0.00    +0.250 C 
BRANCH  20  21
ATOM     21  C   LIG    1        4.641  -4.400   0.386  0.00  0.00    +0.420 C 
ATOM     22  O   LIG    1        3.521  -4.860   0.481  0.00  0.00    -0.450 OA
BRANCH  21  23
ATOM     23  C   LIG    1        5.762  -5.260   0.409  0.00  0.00    -0.100 A 
ATOM     24  C   LIG    1        7.089  -4.879   0.306  0.00  0.00    +0.040 A 
ATOM     25  C   LIG    1        7.853  -6.045   0.380  0.00  0.00    -0.060 A 
ATOM     26  C   LIG    1        7.003  -7.093   0.515  0.00  0.00    +0.220 A 
ATOM     27  N   LIG    1        5.736  -6.633   0.534  0.00  0.00    -0.520 N 
ATOM     28  H   LIG    1        4.938  -7.177   0.621  0.00  0.00    +0.430 HD
ENDBRANCH  21  23
ENDBRANCH  20  21
ENDBRANCH  19  20
ENDBRANCH  17  19
ENDBRANCH   6  17
TORSDOF 7
