REMARK  Name = ZINCpk00000KfKpO.2
REMARK                            x       y       z     vdW  Elec       q    Type
REMARK                         _______ _______ _______ _____ _____    ______ ____
ROOT
ATOM      1  N   LIG    1       -4.380  -6.037   0.485  0.00  0.00    -0.600 N 
ATOM      2  C   LIG    1       -4.043  -4.733   0.520  0.00  0.00    +0.530 C 
ATOM      3  O   LIG    1       -4.868  -3.886   0.246  0.00  0.00    -0.520 OA
ATOM      4  C   LIG    1       -3.351  -7.064   0.670  0.00  0.00    +0.300 C 
ENDROOT
BRANCH   2   5
ATOM      5  C   LIG    1       -2.643  -4.325   0.899  0.00  0.00    +0.170 C 
ATOM      6  C   LIG    1       -1.752  -4.345  -0.345  0.00  0.00    +0.030 C 
BRANCH   5   7
ATOM      7  N   LIG    1       -2.663  -2.970   1.465  0.00  0.00    -0.520 NA
ATOM      8  C   LIG    1       -2.893  -1.966   0.419  0.00  0.00    +0.170 C 
ATOM      9  C   LIG    1       -3.053  -0.586   1.061  0.00  0.00    +0.020 C 
ATOM     10  C   LIG    1       -1.786  -0.246   1.851  0.00  0.00    +0.020 C 
ATOM     11  C   LIG    1       -1.543  -1.333   2.902  0.00  0.00    +0.010 C 
ATOM     12  C   LIG    1       -1.427  -2.691   2.207  0.00  0.00    +0.180 C 
BRANCH  11  13
ATOM     13  C   LIG    1       -0.246  -1.033   3.656  0.00  0.00    +0.170 C 
BRANCH  13  14
ATOM     14  O   LIG    1       -0.396   0.179   4.399  0.00  0.00    -0.570 OA
ATOM     15  H   LIG    1        0.389   0.431   4.903  0.00  0.00    +0.380 HD
ENDBRANCH  13  14
ENDBRANCH  11  13
ENDBRANCH   5   7
ENDBRANCH   2   5
BRANCH   1  16
ATOM     16  C   LIG    1       -5.774  -6.428   0.262  0.00  0.00    +0.330 C 
BRANCH  16  19
ATOM     17  N   LIG    1       -7.242  -6.942  -1.661  0.00  0.00    -0.670 N 
ATOM     18  H   LIG    1       -7.983  -7.013  -1.039  0.00  0.00    +0.410 HD
ATOM     19  C   LIG    1       -6.021  -6.585  -1.216  0.00  0.00    +0.500 C 
ATOM     20  O   LIG    1       -5.122  -6.388  -2.006  0.00  0.00    -0.510 OA
BRANCH  17  25
ATOM     21  C   LIG    1       -8.049  -8.034  -7.170  0.00  0.00    +0.100 C 
ATOM     22  C   LIG    1       -7.834  -7.744  -5.706  0.00  0.00    -0.100 A 
ATOM     23  C   LIG    1       -6.606  -7.998  -5.125  0.00  0.00    +0.020 A 
ATOM     24  C   LIG    1       -6.406  -7.734  -3.784  0.00  0.00    +0.010 A 
ATOM     25  C   LIG    1       -7.441  -7.211  -3.020  0.00  0.00    +0.140 A 
ATOM     26  C   LIG    1       -8.675  -6.961  -3.605  0.00  0.00    -0.010 A 
ATOM     27  C   LIG    1       -8.867  -7.223  -4.948  0.00  0.00    +0.030 A 
ENDBRANCH  17  25
ENDBRANCH  16  19
ENDBRANCH   1  16
TORSDOF 7
