REMARK  Name = ZINCpk00000KfKPO.0
REMARK                            x       y       z     vdW  Elec       q    Type
REMARK                         _______ _______ _______ _____ _____    ______ ____
ROOT
ATOM      1  C   LIG    1       -0.005   1.845   2.147  0.00  0.00    +0.530 C 
ATOM      2  N   LIG    1       -0.539   0.910   1.336  0.00  0.00    -0.560 N 
ATOM      3  C   LIG    1        0.313   0.069   0.482  0.00  0.00    +0.320 C 
ATOM      4  C   LIG    1       -0.326  -0.061  -0.876  0.00  0.00    +0.510 C 
ATOM      5  N   LIG    1       -1.664   0.002  -1.018  0.00  0.00    -0.650 N 
ATOM      6  H   LIG    1       -2.060  -0.120  -1.895  0.00  0.00    +0.420 HD
ATOM      7  C   LIG    1       -2.489   0.241   0.086  0.00  0.00    +0.130 A 
ATOM      8  C   LIG    1       -3.855   0.021   0.011  0.00  0.00    +0.010 A 
ATOM      9  C   LIG    1       -4.654   0.269   1.113  0.00  0.00    +0.030 A 
ATOM     10  C   LIG    1       -4.097   0.735   2.289  0.00  0.00    +0.010 A 
ATOM     11  C   LIG    1       -2.733   0.955   2.374  0.00  0.00    +0.050 A 
ATOM     12  O   LIG    1        0.372  -0.226  -1.854  0.00  0.00    -0.510 OA
ATOM     13  C   LIG    1       -1.929   0.707   1.277  0.00  0.00    +0.110 A 
ATOM     14  O   LIG    1       -0.728   2.595   2.768  0.00  0.00    -0.480 OA
ENDROOT
BRANCH   1  15
ATOM     15  C   LIG    1        1.492   1.959   2.281  0.00  0.00    +0.110 C 
ATOM     16  C   LIG    1        2.063   2.663   1.049  0.00  0.00    +0.080 C 
BRANCH  15  19
ATOM     17  C   LIG    1        2.819   2.499   5.303  0.00  0.00    +0.280 C 
ATOM     18  C   LIG    1        1.504   1.975   4.707  0.00  0.00    +0.180 C 
ATOM     19  N   LIG    1        1.817   2.737   3.484  0.00  0.00    -0.430 NA
ATOM     20  C   LIG    1        3.244   2.601   3.831  0.00  0.00    +0.180 C 
BRANCH  17  24
ATOM     21  C   LIG    1        5.903  -1.262   6.516  0.00  0.00    +0.110 C 
ATOM     22  C   LIG    1        4.907  -0.134   6.611  0.00  0.00    -0.240 A 
ATOM     23  C   LIG    1        4.431   0.596   5.575  0.00  0.00    +0.220 A 
ATOM     24  N   LIG    1        3.566   1.503   6.075  0.00  0.00    -0.360 N 
ATOM     25  N   LIG    1        3.512   1.327   7.464  0.00  0.00    -0.290 NA
ATOM     26  C   LIG    1        4.312   0.343   7.783  0.00  0.00    +0.230 A 
ENDBRANCH  17  24
ENDBRANCH  15  19
ENDBRANCH   1  15
TORSDOF 3
