REMARK  Name = ZINCrg000000neq0.0
REMARK                            x       y       z     vdW  Elec       q    Type
REMARK                         _______ _______ _______ _____ _____    ______ ____
ROOT
ATOM      1  N   LIG    1       -4.661   0.459   3.814  0.00  0.00    -0.640 N 
ATOM      2  H   LIG    1       -4.237   0.796   4.619  0.00  0.00    +0.420 HD
ATOM      3  C   LIG    1       -3.987   0.461   2.647  0.00  0.00    +0.510 C 
ATOM      4  O   LIG    1       -4.481  -0.044   1.660  0.00  0.00    -0.500 OA
ENDROOT
BRANCH   1   9
ATOM      5  C   LIG    1       -8.113  -0.347   2.829  0.00  0.00    +0.160 A 
ATOM      6  C   LIG    1       -8.565  -0.994   3.972  0.00  0.00    +0.010 A 
ATOM      7  C   LIG    1       -7.722  -1.156   5.055  0.00  0.00    +0.050 A 
ATOM      8  C   LIG    1       -6.428  -0.675   5.005  0.00  0.00    -0.020 A 
ATOM      9  C   LIG    1       -5.970  -0.027   3.864  0.00  0.00    +0.160 A 
ATOM     10  C   LIG    1       -6.816   0.141   2.777  0.00  0.00    +0.000 A 
BRANCH   5  12
ATOM     11  C   LIG    1      -10.282   0.041   1.930  0.00  0.00    +0.520 C 
ATOM     12  N   LIG    1       -8.967  -0.184   1.733  0.00  0.00    -0.670 N 
ATOM     13  H   LIG    1       -8.614  -0.233   0.831  0.00  0.00    +0.410 HD
ATOM     14  O   LIG    1      -10.739   0.018   3.053  0.00  0.00    -0.520 OA
BRANCH  11  16
ATOM     15  C   LIG    1      -12.614   0.537   1.251  0.00  0.00    +0.050 C 
ATOM     16  C   LIG    1      -11.183   0.319   0.755  0.00  0.00    -0.010 C 
ATOM     17  C   LIG    1      -10.699   1.575   0.027  0.00  0.00    +0.040 C 
ENDBRANCH  11  16
ENDBRANCH   5  12
ENDBRANCH   1   9
BRANCH   3  18
ATOM     18  C   LIG    1       -2.631   1.083   2.568  0.00  0.00    +0.510 C 
ATOM     19  N   LIG    1       -1.957   1.085   1.401  0.00  0.00    -0.680 N 
ATOM     20  H   LIG    1       -2.352   0.681   0.613  0.00  0.00    +0.420 HD
ATOM     21  O   LIG    1       -2.137   1.589   3.555  0.00  0.00    -0.520 OA
BRANCH  19  22
ATOM     22  C   LIG    1       -0.628   1.696   1.324  0.00  0.00    +0.230 C 
ATOM     23  C   LIG    1       -0.771   3.198   1.074  0.00  0.00    +0.030 C 
BRANCH  22  24
ATOM     24  C   LIG    1        0.159   1.060   0.176  0.00  0.00    +0.190 C 
BRANCH  24  25
ATOM     25  N   LIG    1        0.194  -0.397   0.354  0.00  0.00    -0.540 NA
ATOM     26  C   LIG    1        0.971  -0.764   1.547  0.00  0.00    +0.150 C 
ATOM     27  C   LIG    1        0.931  -2.284   1.728  0.00  0.00    +0.220 C 
ATOM     28  O   LIG    1        1.429  -2.913   0.543  0.00  0.00    -0.380 OA
ATOM     29  C   LIG    1        0.695  -2.578  -0.638  0.00  0.00    +0.220 C 
ATOM     30  C   LIG    1        0.732  -1.061  -0.842  0.00  0.00    +0.160 C 
ENDBRANCH  24  25
ENDBRANCH  22  24
ENDBRANCH  19  22
ENDBRANCH   3  18
TORSDOF 7
