REMARK  Name = ZINCvU0000000Gb5.0
REMARK                            x       y       z     vdW  Elec       q    Type
REMARK                         _______ _______ _______ _____ _____    ______ ____
ROOT
ATOM      1  C   LIG    1        0.014  -6.100   2.468  0.00  0.00    +0.110 C 
ENDROOT
BRANCH   1   2
ATOM      2  C   LIG    1       -0.833  -6.699   3.561  0.00  0.00    -0.160 A 
ATOM      3  C   LIG    1       -0.730  -6.452   4.876  0.00  0.00    +0.230 A 
ATOM      4  N   LIG    1       -1.667  -7.177   5.562  0.00  0.00    -0.590 N 
ATOM      5  H   LIG    1       -1.787  -7.164   6.524  0.00  0.00    +0.420 HD
ATOM      6  C   LIG    1       -2.414  -7.927   4.682  0.00  0.00    +0.100 A 
ATOM      7  C   LIG    1       -3.471  -8.817   4.840  0.00  0.00    -0.010 A 
ATOM      8  C   LIG    1       -4.024  -9.426   3.734  0.00  0.00    +0.030 A 
ATOM      9  C   LIG    1       -3.538  -9.160   2.462  0.00  0.00    -0.020 A 
ATOM     10  C   LIG    1       -2.500  -8.289   2.284  0.00  0.00    +0.050 A 
ATOM     11  C   LIG    1       -1.929  -7.656   3.389  0.00  0.00    -0.100 A 
ENDBRANCH   1   2
BRANCH   1  12
ATOM     12  C   LIG    1        1.459  -6.457   2.699  0.00  0.00    -0.070 A 
ATOM     13  C   LIG    1        2.092  -6.059   3.862  0.00  0.00    +0.010 A 
ATOM     14  C   LIG    1        3.417  -6.390   4.076  0.00  0.00    +0.000 A 
ATOM     15  C   LIG    1        4.111  -7.113   3.124  0.00  0.00    +0.000 A 
ATOM     16  C   LIG    1        3.480  -7.507   1.959  0.00  0.00    +0.000 A 
ATOM     17  C   LIG    1        2.154  -7.179   1.746  0.00  0.00    +0.000 A 
ENDBRANCH   1  12
BRANCH   1  18
ATOM     18  C   LIG    1       -0.143  -4.578   2.477  0.00  0.00    +0.270 C 
BRANCH  18  21
ATOM     19  O   LIG    1       -0.013  -1.946   1.911  0.00  0.00    -0.520 OA
ATOM     20  C   LIG    1        0.587  -2.672   1.147  0.00  0.00    +0.520 C 
ATOM     21  N   LIG    1        0.584  -4.005   1.341  0.00  0.00    -0.730 N 
ATOM     22  H   LIG    1        1.064  -4.586   0.730  0.00  0.00    +0.400 HD
BRANCH  20  23
ATOM     23  C   LIG    1        1.336  -2.083  -0.021  0.00  0.00    +0.150 C 
BRANCH  23  24
ATOM     24  C   LIG    1        1.181  -0.584  -0.012  0.00  0.00    +0.090 A 
ATOM     25  C   LIG    1        2.235   0.238  -0.018  0.00  0.00    -0.070 A 
ATOM     26  S   LIG    1        1.642   1.898  -0.003  0.00  0.00    +0.110 S 
ATOM     27  C   LIG    1       -0.016   1.300   0.009  0.00  0.00    +0.140 A 
ATOM     28  N   LIG    1        0.002  -0.004   0.002  0.00  0.00    -0.440 NA
BRANCH  27  29
ATOM     29  C   LIG    1       -1.225   2.138   0.020  0.00  0.00    -0.140 A 
ATOM     30  C   LIG    1       -1.239   3.489   0.033  0.00  0.00    +0.030 A 
ATOM     31  C   LIG    1       -2.497   4.052   0.037  0.00  0.00    +0.010 A 
ATOM     32  C   LIG    1       -3.509   3.178   0.037  0.00  0.00    -0.040 A 
ATOM     33  S   LIG    1       -2.878   1.536   0.025  0.00  0.00    +0.200 S 
ENDBRANCH  27  29
ENDBRANCH  23  24
ENDBRANCH  20  23
ENDBRANCH  18  21
ENDBRANCH   1  18
TORSDOF 7
