REMARK  Name = ZINCtV00001bB3J9.0
REMARK                            x       y       z     vdW  Elec       q    Type
REMARK                         _______ _______ _______ _____ _____    ______ ____
ROOT
ATOM      1  C   LIG    1       -5.319   5.433   1.675  0.00  0.00    +0.310 C 
ENDROOT
BRANCH   1   5
ATOM      2  C   LIG    1       -2.761   3.996  -2.491  0.00  0.00    +0.130 C 
ATOM      3  C   LIG    1       -3.163   4.223  -1.057  0.00  0.00    +0.030 A 
ATOM      4  C   LIG    1       -4.280   4.851  -0.638  0.00  0.00    -0.030 A 
ATOM      5  C   LIG    1       -4.268   4.843   0.771  0.00  0.00    -0.170 A 
ATOM      6  C   LIG    1       -3.145   4.206   1.162  0.00  0.00    +0.060 A 
ATOM      7  C   LIG    1       -2.720   3.959   2.587  0.00  0.00    +0.130 C 
ATOM      8  N   LIG    1       -2.458   3.827   0.044  0.00  0.00    -0.400 N 
BRANCH   8   9
ATOM      9  C   LIG    1       -1.236   3.139   0.029  0.00  0.00    +0.120 A 
ATOM     10  C   LIG    1       -0.042   3.845   0.022  0.00  0.00    +0.050 A 
ATOM     11  C   LIG    1        1.161   3.165   0.008  0.00  0.00    +0.030 A 
ATOM     12  C   LIG    1        1.176   1.783   0.000  0.00  0.00    +0.050 A 
ATOM     13  C   LIG    1       -0.013   1.076   0.008  0.00  0.00    +0.040 A 
ATOM     14  C   LIG    1       -1.219   1.750   0.017  0.00  0.00    -0.030 A 
ATOM     15 CL   LIG    1       -2.711   0.862   0.020  0.00  0.00    -0.040 Cl
ENDBRANCH   8   9
ENDBRANCH   1   5
BRANCH   1  16
ATOM     16  N   LIG    1       -4.868   6.740   2.161  0.00  0.00    -0.190 NA
ATOM     17  N   LIG    1       -5.533   7.757   1.912  0.00  0.00    -0.140 NA
BRANCH  17  18
ATOM     18  C   LIG    1       -5.114   8.972   2.364  0.00  0.00    +0.190 A 
ATOM     19  N   LIG    1       -5.726  10.106   2.160  0.00  0.00    -0.400 NA
ATOM     20  C   LIG    1       -5.154  11.169   2.687  0.00  0.00    +0.110 A 
ATOM     21  C   LIG    1       -4.004  10.936   3.358  0.00  0.00    -0.070 A 
ATOM     22  S   LIG    1       -3.656   9.262   3.307  0.00  0.00    +0.180 S 
BRANCH  20  23
ATOM     23  C   LIG    1       -5.729  12.530   2.547  0.00  0.00    -0.030 A 
ATOM     24  C   LIG    1       -5.085  13.623   3.123  0.00  0.00    +0.070 A 
ATOM     25  C   LIG    1       -5.620  14.887   2.987  0.00  0.00    -0.010 A 
ATOM     26  C   LIG    1       -6.803  15.069   2.287  0.00  0.00    +0.110 A 
ATOM     27  C   LIG    1       -7.449  13.984   1.718  0.00  0.00    -0.010 A 
ATOM     28  F   LIG    1       -7.327  16.308   2.161  0.00  0.00    -0.140 F 
ATOM     29  C   LIG    1       -6.918  12.717   1.845  0.00  0.00    +0.090 A 
ENDBRANCH  20  23
ENDBRANCH  17  18
ENDBRANCH   1  16
TORSDOF 5
