REMARK  Name = ZINCnE00000rhodH.0
REMARK                            x       y       z     vdW  Elec       q    Type
REMARK                         _______ _______ _______ _____ _____    ______ ____
ROOT
ATOM      1  N   LIG    1       -0.040  -4.082  -0.130  0.00  0.00    -0.190 NA
ATOM      2  C   LIG    1       -0.738  -4.910   0.627  0.00  0.00    -0.190 C 
ENDROOT
BRANCH   2   3
ATOM      3  C   LIG    1       -1.666  -4.382   1.626  0.00  0.00    +0.460 C 
ATOM      4  O   LIG    1       -2.838  -4.233   1.347  0.00  0.00    -0.470 OA
ATOM      5  C   LIG    1       -1.167  -4.022   3.002  0.00  0.00    +0.060 C 
ENDBRANCH   2   3
BRANCH   2   6
ATOM      6  C   LIG    1       -0.582  -6.363   0.464  0.00  0.00    +0.440 C 
ATOM      7  S   LIG    1       -1.486  -7.436   1.445  0.00  0.00    -0.680 S 
BRANCH   6   8
ATOM      8  N   LIG    1        0.274  -6.849  -0.456  0.00  0.00    -0.620 N 
ATOM      9  H   LIG    1        0.740  -6.244  -1.053  0.00  0.00    +0.410 HD
BRANCH   8  10
ATOM     10  C   LIG    1        0.489  -8.227  -0.551  0.00  0.00    +0.130 A 
ATOM     11  C   LIG    1        1.782  -8.724  -0.663  0.00  0.00    -0.010 A 
ATOM     12  C   LIG    1        1.991 -10.086  -0.752  0.00  0.00    +0.000 A 
ATOM     13  C   LIG    1        0.915 -10.955  -0.738  0.00  0.00    -0.010 A 
ATOM     14  C   LIG    1       -0.373 -10.464  -0.632  0.00  0.00    +0.000 A 
ATOM     15  C   LIG    1       -0.589  -9.103  -0.538  0.00  0.00    +0.080 A 
ENDBRANCH   8  10
ENDBRANCH   6   8
ENDBRANCH   2   6
BRANCH   1  16
ATOM     16  N   LIG    1       -0.250  -2.811  -0.058  0.00  0.00    -0.410 NA
BRANCH  16  22
ATOM     17  C   LIG    1        0.263  -0.561  -0.782  0.00  0.00    +0.120 A 
ATOM     18  C   LIG    1        1.002   0.302  -1.573  0.00  0.00    -0.080 A 
ATOM     19  C   LIG    1        1.956  -0.199  -2.440  0.00  0.00    -0.020 A 
ATOM     20  C   LIG    1        2.176  -1.562  -2.519  0.00  0.00    -0.030 A 
ATOM     21  C   LIG    1        1.443  -2.431  -1.734  0.00  0.00    -0.020 A 
ATOM     22  C   LIG    1        0.488  -1.936  -0.857  0.00  0.00    +0.120 A 
BRANCH  17  24
ATOM     23  C   LIG    1       -0.847   1.349   0.098  0.00  0.00    +0.220 C 
ATOM     24  O   LIG    1       -0.676  -0.070   0.070  0.00  0.00    -0.300 OA
ENDBRANCH  17  24
ENDBRANCH  16  22
ENDBRANCH   1  16
TORSDOF 7
