REMARK  Name = ZINCnE00000dSNwM.0
REMARK                            x       y       z     vdW  Elec       q    Type
REMARK                         _______ _______ _______ _____ _____    ______ ____
ROOT
ATOM      1  O   LIG    1        0.181  -2.650  -0.014  0.00  0.00    -0.580 OA
ATOM      2  C   LIG    1       -0.936  -2.179  -0.001  0.00  0.00    +0.510 C 
ATOM      3  N   LIG    1       -1.104  -0.842   0.008  0.00  0.00    -0.680 NA
ENDROOT
BRANCH   3   4
ATOM      4  C   LIG    1        0.002  -0.004   0.002  0.00  0.00    +0.420 A 
ATOM      5  N   LIG    1        1.258  -0.376  -0.012  0.00  0.00    -0.370 NA
ATOM      6  N   LIG    1        2.011   0.667  -0.014  0.00  0.00    -0.270 NA
ATOM      7  C   LIG    1        1.271   1.738  -0.001  0.00  0.00    +0.060 A 
ATOM      8  O   LIG    1       -0.016   1.341   0.009  0.00  0.00    -0.250 OA
BRANCH   7   9
ATOM      9  C   LIG    1        1.764   3.161   0.002  0.00  0.00    +0.180 C 
BRANCH   9  10
ATOM     10  C   LIG    1        1.918   3.651  -1.440  0.00  0.00    -0.020 C 
ATOM     11  C   LIG    1        3.068   2.894  -2.135  0.00  0.00    +0.010 C 
ATOM     12  C   LIG    1        3.738   3.963  -3.033  0.00  0.00    -0.010 C 
ATOM     13  C   LIG    1        3.671   5.237  -2.155  0.00  0.00    +0.000 C 
ATOM     14  C   LIG    1        2.301   5.141  -1.453  0.00  0.00    +0.010 C 
ENDBRANCH   9  10
ENDBRANCH   7   9
ENDBRANCH   3   4
BRANCH   2  15
ATOM     15  C   LIG    1       -2.138  -3.089   0.006  0.00  0.00    -0.080 C 
ATOM     16  C   LIG    1       -2.392  -3.914   1.269  0.00  0.00    +0.040 C 
ATOM     17  C   LIG    1       -1.882  -4.597  -0.003  0.00  0.00    +0.050 C 
BRANCH  15  18
ATOM     18  C   LIG    1       -3.340  -2.583  -0.748  0.00  0.00    -0.030 A 
ATOM     19  C   LIG    1       -4.159  -3.472  -1.420  0.00  0.00    -0.010 A 
ATOM     20  C   LIG    1       -5.264  -3.008  -2.108  0.00  0.00    -0.030 A 
ATOM     21  C   LIG    1       -5.546  -1.655  -2.133  0.00  0.00    -0.020 A 
ATOM     22  C   LIG    1       -4.725  -0.766  -1.465  0.00  0.00    -0.020 A 
ATOM     23  C   LIG    1       -3.622  -1.230  -0.773  0.00  0.00    +0.090 A 
ENDBRANCH  15  18
ENDBRANCH   2  15
TORSDOF 5
