REMARK  Name = ZINCpe000000TUOv.0
REMARK                            x       y       z     vdW  Elec       q    Type
REMARK                         _______ _______ _______ _____ _____    ______ ____
ROOT
ATOM      1  C   LIG    1        1.917  -3.459   6.518  0.00  0.00    +0.160 C 
ATOM      2  C   LIG    1        0.743  -3.167   7.469  0.00  0.00    -0.010 C 
ATOM      3  C   LIG    1       -0.192  -3.498   6.292  0.00  0.00    +0.170 C 
ATOM      4  C   LIG    1        0.967  -3.104   5.367  0.00  0.00    -0.060 C 
ATOM      5  C   LIG    1        1.113  -4.018   4.152  0.00  0.00    +0.030 C 
ATOM      6  C   LIG    1       -0.020  -3.722   3.163  0.00  0.00    +0.260 C 
ATOM      7  N   LIG    1       -0.041  -2.280   2.886  0.00  0.00    -0.620 N 
ATOM      8  C   LIG    1       -0.149  -1.339   4.009  0.00  0.00    +0.310 C 
ATOM      9  C   LIG    1        0.042  -1.826   1.619  0.00  0.00    +0.710 C 
ATOM     10  N   LIG    1        0.040  -2.696   0.590  0.00  0.00    -0.750 N 
ATOM     11  H   LIG    1        0.051  -3.651   0.762  0.00  0.00    +0.400 HD
ATOM     12  O   LIG    1        0.120  -0.632   1.406  0.00  0.00    -0.590 OA
ATOM     13  C   LIG    1        0.978  -1.621   5.003  0.00  0.00    +0.060 C 
ENDROOT
BRANCH   3  14
ATOM     14  O   LIG    1       -1.322  -2.628   6.197  0.00  0.00    -0.550 OA
ATOM     15  H   LIG    1       -2.056  -2.871   6.777  0.00  0.00    +0.380 HD
ENDBRANCH   3  14
BRANCH   1  16
ATOM     16  O   LIG    1        3.009  -2.549   6.661  0.00  0.00    -0.360 OA
BRANCH  16  18
ATOM     17  C   LIG    1        5.294  -2.084   7.298  0.00  0.00    +0.040 C 
ATOM     18  C   LIG    1        4.196  -3.145   7.189  0.00  0.00    +0.160 C 
ENDBRANCH  16  18
ENDBRANCH   1  16
BRANCH  10  19
ATOM     19  C   LIG    1        0.020  -2.200  -0.788  0.00  0.00    +0.410 C 
BRANCH  19  20
ATOM     20  C   LIG    1        0.022  -3.367  -1.742  0.00  0.00    -0.000 A 
ATOM     21  C   LIG    1       -1.076  -3.987  -2.228  0.00  0.00    -0.030 A 
ATOM     22  C   LIG    1       -0.630  -5.013  -3.076  0.00  0.00    +0.050 A 
ATOM     23  C   LIG    1        0.735  -4.966  -3.063  0.00  0.00    -0.070 A 
ATOM     24  O   LIG    1        1.111  -3.956  -2.252  0.00  0.00    -0.160 OA
BRANCH  23  25
ATOM     25  C   LIG    1        1.634  -5.855  -3.807  0.00  0.00    +0.610 C 
ATOM     26  O   LIG    1        1.175  -6.731  -4.515  0.00  0.00    -0.520 OA
ATOM     27  N   LIG    1        2.970  -5.700  -3.705  0.00  0.00    -0.840 N 
ATOM     28  H   LIG    1        3.564  -6.288  -4.197  0.00  0.00    +0.410 HD
ATOM     29  H   LIG    1        3.335  -5.001  -3.141  0.00  0.00    +0.410 HD
ENDBRANCH  23  25
ENDBRANCH  19  20
ENDBRANCH  10  19
TORSDOF 6
