REMARK  Name = ZINCrH000004oWX8.0
REMARK                            x       y       z     vdW  Elec       q    Type
REMARK                         _______ _______ _______ _____ _____    ______ ____
ROOT
ATOM      1  C   LIG    1       -0.469   9.624  -2.679  0.00  0.00    +0.530 C 
ATOM      2  N   LIG    1       -0.169   8.313  -2.759  0.00  0.00    -0.670 N 
ATOM      3  H   LIG    1        0.701   8.033  -3.084  0.00  0.00    +0.410 HD
ATOM      4  O   LIG    1       -1.523   9.977  -2.194  0.00  0.00    -0.510 OA
ENDROOT
BRANCH   1   6
ATOM      5  C   LIG    1        1.829  10.515  -2.436  0.00  0.00    +0.070 C 
ATOM      6  C   LIG    1        0.506  10.653  -3.192  0.00  0.00    -0.030 C 
ATOM      7  C   LIG    1       -0.065  12.049  -2.956  0.00  0.00    +0.060 C 
ATOM      8  C   LIG    1       -1.266  12.245  -3.888  0.00  0.00    +0.030 C 
ATOM      9  C   LIG    1       -0.752  12.347  -5.322  0.00  0.00    +0.070 C 
ATOM     10  C   LIG    1        0.166  11.195  -5.639  0.00  0.00    -0.060 A 
ATOM     11  C   LIG    1        0.424  10.923  -6.976  0.00  0.00    +0.000 A 
ATOM     12  C   LIG    1        1.261   9.885  -7.331  0.00  0.00    +0.010 A 
ATOM     13  C   LIG    1        1.847   9.109  -6.349  0.00  0.00    +0.010 A 
ATOM     14  C   LIG    1        1.590   9.377  -5.020  0.00  0.00    +0.000 A 
ATOM     15  C   LIG    1        0.747  10.420  -4.660  0.00  0.00    -0.080 A 
ENDBRANCH   1   6
BRANCH   2  16
ATOM     16  C   LIG    1       -1.113   7.354  -2.374  0.00  0.00    +0.140 A 
ATOM     17  C   LIG    1       -1.972   7.611  -1.313  0.00  0.00    +0.020 A 
ATOM     18  C   LIG    1       -2.903   6.663  -0.935  0.00  0.00    +0.030 A 
ATOM     19  C   LIG    1       -2.984   5.462  -1.615  0.00  0.00    -0.010 A 
ATOM     20  C   LIG    1       -2.127   5.201  -2.669  0.00  0.00    -0.070 A 
ATOM     21  C   LIG    1       -1.194   6.145  -3.051  0.00  0.00    +0.010 A 
BRANCH  20  22
ATOM     22  C   LIG    1       -2.215   3.889  -3.404  0.00  0.00    +0.230 C 
BRANCH  22  23
ATOM     23  N   LIG    1       -1.325   2.909  -2.766  0.00  0.00    -0.530 NA
ATOM     24  C   LIG    1       -1.557   1.560  -3.300  0.00  0.00    +0.150 C 
ATOM     25  C   LIG    1       -0.571   0.584  -2.653  0.00  0.00    +0.220 C 
ATOM     26  O   LIG    1       -0.719   0.636  -1.232  0.00  0.00    -0.390 OA
ATOM     27  C   LIG    1       -0.500   1.936  -0.677  0.00  0.00    +0.220 C 
ATOM     28  C   LIG    1       -1.486   2.925  -1.304  0.00  0.00    +0.140 C 
ENDBRANCH  22  23
ENDBRANCH  20  22
ENDBRANCH   2  16
TORSDOF 4
