REMARK  Name = ZINCrH000004tEdS.0
REMARK                            x       y       z     vdW  Elec       q    Type
REMARK                         _______ _______ _______ _____ _____    ______ ____
ROOT
ATOM      1  O   LIG    1       -1.131   3.216   4.785  0.00  0.00    -0.510 OA
ATOM      2  C   LIG    1       -1.122   2.562   3.763  0.00  0.00    +0.510 C 
ATOM      3  N   LIG    1       -0.453   1.393   3.718  0.00  0.00    -0.680 N 
ATOM      4  H   LIG    1       -0.500   0.838   2.924  0.00  0.00    +0.420 HD
ENDROOT
BRANCH   3   5
ATOM      5  C   LIG    1        0.309   0.980   4.816  0.00  0.00    +0.120 A 
ATOM      6  C   LIG    1        1.491   0.277   4.618  0.00  0.00    +0.050 A 
ATOM      7  C   LIG    1        2.244  -0.124   5.704  0.00  0.00    +0.020 A 
ATOM      8  C   LIG    1        1.817   0.163   6.987  0.00  0.00    +0.110 A 
ATOM      9  C   LIG    1        0.638   0.858   7.188  0.00  0.00    -0.660 A 
ATOM     10  C   LIG    1       -0.117   1.267   6.106  0.00  0.00    +0.140 A 
BRANCH   9  11
ATOM     11  S   LIG    1        0.099   1.222   8.826  0.00  0.00    +2.710 S 
ATOM     12  O   LIG    1       -0.758   2.351   8.724  0.00  0.00    -0.940 OA
ATOM     13  O   LIG    1        1.260   1.199   9.645  0.00  0.00    -0.950 OA
BRANCH  11  14
ATOM     14  N   LIG    1       -0.849  -0.042   9.322  0.00  0.00    -1.010 NA
ATOM     15  C   LIG    1       -2.305  -0.142   9.144  0.00  0.00    +0.270 C 
ATOM     16  C   LIG    1       -2.753  -1.474   9.782  0.00  0.00    +0.030 C 
ATOM     17  C   LIG    1       -1.612  -1.777  10.788  0.00  0.00    +0.040 C 
ATOM     18  C   LIG    1       -0.373  -1.250  10.021  0.00  0.00    +0.270 C 
ENDBRANCH  11  14
ENDBRANCH   9  11
ENDBRANCH   3   5
BRANCH   2  19
ATOM     19  C   LIG    1       -1.858   3.057   2.545  0.00  0.00    +0.090 C 
BRANCH  19  20
ATOM     20  C   LIG    1       -2.527   4.396   2.862  0.00  0.00    +0.060 C 
BRANCH  20  21
ATOM     21  C   LIG    1       -3.263   4.891   1.644  0.00  0.00    +0.430 C 
ATOM     22  O   LIG    1       -3.253   4.236   0.621  0.00  0.00    -0.450 OA
BRANCH  21  23
ATOM     23  C   LIG    1       -3.963   6.115   1.691  0.00  0.00    -0.310 A 
ATOM     24  C   LIG    1       -4.663   6.672   0.651  0.00  0.00    +0.130 A 
ATOM     25  C   LIG    1       -5.252   7.868   0.974  0.00  0.00    +0.010 A 
ATOM     26  C   LIG    1       -5.037   8.287   2.231  0.00  0.00    -0.160 A 
ATOM     27 CL   LIG    1       -5.660   9.766   2.894  0.00  0.00    +0.000 Cl
ATOM     28  S   LIG    1       -4.071   7.174   3.090  0.00  0.00    +0.290 S 
ENDBRANCH  21  23
ENDBRANCH  20  21
ENDBRANCH  19  20
ENDBRANCH   2  19
TORSDOF 7
