REMARK  Name = ZINCpe000000VZe6.0
REMARK                            x       y       z     vdW  Elec       q    Type
REMARK                         _______ _______ _______ _____ _____    ______ ____
ROOT
ATOM      1  C   LIG    1       -0.053   4.057   0.023  0.00  0.00    -0.230 A 
ATOM      2  C   LIG    1        1.148   3.365   0.009  0.00  0.00    +0.370 A 
ATOM      3  N   LIG    1        1.131   2.042   0.002  0.00  0.00    -0.530 NA
ATOM      4  C   LIG    1       -0.017   1.380   0.010  0.00  0.00    +0.500 A 
ATOM      5  N   LIG    1       -1.182   2.011   0.019  0.00  0.00    -0.550 NA
ATOM      6  C   LIG    1       -1.235   3.332   0.031  0.00  0.00    +0.340 A 
ENDROOT
BRANCH   4   7
ATOM      7  N   LIG    1        0.002  -0.004   0.002  0.00  0.00    -0.460 N 
ATOM      8  C   LIG    1        0.761  -0.514  -1.148  0.00  0.00    +0.220 C 
ATOM      9  C   LIG    1        0.826  -2.042  -1.077  0.00  0.00    +0.190 C 
ATOM     10  N   LIG    1       -0.539  -2.587  -1.067  0.00  0.00    -0.550 NA
ATOM     11  C   LIG    1       -1.298  -2.077   0.084  0.00  0.00    +0.190 C 
ATOM     12  C   LIG    1       -0.519  -4.056  -1.075  0.00  0.00    +0.190 C 
ATOM     13  C   LIG    1       -1.363  -0.549   0.012  0.00  0.00    +0.220 C 
ENDBRANCH   4   7
BRANCH   1  14
ATOM     14  C   LIG    1       -0.073   5.564   0.031  0.00  0.00    +0.250 C 
BRANCH  14  17
ATOM     15  C   LIG    1       -1.030   5.839  -3.602  0.00  0.00    +0.180 C 
ATOM     16  C   LIG    1       -1.085   5.333  -2.158  0.00  0.00    +0.160 C 
ATOM     17  N   LIG    1       -0.093   6.060  -1.352  0.00  0.00    -0.530 NA
ATOM     18  C   LIG    1       -0.352   7.506  -1.389  0.00  0.00    +0.170 C 
ATOM     19  C   LIG    1       -0.305   7.991  -2.840  0.00  0.00    +0.110 C 
ATOM     20  C   LIG    1        1.100   7.773  -3.406  0.00  0.00    +0.020 C 
ATOM     21  C   LIG    1       -0.652   9.480  -2.893  0.00  0.00    +0.060 C 
ATOM     22  O   LIG    1       -1.252   7.252  -3.615  0.00  0.00    -0.360 OA
BRANCH  15  23
ATOM     23  C   LIG    1       -2.113   5.144  -4.429  0.00  0.00    +0.190 C 
BRANCH  23  25
ATOM     24  C   LIG    1       -2.959   4.936  -6.662  0.00  0.00    +0.200 C 
ATOM     25  O   LIG    1       -1.990   5.533  -5.799  0.00  0.00    -0.380 OA
ENDBRANCH  23  25
ENDBRANCH  15  23
ENDBRANCH  14  17
ENDBRANCH   1  14
TORSDOF 5
