REMARK  Name = ZINCqH0000007Q6i.0
REMARK                            x       y       z     vdW  Elec       q    Type
REMARK                         _______ _______ _______ _____ _____    ______ ____
ROOT
ATOM      1  N   LIG    1        3.630  -0.632  -0.039  0.00  0.00    -0.490 N 
ATOM      2  C   LIG    1        4.391  -0.374   1.191  0.00  0.00    +0.180 C 
ATOM      3  C   LIG    1        5.631  -1.274   1.219  0.00  0.00    +0.280 C 
ATOM      4  N   LIG    1        6.382  -1.074  -0.030  0.00  0.00    -0.620 N 
ATOM      5  C   LIG    1        5.654  -1.180  -1.304  0.00  0.00    +0.310 C 
ATOM      6  C   LIG    1        7.701  -0.800  -0.008  0.00  0.00    +0.710 C 
ATOM      7  N   LIG    1        8.330  -0.606   1.168  0.00  0.00    -0.640 N 
ATOM      8  H   LIG    1        7.851  -0.738   2.001  0.00  0.00    +0.420 HD
ATOM      9  O   LIG    1        8.324  -0.727  -1.050  0.00  0.00    -0.550 OA
ATOM     10  C   LIG    1        4.413  -0.284  -1.232  0.00  0.00    +0.180 C 
ENDROOT
BRANCH   1  16
ATOM     11  C   LIG    1        1.210  -0.664  -0.016  0.00  0.00    +0.160 A 
ATOM     12  C   LIG    1        0.004   0.016  -0.002  0.00  0.00    -0.080 A 
ATOM     13  C   LIG    1       -0.011   1.399   0.003  0.00  0.00    +0.050 A 
ATOM     14  C   LIG    1        1.176   2.107  -0.005  0.00  0.00    -0.020 A 
ATOM     15  C   LIG    1        2.385   1.436  -0.018  0.00  0.00    +0.010 A 
ATOM     16  C   LIG    1        2.408   0.049  -0.024  0.00  0.00    +0.050 A 
BRANCH  11  18
ATOM     17  C   LIG    1       -0.038  -2.688  -0.012  0.00  0.00    +0.220 C 
ATOM     18  O   LIG    1        1.227  -2.024  -0.021  0.00  0.00    -0.300 OA
ENDBRANCH  11  18
ENDBRANCH   1  16
BRANCH   7  19
ATOM     19  C   LIG    1        9.665  -0.219   1.187  0.00  0.00    +0.260 A 
ATOM     20  N   LIG    1       10.359  -0.002   2.260  0.00  0.00    -0.510 NA
ATOM     21  C   LIG    1       11.619   0.357   2.094  0.00  0.00    +0.110 A 
ATOM     22  C   LIG    1       12.004   0.457   0.820  0.00  0.00    -0.140 A 
ATOM     23  S   LIG    1       10.627   0.049  -0.200  0.00  0.00    +0.250 S 
BRANCH  21  24
ATOM     24  C   LIG    1       12.545   0.637   3.249  0.00  0.00    +0.060 C 
ATOM     25  C   LIG    1       13.836   1.366   2.840  0.00  0.00    +0.030 C 
ATOM     26  C   LIG    1       14.573   0.452   3.836  0.00  0.00    +0.010 C 
ATOM     27  C   LIG    1       13.433  -0.560   3.630  0.00  0.00    +0.020 C 
ENDBRANCH  21  24
ENDBRANCH   7  19
TORSDOF 4
