REMARK  Name = ZINCvU0000000DUe.0
REMARK                            x       y       z     vdW  Elec       q    Type
REMARK                         _______ _______ _______ _____ _____    ______ ____
ROOT
ATOM      1  C   LIG    1       -1.501   0.836   4.658  0.00  0.00    +0.260 A 
ATOM      2  N   LIG    1       -1.426  -0.026   3.668  0.00  0.00    -0.260 NA
ATOM      3  N   LIG    1       -1.396   0.597   2.544  0.00  0.00    -0.270 NA
ATOM      4  C   LIG    1       -1.449   1.894   2.745  0.00  0.00    +0.150 A 
ATOM      5  N   LIG    1       -1.512   2.094   4.096  0.00  0.00    -0.460 N 
ATOM      6  C   LIG    1       -1.581   3.377   4.800  0.00  0.00    +0.350 C 
ENDROOT
BRANCH   1  13
ATOM      7  C   LIG    1       -0.896  -1.632  10.287  0.00  0.00    -0.020 C 
ATOM      8  C   LIG    1       -2.083  -0.780  10.745  0.00  0.00    +0.030 C 
ATOM      9  C   LIG    1       -1.995   0.596  10.078  0.00  0.00    +0.110 C 
ATOM     10  C   LIG    1       -1.782   0.402   8.591  0.00  0.00    -0.160 A 
ATOM     11  C   LIG    1       -1.377  -0.750   8.017  0.00  0.00    -0.100 A 
ATOM     12  C   LIG    1       -1.255  -0.676   6.637  0.00  0.00    +0.080 A 
ATOM     13  C   LIG    1       -1.556   0.518   6.093  0.00  0.00    -0.130 A 
ATOM     14  S   LIG    1       -2.016   1.640   7.365  0.00  0.00    +0.120 S 
ATOM     15  C   LIG    1       -1.083  -2.013   8.817  0.00  0.00    +0.110 C 
BRANCH   7  17
ATOM     16  C   LIG    1        0.436  -3.691  10.764  0.00  0.00    +0.000 C 
ATOM     17  C   LIG    1       -0.820  -2.902  11.137  0.00  0.00    +0.000 C 
ENDBRANCH   7  17
ENDBRANCH   1  13
BRANCH   4  18
ATOM     18  S   LIG    1       -1.435   3.145   1.504  0.00  0.00    +0.080 S 
BRANCH  18  19
ATOM     19  C   LIG    1       -1.332   2.114   0.020  0.00  0.00    +0.070 C 
BRANCH  19  20
ATOM     20  C   LIG    1       -0.017   1.378   0.010  0.00  0.00    -0.090 A 
ATOM     21  C   LIG    1        1.171   2.086   0.002  0.00  0.00    +0.040 A 
ATOM     22  C   LIG    1        2.377   1.411  -0.015  0.00  0.00    +0.000 A 
ATOM     23  C   LIG    1        2.396   0.029  -0.021  0.00  0.00    +0.010 A 
ATOM     24  C   LIG    1        1.208  -0.679  -0.013  0.00  0.00    +0.000 A 
ATOM     25  C   LIG    1        0.002  -0.004   0.002  0.00  0.00    +0.060 A 
ENDBRANCH  19  20
BRANCH  19  26
ATOM     26  C   LIG    1       -1.429   2.986  -1.205  0.00  0.00    +0.550 C 
ATOM     27  N   LIG    1       -1.875   2.468  -2.367  0.00  0.00    -0.690 N 
ATOM     28  H   LIG    1       -2.134   1.534  -2.414  0.00  0.00    +0.410 HD
ATOM     29  O   LIG    1       -1.106   4.153  -1.146  0.00  0.00    -0.520 OA
BRANCH  27  30
ATOM     30  C   LIG    1       -1.970   3.316  -3.558  0.00  0.00    +0.220 C 
ATOM     31  C   LIG    1       -3.231   3.191  -4.415  0.00  0.00    +0.020 C 
ATOM     32  C   LIG    1       -1.903   2.627  -4.923  0.00  0.00    +0.020 C 
ENDBRANCH  27  30
ENDBRANCH  19  26
ENDBRANCH  18  19
ENDBRANCH   4  18
TORSDOF 7
