REMARK  Name = ZINCqH0000000y0L.1
REMARK                            x       y       z     vdW  Elec       q    Type
REMARK                         _______ _______ _______ _____ _____    ______ ____
ROOT
ATOM      1  C   LIG    1        1.280   1.980   0.007  0.00  0.00    +0.120 C 
ENDROOT
BRANCH   1   4
ATOM      2  N   LIG    1       -1.191   1.867   0.018  0.00  0.00    -0.670 N 
ATOM      3  H   LIG    1       -1.205   2.833   0.098  0.00  0.00    +0.420 HD
ATOM      4  C   LIG    1       -0.014   1.209   0.006  0.00  0.00    +0.530 C 
ATOM      5  O   LIG    1        0.002  -0.004  -0.009  0.00  0.00    -0.500 OA
BRANCH   2  10
ATOM      6  C   LIG    1       -3.709  -0.802   0.392  0.00  0.00    -0.150 A 
ATOM      7  C   LIG    1       -4.785  -0.240  -0.304  0.00  0.00    +0.050 A 
ATOM      8  C   LIG    1       -4.656   1.006  -0.881  0.00  0.00    +0.030 A 
ATOM      9  C   LIG    1       -3.469   1.706  -0.770  0.00  0.00    +0.020 A 
ATOM     10  C   LIG    1       -2.391   1.155  -0.086  0.00  0.00    +0.130 A 
ATOM     11  C   LIG    1       -2.508  -0.096   0.498  0.00  0.00    +0.090 A 
BRANCH   6  13
ATOM     12  C   LIG    1       -5.139  -2.890   0.892  0.00  0.00    +0.080 C 
ATOM     13  C   LIG    1       -3.842  -2.131   1.009  0.00  0.00    +0.390 C 
ATOM     14  O   LIG    1       -2.908  -2.616   1.611  0.00  0.00    -0.450 OA
ENDBRANCH   6  13
ENDBRANCH   2  10
ENDBRANCH   1   4
BRANCH   1  15
ATOM     15  S   LIG    1        2.672   0.823  -0.018  0.00  0.00    +0.100 S 
BRANCH  15  16
ATOM     16  C   LIG    1        4.017   1.962  -0.013  0.00  0.00    +0.250 A 
ATOM     17  N   LIG    1        3.919   3.273  -0.001  0.00  0.00    -0.530 NA
ATOM     18  C   LIG    1        5.144   3.817   0.002  0.00  0.00    +0.280 A 
ATOM     19  N   LIG    1        6.037   2.853  -0.016  0.00  0.00    -0.290 NA
ATOM     20  N   LIG    1        5.330   1.640  -0.026  0.00  0.00    -0.460 N 
ATOM     21  H   LIG    1        5.708   0.747  -0.041  0.00  0.00    +0.450 HD
BRANCH  18  22
ATOM     22  C   LIG    1        5.444   5.270   0.018  0.00  0.00    -0.030 A 
ATOM     23  C   LIG    1        4.404   6.198   0.032  0.00  0.00    +0.060 A 
ATOM     24  C   LIG    1        4.689   7.548   0.052  0.00  0.00    +0.000 A 
ATOM     25  C   LIG    1        6.002   7.981   0.047  0.00  0.00    -0.070 A 
ATOM     26  C   LIG    1        7.038   7.065   0.028  0.00  0.00    +0.010 A 
ATOM     27  C   LIG    1        6.306   9.457   0.062  0.00  0.00    +0.090 C 
ATOM     28  C   LIG    1        6.765   5.712   0.014  0.00  0.00    +0.050 A 
ENDBRANCH  18  22
ENDBRANCH  15  16
ENDBRANCH   1  15
TORSDOF 6
