REMARK  Name = ZINCqH0000000y0L.0
REMARK                            x       y       z     vdW  Elec       q    Type
REMARK                         _______ _______ _______ _____ _____    ______ ____
ROOT
ATOM      1  C   LIG    1        0.002  -0.004  -0.005  0.00  0.00    +0.100 C 
ENDROOT
BRANCH   1   4
ATOM      2  N   LIG    1       -1.640  -1.854   0.008  0.00  0.00    -0.670 N 
ATOM      3  H   LIG    1       -0.898  -2.473  -0.077  0.00  0.00    +0.420 HD
ATOM      4  C   LIG    1       -1.411  -0.526   0.015  0.00  0.00    +0.540 C 
ATOM      5  O   LIG    1       -2.344   0.250   0.037  0.00  0.00    -0.490 OA
BRANCH   2  10
ATOM      6  C   LIG    1       -5.302  -2.135  -0.336  0.00  0.00    -0.150 A 
ATOM      7  C   LIG    1       -5.535  -3.323   0.364  0.00  0.00    +0.060 A 
ATOM      8  C   LIG    1       -4.481  -4.006   0.934  0.00  0.00    +0.030 A 
ATOM      9  C   LIG    1       -3.191  -3.523   0.812  0.00  0.00    +0.020 A 
ATOM     10  C   LIG    1       -2.947  -2.340   0.123  0.00  0.00    +0.130 A 
ATOM     11  C   LIG    1       -3.998  -1.645  -0.454  0.00  0.00    +0.090 A 
BRANCH   6  13
ATOM     12  C   LIG    1       -7.828  -1.934  -0.815  0.00  0.00    +0.070 C 
ATOM     13  C   LIG    1       -6.424  -1.403  -0.945  0.00  0.00    +0.390 C 
ATOM     14  O   LIG    1       -6.219  -0.372  -1.550  0.00  0.00    -0.450 OA
ENDBRANCH   6  13
ENDBRANCH   2  10
ENDBRANCH   1   4
BRANCH   1  15
ATOM     15  S   LIG    1       -0.022   1.810   0.011  0.00  0.00    +0.120 S 
BRANCH  15  16
ATOM     16  C   LIG    1        1.689   2.229  -0.015  0.00  0.00    +0.200 A 
ATOM     17  N   LIG    1        2.684   1.372  -0.033  0.00  0.00    -0.320 NA
ATOM     18  N   LIG    1        3.871   2.123  -0.052  0.00  0.00    -0.470 N 
ATOM     19  H   LIG    1        4.777   1.777  -0.069  0.00  0.00    +0.440 HD
ATOM     20  C   LIG    1        3.500   3.422  -0.035  0.00  0.00    +0.350 A 
ATOM     21  N   LIG    1        2.183   3.469  -0.013  0.00  0.00    -0.500 NA
BRANCH  20  22
ATOM     22  C   LIG    1        4.412   4.588  -0.041  0.00  0.00    -0.050 A 
ATOM     23  C   LIG    1        5.793   4.396  -0.060  0.00  0.00    +0.030 A 
ATOM     24  C   LIG    1        6.638   5.487  -0.070  0.00  0.00    +0.010 A 
ATOM     25  C   LIG    1        6.118   6.768  -0.051  0.00  0.00    -0.060 A 
ATOM     26  C   LIG    1        4.749   6.965  -0.027  0.00  0.00    +0.010 A 
ATOM     27  C   LIG    1        7.047   7.955  -0.056  0.00  0.00    +0.100 C 
ATOM     28  C   LIG    1        3.893   5.883  -0.022  0.00  0.00    +0.080 A 
ENDBRANCH  20  22
ENDBRANCH  15  16
ENDBRANCH   1  15
TORSDOF 6
