REMARK  Name = ZINCtV00000lrKAY.0
REMARK                            x       y       z     vdW  Elec       q    Type
REMARK                         _______ _______ _______ _____ _____    ______ ____
ROOT
ATOM      1  C   LIG    1       -0.101   4.597   7.718  0.00  0.00    +0.520 C 
ATOM      2  O   LIG    1       -1.267   4.939   7.659  0.00  0.00    -0.490 OA
ENDROOT
BRANCH   1   3
ATOM      3  C   LIG    1        0.812   5.263   8.653  0.00  0.00    -0.100 A 
ATOM      4  C   LIG    1        1.543   6.399   8.249  0.00  0.00    +0.000 A 
ATOM      5  C   LIG    1        1.407   6.926   6.954  0.00  0.00    +0.000 A 
ATOM      6  C   LIG    1        2.123   8.027   6.597  0.00  0.00    +0.040 A 
ATOM      7  C   LIG    1        2.989   8.656   7.489  0.00  0.00    +0.010 A 
ATOM      8  C   LIG    1        3.162   8.200   8.757  0.00  0.00    +0.050 A 
ATOM      9  C   LIG    1        2.449   7.061   9.191  0.00  0.00    -0.060 A 
ATOM     10  C   LIG    1        2.603   6.567  10.487  0.00  0.00    +0.090 A 
ATOM     11  C   LIG    1        1.887   5.440  10.893  0.00  0.00    -0.060 A 
ATOM     12  C   LIG    1        2.025   4.923  12.199  0.00  0.00    +0.050 A 
ATOM     13  C   LIG    1        1.314   3.824  12.563  0.00  0.00    +0.010 A 
ATOM     14  C   LIG    1        0.445   3.189  11.678  0.00  0.00    +0.040 A 
ATOM     15  C   LIG    1        0.267   3.638  10.406  0.00  0.00    +0.000 A 
ATOM     16  C   LIG    1        0.973   4.771   9.965  0.00  0.00    +0.000 A 
ENDBRANCH   1   3
BRANCH   1  17
ATOM     17  O   LIG    1        0.352   3.606   6.923  0.00  0.00    -0.320 OA
BRANCH  17  18
ATOM     18  C   LIG    1       -0.608   2.993   6.023  0.00  0.00    +0.150 C 
ATOM     19  C   LIG    1       -1.280   1.810   6.722  0.00  0.00    +0.080 C 
BRANCH  18  20
ATOM     20  C   LIG    1        0.104   2.507   4.786  0.00  0.00    +0.400 C 
ATOM     21  O   LIG    1        1.302   2.323   4.809  0.00  0.00    -0.420 OA
BRANCH  20  26
ATOM     22  C   LIG    1       -2.862   1.538  -0.043  0.00  0.00    +0.100 C 
ATOM     23  C   LIG    1       -2.085   1.789   1.224  0.00  0.00    -0.050 A 
ATOM     24  C   LIG    1       -2.743   2.230   2.359  0.00  0.00    +0.000 A 
ATOM     25  C   LIG    1       -2.038   2.467   3.521  0.00  0.00    +0.050 A 
ATOM     26  C   LIG    1       -0.656   2.256   3.551  0.00  0.00    -0.170 A 
ATOM     27  C   LIG    1        0.001   1.804   2.401  0.00  0.00    +0.090 A 
ATOM     28  C   LIG    1       -0.718   1.572   1.248  0.00  0.00    -0.100 A 
ATOM     29  C   LIG    1       -0.013   1.086   0.008  0.00  0.00    +0.090 C 
ENDBRANCH  20  26
ENDBRANCH  18  20
ENDBRANCH  17  18
ENDBRANCH   1  17
TORSDOF 5
