REMARK  Name = ZINCrH000004v5nN.0
REMARK                            x       y       z     vdW  Elec       q    Type
REMARK                         _______ _______ _______ _____ _____    ______ ____
ROOT
ATOM      1  C   LIG    1        4.838   1.071  -0.251  0.00  0.00    -0.150 A 
ATOM      2  C   LIG    1        4.858  -0.325  -0.252  0.00  0.00    +0.130 A 
ATOM      3  C   LIG    1        6.058  -0.994  -0.375  0.00  0.00    +0.030 A 
ATOM      4  C   LIG    1        7.242  -0.284  -0.487  0.00  0.00    +0.070 A 
ATOM      5  C   LIG    1        7.229   1.101  -0.481  0.00  0.00    -0.680 A 
ATOM      6 CL   LIG    1        8.748  -1.134  -0.636  0.00  0.00    -0.020 Cl
ATOM      7  C   LIG    1        6.035   1.782  -0.364  0.00  0.00    +0.220 A 
ENDROOT
BRANCH   1   9
ATOM      8  O   LIG    1        3.542   3.010  -0.117  0.00  0.00    -0.500 OA
ATOM      9  C   LIG    1        3.556   1.794  -0.124  0.00  0.00    +0.560 C 
ATOM     10  N   LIG    1        2.402   1.106  -0.015  0.00  0.00    -0.670 N 
ATOM     11  H   LIG    1        2.419   0.138   0.048  0.00  0.00    +0.410 HD
BRANCH  10  12
ATOM     12  C   LIG    1        1.181   1.788   0.008  0.00  0.00    +0.140 A 
ATOM     13  C   LIG    1        0.059   1.225  -0.587  0.00  0.00    +0.010 A 
ATOM     14  C   LIG    1       -1.145   1.902  -0.567  0.00  0.00    +0.050 A 
ATOM     15  C   LIG    1       -1.236   3.135   0.054  0.00  0.00    -0.050 A 
ATOM     16  C   LIG    1       -0.120   3.699   0.647  0.00  0.00    +0.050 A 
ATOM     17 CL   LIG    1       -2.752   3.981   0.082  0.00  0.00    -0.070 Cl
ATOM     18  C   LIG    1        1.087   3.028   0.625  0.00  0.00    +0.040 A 
ENDBRANCH  10  12
ENDBRANCH   1   9
BRANCH   5  19
ATOM     19  S   LIG    1        8.740   1.996  -0.624  0.00  0.00    +2.690 S 
ATOM     20  O   LIG    1        8.399   3.373  -0.552  0.00  0.00    -0.940 OA
ATOM     21  O   LIG    1        9.442   1.425  -1.721  0.00  0.00    -0.930 OA
BRANCH  19  22
ATOM     22  N   LIG    1        9.636   1.663   0.728  0.00  0.00    -1.100 NA
ATOM     23  H   LIG    1        9.840   2.370   1.360  0.00  0.00    +0.430 HD
BRANCH  22  24
ATOM     24  C   LIG    1       10.120   0.302   0.970  0.00  0.00    +0.280 C 
BRANCH  24  25
ATOM     25  C   LIG    1       11.206   0.331   2.047  0.00  0.00    +0.150 C 
ATOM     26  C   LIG    1       11.722  -1.098   2.309  0.00  0.00    +0.010 C 
ATOM     27  C   LIG    1       13.239  -1.014   2.007  0.00  0.00    +0.000 C 
ATOM     28  C   LIG    1       13.513   0.505   2.142  0.00  0.00    +0.200 C 
ATOM     29  O   LIG    1       12.324   1.113   1.594  0.00  0.00    -0.370 OA
ENDBRANCH  24  25
ENDBRANCH  22  24
ENDBRANCH  19  22
ENDBRANCH   5  19
TORSDOF 6
