REMARK  Name = ZINCvU0000000DUc.0
REMARK                            x       y       z     vdW  Elec       q    Type
REMARK                         _______ _______ _______ _____ _____    ______ ____
ROOT
ATOM      1  C   LIG    1       -3.797   3.097   0.276  0.00  0.00    +0.000 C 
ATOM      2  C   LIG    1       -4.292   2.551  -1.065  0.00  0.00    +0.090 C 
ENDROOT
BRANCH   1   3
ATOM      3  C   LIG    1       -2.512   3.855   0.066  0.00  0.00    +0.420 C 
ATOM      4  O   LIG    1       -2.535   5.059  -0.086  0.00  0.00    -0.440 OA
BRANCH   3   8
ATOM      5  C   LIG    1        1.183   1.785   0.006  0.00  0.00    +0.190 A 
ATOM      6  C   LIG    1       -0.003   1.082   0.199  0.00  0.00    +0.000 A 
ATOM      7  C   LIG    1       -1.202   1.748   0.215  0.00  0.00    +0.090 A 
ATOM      8  C   LIG    1       -1.231   3.138   0.045  0.00  0.00    -0.180 A 
ATOM      9  C   LIG    1       -0.035   3.840  -0.149  0.00  0.00    +0.110 A 
ATOM     10  C   LIG    1        1.158   3.166  -0.168  0.00  0.00    -0.020 A 
BRANCH   5  12
ATOM     11  C   LIG    1        2.462  -0.146  -0.515  0.00  0.00    +0.520 C 
ATOM     12  N   LIG    1        2.398   1.104  -0.014  0.00  0.00    -0.680 N 
ATOM     13  H   LIG    1        3.198   1.529   0.332  0.00  0.00    +0.410 HD
ATOM     14  O   LIG    1        1.484  -0.642  -1.034  0.00  0.00    -0.510 OA
BRANCH  11  16
ATOM     15  C   LIG    1        4.145  -1.096   1.039  0.00  0.00    +0.040 C 
ATOM     16  C   LIG    1        3.748  -0.927  -0.429  0.00  0.00    -0.010 C 
ATOM     17  C   LIG    1        3.551  -2.305  -1.065  0.00  0.00    +0.050 C 
ENDBRANCH  11  16
ENDBRANCH   5  12
ENDBRANCH   3   8
ENDBRANCH   1   3
BRANCH   1  18
ATOM     18  S   LIG    1       -5.045   4.207   0.973  0.00  0.00    +0.060 S 
BRANCH  18  19
ATOM     19  C   LIG    1       -6.354   3.060   1.250  0.00  0.00    +0.150 A 
ATOM     20  N   LIG    1       -6.333   1.774   0.990  0.00  0.00    -0.280 NA
ATOM     21  N   LIG    1       -7.456   1.242   1.317  0.00  0.00    -0.280 NA
ATOM     22  C   LIG    1       -8.257   2.149   1.802  0.00  0.00    +0.230 A 
ATOM     23  N   LIG    1       -7.582   3.341   1.783  0.00  0.00    -0.420 N 
BRANCH  23  24
ATOM     24  C   LIG    1       -8.053   4.588   2.216  0.00  0.00    +0.100 A 
ATOM     25  C   LIG    1       -8.348   4.793   3.557  0.00  0.00    +0.030 A 
ATOM     26  C   LIG    1       -8.806   6.025   3.982  0.00  0.00    +0.040 A 
ATOM     27  C   LIG    1       -8.983   7.050   3.071  0.00  0.00    +0.030 A 
ATOM     28  C   LIG    1       -8.696   6.847   1.734  0.00  0.00    +0.040 A 
ATOM     29  C   LIG    1       -8.232   5.620   1.304  0.00  0.00    +0.030 A 
ENDBRANCH  23  24
BRANCH  22  30
ATOM     30  C   LIG    1       -9.663   1.926   2.297  0.00  0.00    +0.030 C 
ATOM     31  C   LIG    1      -10.148   0.480   2.421  0.00  0.00    +0.070 C 
ATOM     32  C   LIG    1      -10.684   1.373   1.300  0.00  0.00    +0.060 C 
ENDBRANCH  22  30
ENDBRANCH  18  19
ENDBRANCH   1  18
TORSDOF 8
