REMARK  Name = ZINCvU0000000GrQ.2
REMARK                            x       y       z     vdW  Elec       q    Type
REMARK                         _______ _______ _______ _____ _____    ______ ____
ROOT
ATOM      1  N   LIG    1       -0.947  -1.864  -1.826  0.00  0.00    -0.740 N 
ATOM      2  H   LIG    1       -1.480  -1.571  -1.070  0.00  0.00    +0.400 HD
ATOM      3  C   LIG    1        0.272  -1.330  -2.039  0.00  0.00    +0.710 C 
ATOM      4  N   LIG    1        0.792  -0.462  -1.149  0.00  0.00    -0.630 N 
ATOM      5  C   LIG    1        0.000   0.000  -0.001  0.00  0.00    +0.260 C 
ATOM      6  C   LIG    1       -0.017   1.532   0.005  0.00  0.00    +0.010 C 
ATOM      7  C   LIG    1        1.423   2.054  -0.003  0.00  0.00    +0.050 C 
ATOM      8  C   LIG    1        2.137   1.569  -1.260  0.00  0.00    -0.070 C 
ATOM      9  C   LIG    1        3.570   2.126  -1.306  0.00  0.00    +0.040 C 
ATOM     10  C   LIG    1        3.624   2.976  -2.595  0.00  0.00    +0.160 C 
ATOM     11  N   LIG    1        2.210   3.348  -2.859  0.00  0.00    -0.500 NA
ATOM     12  C   LIG    1        1.439   2.124  -2.515  0.00  0.00    +0.180 C 
ATOM     13  C   LIG    1        2.164   0.043  -1.307  0.00  0.00    +0.300 C 
ATOM     14  O   LIG    1        0.902  -1.631  -3.035  0.00  0.00    -0.590 OA
ENDROOT
BRANCH   1  15
ATOM     15  C   LIG    1       -1.466  -2.889  -2.734  0.00  0.00    +0.340 C 
BRANCH  15  20
ATOM     16  C   LIG    1       -5.219  -3.057  -2.326  0.00  0.00    +0.130 A 
ATOM     17  C   LIG    1       -5.352  -4.110  -1.434  0.00  0.00    -0.070 A 
ATOM     18  C   LIG    1       -4.228  -4.763  -0.967  0.00  0.00    +0.050 A 
ATOM     19  C   LIG    1       -2.972  -4.371  -1.392  0.00  0.00    -0.010 A 
ATOM     20  C   LIG    1       -2.837  -3.318  -2.277  0.00  0.00    -0.070 A 
ATOM     21  C   LIG    1       -3.958  -2.661  -2.747  0.00  0.00    +0.000 A 
BRANCH  16  23
ATOM     22  C   LIG    1       -7.590  -2.873  -2.311  0.00  0.00    +0.250 C 
ATOM     23  O   LIG    1       -6.323  -2.412  -2.787  0.00  0.00    -0.320 OA
ENDBRANCH  16  23
ENDBRANCH  15  20
ENDBRANCH   1  15
BRANCH  11  24
ATOM     24  C   LIG    1        2.016   3.713  -4.268  0.00  0.00    +0.220 C 
BRANCH  24  25
ATOM     25  C   LIG    1        2.703   5.025  -4.546  0.00  0.00    -0.060 A 
ATOM     26  C   LIG    1        2.013   6.213  -4.389  0.00  0.00    +0.060 A 
ATOM     27  C   LIG    1        2.644   7.418  -4.638  0.00  0.00    +0.040 A 
ATOM     28  C   LIG    1        3.962   7.435  -5.055  0.00  0.00    -0.030 A 
ATOM     29  C   LIG    1        4.652   6.245  -5.218  0.00  0.00    -0.030 A 
ATOM     30 CL   LIG    1        6.307   6.264  -5.742  0.00  0.00    -0.050 Cl
ATOM     31 CL   LIG    1        4.753   8.947  -5.375  0.00  0.00    -0.050 Cl
ATOM     32  C   LIG    1        4.021   5.040  -4.963  0.00  0.00    +0.050 A 
ENDBRANCH  24  25
ENDBRANCH  11  24
TORSDOF 5
