REMARK  Name = ZINCpe00000MJIrQ.0
REMARK                            x       y       z     vdW  Elec       q    Type
REMARK                         _______ _______ _______ _____ _____    ______ ____
ROOT
ATOM      1  C   LIG    1        3.761   1.500   0.054  0.00  0.00    +0.250 C 
ATOM      2  O   LIG    1        4.510   1.160  -1.125  0.00  0.00    -0.360 OA
ATOM      3  C   LIG    1        3.552   0.803  -2.145  0.00  0.00    +0.200 C 
ATOM      4  C   LIG    1        2.484  -0.015  -1.369  0.00  0.00    +0.000 C 
ATOM      5  C   LIG    1        2.424   0.737  -0.017  0.00  0.00    -0.030 C 
ENDROOT
BRANCH   1  13
ATOM      6  C   LIG    1        5.300  -1.241   0.450  0.00  0.00    +0.160 C 
ATOM      7  C   LIG    1        5.204  -0.127   1.460  0.00  0.00    +0.100 A 
ATOM      8  N   LIG    1        5.745  -0.122   2.651  0.00  0.00    -0.300 NA
ATOM      9  N   LIG    1        5.418   1.088   3.276  0.00  0.00    -0.370 N 
ATOM     10  C   LIG    1        4.668   1.810   2.416  0.00  0.00    +0.100 A 
ATOM     11  C   LIG    1        4.095   3.180   2.671  0.00  0.00    +0.140 C 
ATOM     12  C   LIG    1        5.819   1.499   4.624  0.00  0.00    +0.360 C 
ATOM     13  C   LIG    1        4.524   1.083   1.284  0.00  0.00    -0.240 A 
ENDBRANCH   1  13
BRANCH   5  14
ATOM     14  C   LIG    1        1.248   1.716  -0.001  0.00  0.00    +0.290 C 
BRANCH  14  15
ATOM     15  N   LIG    1       -0.011   0.966   0.007  0.00  0.00    -0.710 N 
ATOM     16  H   LIG    1        0.002  -0.004   0.002  0.00  0.00    +0.410 HD
ATOM     17  C   LIG    1       -1.187   1.624   0.017  0.00  0.00    +0.580 C 
ATOM     18  O   LIG    1       -1.204   2.840   0.023  0.00  0.00    -0.520 OA
BRANCH  17  19
ATOM     19  C   LIG    1       -2.448   0.873   0.018  0.00  0.00    +0.080 C 
ATOM     20  N   LIG    1       -2.420  -0.424   0.011  0.00  0.00    -0.210 NA
ATOM     21  N   LIG    1       -3.601  -1.173   0.011  0.00  0.00    -0.460 N 
ATOM     22  C   LIG    1       -4.766  -0.609  -0.364  0.00  0.00    +0.490 C 
ATOM     23  C   LIG    1       -4.796   0.841  -0.780  0.00  0.00    +0.090 C 
ATOM     24  O   LIG    1       -5.786  -1.264  -0.368  0.00  0.00    -0.510 OA
ATOM     25  C   LIG    1       -3.572  -2.579   0.421  0.00  0.00    +0.340 C 
ATOM     26  C   LIG    1       -3.756   1.618   0.035  0.00  0.00    +0.110 C 
ENDBRANCH  17  19
ENDBRANCH  14  15
ENDBRANCH   5  14
TORSDOF 4
