REMARK  Name = ZINCtV000002HYQK.0
REMARK                            x       y       z     vdW  Elec       q    Type
REMARK                         _______ _______ _______ _____ _____    ______ ____
ROOT
ATOM      1  S   LIG    1        4.669   8.598  -2.167  0.00  0.00    +0.080 S 
ENDROOT
BRANCH   1   2
ATOM      2  C   LIG    1        5.982   9.765  -2.026  0.00  0.00    +0.120 A 
ATOM      3  N   LIG    1        6.479  10.242  -0.911  0.00  0.00    -0.280 NA
ATOM      4  N   LIG    1        7.427  11.068  -1.183  0.00  0.00    -0.270 NA
ATOM      5  C   LIG    1        7.567  11.158  -2.484  0.00  0.00    +0.260 A 
ATOM      6  O   LIG    1        6.655  10.335  -3.046  0.00  0.00    -0.210 OA
BRANCH   5   7
ATOM      7  C   LIG    1        8.541  12.003  -3.201  0.00  0.00    -0.130 A 
ATOM      8  C   LIG    1        8.698  12.097  -4.548  0.00  0.00    +0.310 A 
ATOM      9  N   LIG    1        9.696  12.981  -4.834  0.00  0.00    -0.580 N 
ATOM     10  H   LIG    1        9.989  13.216  -5.729  0.00  0.00    +0.430 HD
ATOM     11  C   LIG    1       10.233  13.488  -3.670  0.00  0.00    +0.090 A 
ATOM     12  C   LIG    1       11.252  14.398  -3.408  0.00  0.00    +0.000 A 
ATOM     13  C   LIG    1       11.571  14.716  -2.107  0.00  0.00    +0.040 A 
ATOM     14  C   LIG    1       10.886  14.137  -1.048  0.00  0.00    -0.010 A 
ATOM     15  C   LIG    1        9.873  13.235  -1.286  0.00  0.00    +0.080 A 
ATOM     16  C   LIG    1        9.539  12.903  -2.597  0.00  0.00    -0.070 A 
ENDBRANCH   5   7
ENDBRANCH   1   2
BRANCH   1  17
ATOM     17  C   LIG    1        4.305   8.321  -0.416  0.00  0.00    +0.200 C 
BRANCH  17  20
ATOM     18  C   LIG    1        2.334   5.272  -0.097  0.00  0.00    +0.300 A 
ATOM     19  N   LIG    1        3.384   6.024  -0.205  0.00  0.00    -0.530 NA
ATOM     20  C   LIG    1        3.180   7.326  -0.288  0.00  0.00    +0.110 A 
ATOM     21  C   LIG    1        1.898   7.690  -0.248  0.00  0.00    -0.100 A 
ATOM     22  S   LIG    1        0.920   6.233  -0.100  0.00  0.00    +0.160 S 
BRANCH  18  23
ATOM     23  N   LIG    1        2.354   3.888   0.001  0.00  0.00    -0.630 N 
ATOM     24  H   LIG    1        3.199   3.420   0.084  0.00  0.00    +0.420 HD
BRANCH  23  29
ATOM     25  C   LIG    1       -2.511   0.974  -0.081  0.00  0.00    +0.090 C 
ATOM     26  C   LIG    1       -1.217   1.747  -0.062  0.00  0.00    -0.100 A 
ATOM     27  C   LIG    1       -1.074   2.873  -0.852  0.00  0.00    +0.050 A 
ATOM     28  C   LIG    1        0.108   3.586  -0.832  0.00  0.00    -0.030 A 
ATOM     29  C   LIG    1        1.156   3.169  -0.021  0.00  0.00    +0.150 A 
ATOM     30  C   LIG    1        1.011   2.034   0.767  0.00  0.00    -0.010 A 
ATOM     31  C   LIG    1       -0.174   1.325   0.742  0.00  0.00    +0.040 A 
ENDBRANCH  23  29
ENDBRANCH  18  23
ENDBRANCH  17  20
ENDBRANCH   1  17
TORSDOF 6
