REMARK  Name = ZINCrH000004jekf.0
REMARK                            x       y       z     vdW  Elec       q    Type
REMARK                         _______ _______ _______ _____ _____    ______ ____
ROOT
ATOM      1  C   LIG    1       -5.250   1.307   2.349  0.00  0.00    -0.010 C 
ATOM      2  C   LIG    1       -4.785   0.718   3.683  0.00  0.00    +0.030 C 
ATOM      3  C   LIG    1       -4.416   1.856   4.639  0.00  0.00    +0.290 C 
ATOM      4  N   LIG    1       -5.561   2.770   4.750  0.00  0.00    -0.610 N 
ATOM      5  C   LIG    1       -6.145   3.324   3.521  0.00  0.00    +0.270 C 
ATOM      6  C   LIG    1       -6.066   3.094   5.957  0.00  0.00    +0.570 C 
ATOM      7  O   LIG    1       -5.637   2.558   6.960  0.00  0.00    -0.520 OA
ATOM      8  C   LIG    1       -6.494   2.169   2.577  0.00  0.00    +0.050 C 
ENDROOT
BRANCH   6   9
ATOM      9  C   LIG    1       -7.141   4.100   6.061  0.00  0.00    -0.180 A 
ATOM     10  C   LIG    1       -7.035   5.313   5.375  0.00  0.00    +0.120 A 
ATOM     11  C   LIG    1       -8.045   6.246   5.471  0.00  0.00    -0.020 A 
ATOM     12  C   LIG    1       -9.159   5.990   6.255  0.00  0.00    +0.160 A 
ATOM     13  C   LIG    1       -9.270   4.793   6.943  0.00  0.00    -0.040 A 
ATOM     14  F   LIG    1      -10.142   6.912   6.349  0.00  0.00    -0.120 F 
ATOM     15  C   LIG    1       -8.268   3.846   6.851  0.00  0.00    +0.180 A 
ATOM     16  F   LIG    1       -8.375   2.678   7.521  0.00  0.00    -0.110 F 
ENDBRANCH   6   9
BRANCH   1  19
ATOM     17  N   LIG    1       -4.631  -0.701   1.044  0.00  0.00    -0.730 N 
ATOM     18  H   LIG    1       -3.735  -0.622   1.407  0.00  0.00    +0.400 HD
ATOM     19  C   LIG    1       -5.581   0.190   1.394  0.00  0.00    +0.520 C 
ATOM     20  O   LIG    1       -6.701   0.091   0.941  0.00  0.00    -0.530 OA
BRANCH  17  21
ATOM     21  C   LIG    1       -4.953  -1.787   0.116  0.00  0.00    +0.360 C 
BRANCH  21  23
ATOM     22  C   LIG    1       -3.387  -3.701   0.616  0.00  0.00    -0.070 A 
ATOM     23  C   LIG    1       -3.728  -2.635  -0.109  0.00  0.00    -0.210 A 
ATOM     24  S   LIG    1       -2.533  -2.375  -1.373  0.00  0.00    +0.110 S 
ATOM     25  C   LIG    1       -1.610  -3.770  -0.829  0.00  0.00    -0.030 A 
ATOM     26  C   LIG    1       -2.218  -4.328   0.219  0.00  0.00    +0.010 A 
BRANCH  22  28
ATOM     27  C   LIG    1       -5.326  -5.103   1.268  0.00  0.00    +0.030 C 
ATOM     28  C   LIG    1       -4.212  -4.188   1.780  0.00  0.00    +0.080 C 
ENDBRANCH  22  28
ENDBRANCH  21  23
ENDBRANCH  17  21
ENDBRANCH   1  19
TORSDOF 5
