REMARK  Name = ZINCrD0000071SzP.1
REMARK                            x       y       z     vdW  Elec       q    Type
REMARK                         _______ _______ _______ _____ _____    ______ ____
ROOT
ATOM      1  N   LIG    1        5.914   2.126   0.161  0.00  0.00    -0.630 N 
ATOM      2  H   LIG    1        5.907   3.095   0.166  0.00  0.00    +0.420 HD
ATOM      3  C   LIG    1        4.755   1.444   0.067  0.00  0.00    +0.710 C 
ATOM      4  N   LIG    1        3.587   2.109  -0.020  0.00  0.00    -0.670 N 
ATOM      5  H   LIG    1        3.584   3.077  -0.081  0.00  0.00    +0.420 HD
ATOM      6  O   LIG    1        4.764   0.228   0.060  0.00  0.00    -0.530 OA
ENDROOT
BRANCH   4   7
ATOM      7  C   LIG    1        2.382   1.406  -0.022  0.00  0.00    +0.210 A 
ATOM      8  C   LIG    1        1.260   1.954   0.601  0.00  0.00    -0.020 A 
ATOM      9  C   LIG    1        0.075   1.278   0.607  0.00  0.00    +0.120 A 
ATOM     10  C   LIG    1       -0.016   0.027  -0.014  0.00  0.00    -0.170 A 
ATOM     11  C   LIG    1       -1.275  -0.720  -0.022  0.00  0.00    +0.030 A 
ATOM     12  C   LIG    1       -1.300  -1.929  -0.642  0.00  0.00    -0.100 A 
ATOM     13  C   LIG    1       -0.132  -2.428  -1.253  0.00  0.00    +0.510 A 
ATOM     14  O   LIG    1        1.018  -1.736  -1.247  0.00  0.00    -0.270 OA
ATOM     15  O   LIG    1       -0.169  -3.513  -1.805  0.00  0.00    -0.460 OA
ATOM     16  C   LIG    1       -2.510  -0.163   0.639  0.00  0.00    +0.130 C 
ATOM     17  C   LIG    1        1.112  -0.532  -0.644  0.00  0.00    +0.170 A 
ATOM     18  C   LIG    1        2.309   0.168  -0.641  0.00  0.00    +0.020 A 
ENDBRANCH   4   7
BRANCH   1  22
ATOM     19  C   LIG    1        9.329   1.190   0.421  0.00  0.00    +0.100 A 
ATOM     20  C   LIG    1        9.028  -0.110   0.390  0.00  0.00    -0.120 A 
ATOM     21  S   LIG    1        7.278  -0.263   0.261  0.00  0.00    +0.270 S 
ATOM     22  C   LIG    1        7.119   1.439   0.251  0.00  0.00    +0.250 A 
ATOM     23  N   LIG    1        8.286   1.996   0.345  0.00  0.00    -0.490 NA
BRANCH  19  24
ATOM     24  C   LIG    1       10.743   1.696   0.534  0.00  0.00    +0.200 C 
BRANCH  24  25
ATOM     25  C   LIG    1       11.032   2.639  -0.606  0.00  0.00    +0.460 C 
ATOM     26  O   LIG    1       10.177   2.875  -1.425  0.00  0.00    -0.490 OA
BRANCH  25  27
ATOM     27  O   LIG    1       12.239   3.216  -0.710  0.00  0.00    -0.360 OA
BRANCH  27  29
ATOM     28  C   LIG    1       13.871   4.670  -1.785  0.00  0.00    +0.070 C 
ATOM     29  C   LIG    1       12.447   4.113  -1.833  0.00  0.00    +0.200 C 
ENDBRANCH  27  29
ENDBRANCH  25  27
ENDBRANCH  24  25
ENDBRANCH  19  24
ENDBRANCH   1  22
TORSDOF 6
