REMARK  Name = ZINCvU000000061C.0
REMARK                            x       y       z     vdW  Elec       q    Type
REMARK                         _______ _______ _______ _____ _____    ______ ____
ROOT
ATOM      1  C   LIG    1       -3.539   0.614   5.350  0.00  0.00    +0.100 A 
ATOM      2  C   LIG    1       -2.748   0.286   4.267  0.00  0.00    +0.000 A 
ATOM      3  C   LIG    1       -2.264   1.295   3.427  0.00  0.00    -0.120 A 
ATOM      4  C   LIG    1       -2.594   2.630   3.682  0.00  0.00    +0.080 A 
ATOM      5  C   LIG    1       -3.389   2.949   4.762  0.00  0.00    -0.040 A 
ATOM      6  C   LIG    1       -3.864   1.948   5.598  0.00  0.00    +0.140 A 
ENDROOT
BRANCH   1   8
ATOM      7  C   LIG    1       -3.634  -1.707   5.859  0.00  0.00    +0.250 C 
ATOM      8  O   LIG    1       -4.006  -0.363   6.172  0.00  0.00    -0.300 OA
ENDBRANCH   1   8
BRANCH   3   9
ATOM      9  C   LIG    1       -1.415   0.953   2.276  0.00  0.00    +0.320 C 
ATOM     10  C   LIG    1       -0.596  -0.118   2.336  0.00  0.00    -0.640 C 
BRANCH  10  11
ATOM     11  S   LIG    1        0.279  -0.640   0.898  0.00  0.00    +2.590 S 
ATOM     12  O   LIG    1        0.073  -2.042   0.791  0.00  0.00    -0.920 OA
ATOM     13  O   LIG    1       -0.061   0.277  -0.133  0.00  0.00    -0.920 OA
BRANCH  11  14
ATOM     14  C   LIG    1        1.996  -0.413   1.221  0.00  0.00    -0.670 A 
ATOM     15  C   LIG    1        2.607   0.785   0.900  0.00  0.00    +0.140 A 
ATOM     16  C   LIG    1        3.953   0.966   1.158  0.00  0.00    +0.000 A 
ATOM     17  C   LIG    1        4.690  -0.056   1.727  0.00  0.00    -0.020 A 
ATOM     18  C   LIG    1        4.081  -1.256   2.043  0.00  0.00    -0.010 A 
ATOM     19  C   LIG    1        6.159   0.139   2.002  0.00  0.00    +0.090 C 
ATOM     20  C   LIG    1        2.733  -1.434   1.790  0.00  0.00    +0.130 A 
ENDBRANCH  11  14
ENDBRANCH  10  11
BRANCH  10  21
ATOM     21  C   LIG    1       -0.437  -0.829   3.568  0.00  0.00    +0.270 C 
ATOM     22  N   LIG    1       -0.311  -1.394   4.546  0.00  0.00    -0.400 NA
ENDBRANCH  10  21
ENDBRANCH   3   9
BRANCH   6  23
ATOM     23  O   LIG    1       -4.647   2.268   6.661  0.00  0.00    -0.290 OA
BRANCH  23  24
ATOM     24  C   LIG    1       -4.940   3.652   6.857  0.00  0.00    +0.260 C 
BRANCH  24  25
ATOM     25  C   LIG    1       -5.814   3.813   8.074  0.00  0.00    -0.100 A 
ATOM     26  C   LIG    1       -7.190   3.783   7.946  0.00  0.00    +0.060 A 
ATOM     27  C   LIG    1       -7.992   3.926   9.063  0.00  0.00    +0.030 A 
ATOM     28  C   LIG    1       -7.416   4.110  10.308  0.00  0.00    -0.020 A 
ATOM     29  C   LIG    1       -6.039   4.146  10.435  0.00  0.00    +0.030 A 
ATOM     30 CL   LIG    1       -8.423   4.297  11.710  0.00  0.00    -0.060 Cl
ATOM     31  C   LIG    1       -5.239   3.997   9.318  0.00  0.00    +0.050 A 
ENDBRANCH  24  25
ENDBRANCH  23  24
ENDBRANCH   6  23
TORSDOF 8
