REMARK  Name = ZINCtV000002AEMM.0
REMARK                            x       y       z     vdW  Elec       q    Type
REMARK                         _______ _______ _______ _____ _____    ______ ____
ROOT
ATOM      1  C   LIG    1        1.006   5.949  -1.839  0.00  0.00    +0.130 A 
ATOM      2  N   LIG    1        0.858   7.210  -1.550  0.00  0.00    -0.460 NA
ATOM      3  C   LIG    1        1.229   8.079  -2.463  0.00  0.00    +0.070 A 
ATOM      4  C   LIG    1        1.709   7.562  -3.599  0.00  0.00    -0.040 A 
ATOM      5  S   LIG    1        1.682   5.805  -3.459  0.00  0.00    +0.120 S 
ENDROOT
BRANCH   1   9
ATOM      6  C   LIG    1       -0.001   2.703   0.717  0.00  0.00    +0.130 A 
ATOM      7  C   LIG    1       -0.200   4.008   1.142  0.00  0.00    -0.030 A 
ATOM      8  C   LIG    1        0.125   5.063   0.315  0.00  0.00    +0.080 A 
ATOM      9  C   LIG    1        0.657   4.819  -0.952  0.00  0.00    -0.040 A 
ATOM     10  C   LIG    1        0.864   3.505  -1.378  0.00  0.00    -0.010 A 
ATOM     11  C   LIG    1        0.530   2.452  -0.547  0.00  0.00    +0.100 A 
BRANCH   6  13
ATOM     12  C   LIG    1       -0.863   1.995   2.817  0.00  0.00    +0.240 C 
ATOM     13  O   LIG    1       -0.323   1.666   1.535  0.00  0.00    -0.300 OA
ENDBRANCH   6  13
BRANCH  11  14
ATOM     14  O   LIG    1        0.725   1.171  -0.961  0.00  0.00    -0.300 OA
ATOM     15  C   LIG    1        1.273   0.988  -2.268  0.00  0.00    +0.250 C 
ENDBRANCH  11  14
ENDBRANCH   1   9
BRANCH   3  16
ATOM     16  C   LIG    1        1.112   9.566  -2.248  0.00  0.00    +0.190 C 
BRANCH  16  17
ATOM     17  S   LIG    1       -0.510  10.133  -2.816  0.00  0.00    +0.100 S 
BRANCH  17  18
ATOM     18  C   LIG    1       -0.376  11.853  -2.455  0.00  0.00    +0.040 A 
ATOM     19  N   LIG    1        0.637  12.466  -1.923  0.00  0.00    -0.260 NA
ATOM     20  N   LIG    1        0.550  13.825  -1.723  0.00  0.00    -0.300 N 
ATOM     21  C   LIG    1       -0.600  14.420  -2.091  0.00  0.00    +0.220 A 
ATOM     22  S   LIG    1       -1.008  16.078  -1.964  0.00  0.00    -0.400 S 
ATOM     23  S   LIG    1       -1.600  13.104  -2.737  0.00  0.00    +0.150 S 
BRANCH  20  24
ATOM     24  C   LIG    1        1.603  14.552  -1.159  0.00  0.00    +0.110 A 
ATOM     25  C   LIG    1        2.039  15.726  -1.760  0.00  0.00    +0.060 A 
ATOM     26  C   LIG    1        3.075  16.445  -1.197  0.00  0.00    +0.030 A 
ATOM     27  C   LIG    1        3.687  15.990  -0.043  0.00  0.00    +0.030 A 
ATOM     28  C   LIG    1        3.260  14.818   0.555  0.00  0.00    +0.030 A 
ATOM     29  C   LIG    1        2.220  14.098   0.001  0.00  0.00    +0.040 A 
ENDBRANCH  20  24
ENDBRANCH  17  18
ENDBRANCH  16  17
ENDBRANCH   3  16
TORSDOF 7
