REMARK  Name = ZINCb80000006kOJ.1
REMARK                            x       y       z     vdW  Elec       q    Type
REMARK                         _______ _______ _______ _____ _____    ______ ____
ROOT
ATOM      1  C   LIG    1        1.228   3.579   0.010  0.00  0.00    +0.130 C 
ATOM      2  C   LIG    1        1.147   4.160  -1.435  0.00  0.00    +0.080 C 
ATOM      3  C   LIG    1        2.546   4.863  -1.500  0.00  0.00    -0.020 C 
ATOM      4  C   LIG    1        3.580   3.905  -0.833  0.00  0.00    +0.040 C 
ATOM      5  C   LIG    1        2.647   5.555  -0.117  0.00  0.00    +0.040 C 
ATOM      6  C   LIG    1        2.654   4.096   0.406  0.00  0.00    +0.000 C 
ENDROOT
BRANCH   1   7
ATOM      7  N   LIG    1        0.189   4.148   0.877  0.00  0.00    -0.810 NA
ATOM      8  H   LIG    1        0.342   3.893   1.841  0.00  0.00    +0.350 HD
ATOM      9  H   LIG    1       -0.731   3.868   0.571  0.00  0.00    +0.360 HD
ENDBRANCH   1   7
BRANCH   1  10
ATOM     10  C   LIG    1        1.170   2.073   0.002  0.00  0.00    +0.430 C 
ATOM     11  O   LIG    1        2.192   1.429  -0.011  0.00  0.00    -0.500 OA
BRANCH  10  13
ATOM     12  C   LIG    1        0.002  -0.004   0.002  0.00  0.00    +0.250 C 
ATOM     13  O   LIG    1       -0.018   1.448   0.010  0.00  0.00    -0.360 OA
ENDBRANCH  10  13
ENDBRANCH   1  10
TORSDOF 3
