REMARK  Name = ZINCrH000004jpfp.0
REMARK                            x       y       z     vdW  Elec       q    Type
REMARK                         _______ _______ _______ _____ _____    ______ ____
ROOT
ATOM      1  C   LIG    1       -0.073  -6.083  -1.654  0.00  0.00    +0.590 C 
ATOM      2  N   LIG    1       -0.067  -4.759  -1.401  0.00  0.00    -0.730 N 
ATOM      3  H   LIG    1       -0.147  -4.125  -2.131  0.00  0.00    +0.400 HD
ATOM      4  O   LIG    1        0.027  -6.878  -0.738  0.00  0.00    -0.540 OA
ENDROOT
BRANCH   1   7
ATOM      5  N   LIG    1       -0.414  -6.603  -5.248  0.00  0.00    -0.470 N 
ATOM      6  C   LIG    1       -0.320  -5.803  -4.159  0.00  0.00    +0.280 A 
ATOM      7  C   LIG    1       -0.200  -6.566  -3.035  0.00  0.00    -0.230 A 
ATOM      8  C   LIG    1       -0.218  -7.971  -3.481  0.00  0.00    -0.060 A 
ATOM      9  C   LIG    1       -0.144  -9.196  -2.822  0.00  0.00    +0.070 A 
ATOM     10  C   LIG    1       -0.198 -10.366  -3.549  0.00  0.00    -0.010 A 
ATOM     11  C   LIG    1       -0.332 -10.326  -4.929  0.00  0.00    +0.030 A 
ATOM     12  C   LIG    1       -0.413  -9.122  -5.593  0.00  0.00    -0.010 A 
ATOM     13  C   LIG    1       -0.360  -7.930  -4.877  0.00  0.00    +0.090 A 
BRANCH   5  15
ATOM     14  C   LIG    1       -2.036  -6.097  -7.008  0.00  0.00    +0.030 C 
ATOM     15  C   LIG    1       -0.555  -6.125  -6.626  0.00  0.00    +0.280 C 
ENDBRANCH   5  15
ENDBRANCH   1   7
BRANCH   2  16
ATOM     16  C   LIG    1        0.060  -4.277  -0.023  0.00  0.00    +0.330 C 
BRANCH  16  17
ATOM     17  C   LIG    1        0.040  -2.771  -0.014  0.00  0.00    -0.140 A 
ATOM     18  C   LIG    1       -1.162  -2.098   0.106  0.00  0.00    +0.060 A 
ATOM     19  C   LIG    1       -1.185  -0.717   0.114  0.00  0.00    -0.030 A 
ATOM     20  C   LIG    1        0.002  -0.004   0.002  0.00  0.00    +0.170 A 
ATOM     21  C   LIG    1        1.207  -0.683  -0.124  0.00  0.00    +0.000 A 
ATOM     22  C   LIG    1        1.223  -2.064  -0.126  0.00  0.00    +0.060 A 
BRANCH  20  23
ATOM     23  N   LIG    1       -0.017   1.395   0.010  0.00  0.00    -0.560 N 
ATOM     24  C   LIG    1       -1.240   2.207   0.009  0.00  0.00    +0.260 C 
ATOM     25  C   LIG    1       -0.794   3.623  -0.417  0.00  0.00    +0.060 C 
ATOM     26  C   LIG    1        0.691   3.630   0.015  0.00  0.00    +0.070 C 
ATOM     27  C   LIG    1        1.082   2.168   0.025  0.00  0.00    +0.520 C 
ATOM     28  O   LIG    1        2.223   1.755   0.041  0.00  0.00    -0.510 OA
ENDBRANCH  20  23
ENDBRANCH  16  17
ENDBRANCH   2  16
TORSDOF 5
