REMARK  Name = ZINCnE000001Tyhq.0
REMARK                            x       y       z     vdW  Elec       q    Type
REMARK                         _______ _______ _______ _____ _____    ______ ____
ROOT
ATOM      1  C   LIG    1        2.683   3.083   2.475  0.00  0.00    -0.020 C 
ATOM      2  C   LIG    1        2.348   1.595   2.604  0.00  0.00    +0.020 C 
ATOM      3  C   LIG    1        2.109   1.007   1.210  0.00  0.00    +0.250 C 
ATOM      4  N   LIG    1        1.077   1.802   0.531  0.00  0.00    -0.610 N 
ATOM      5  C   LIG    1        1.260   3.256   0.427  0.00  0.00    +0.270 C 
ATOM      6  C   LIG    1       -0.014   1.209   0.009  0.00  0.00    +0.520 C 
ATOM      7  O   LIG    1       -0.897   1.883  -0.479  0.00  0.00    -0.540 OA
ATOM      8  C   LIG    1        1.505   3.820   1.835  0.00  0.00    +0.020 C 
ENDROOT
BRANCH   6   9
ATOM      9  C   LIG    1       -0.141  -0.293   0.036  0.00  0.00    +0.000 C 
ATOM     10  C   LIG    1        0.637  -0.892  -1.137  0.00  0.00    +0.030 C 
ATOM     11  C   LIG    1        0.508  -2.416  -1.110  0.00  0.00    +0.040 C 
ATOM     12  C   LIG    1       -0.967  -2.805  -1.224  0.00  0.00    +0.040 C 
ATOM     13  C   LIG    1       -1.745  -2.207  -0.051  0.00  0.00    -0.010 C 
ATOM     14  C   LIG    1       -1.616  -0.682  -0.078  0.00  0.00    +0.070 C 
BRANCH  13  15
ATOM     15  C   LIG    1       -3.220  -2.596  -0.165  0.00  0.00    +0.450 C 
ATOM     16  F   LIG    1       -3.931  -2.049   0.908  0.00  0.00    -0.180 F 
ATOM     17  F   LIG    1       -3.337  -3.990  -0.140  0.00  0.00    -0.180 F 
ATOM     18  F   LIG    1       -3.740  -2.106  -1.368  0.00  0.00    -0.180 F 
ENDBRANCH  13  15
ENDBRANCH   6   9
BRANCH   1  19
ATOM     19  C   LIG    1        2.956   3.666   3.863  0.00  0.00    +0.030 C 
BRANCH  19  20
ATOM     20  C   LIG    1        3.412   5.120   3.725  0.00  0.00    -0.070 C 
BRANCH  20  22
ATOM     21  O   LIG    1        3.521   5.004   6.085  0.00  0.00    -0.700 OA
ATOM     22  C   LIG    1        3.681   5.694   5.093  0.00  0.00    +0.490 C 
ATOM     23  O   LIG    1        4.057   6.848   5.206  0.00  0.00    -0.710 OA
ENDBRANCH  20  22
ENDBRANCH  19  20
ENDBRANCH   1  19
TORSDOF 5
