REMARK  Name = ZINCtV000002CSnk.0
REMARK                            x       y       z     vdW  Elec       q    Type
REMARK                         _______ _______ _______ _____ _____    ______ ____
ROOT
ATOM      1  O   LIG    1        3.618   1.543   0.139  0.00  0.00    -0.330 OA
ENDROOT
BRANCH   1   3
ATOM      2  C   LIG    1        2.540  -0.206  -1.168  0.00  0.00    +0.070 C 
ATOM      3  C   LIG    1        2.446   0.689   0.070  0.00  0.00    +0.190 C 
BRANCH   3   4
ATOM      4  C   LIG    1        1.207   1.542  -0.020  0.00  0.00    +0.520 C 
ATOM      5  N   LIG    1       -0.011   0.966   0.007  0.00  0.00    -0.670 N 
ATOM      6  H   LIG    1       -0.090  -0.001   0.019  0.00  0.00    +0.420 HD
ATOM      7  O   LIG    1        1.306   2.747  -0.116  0.00  0.00    -0.490 OA
BRANCH   5   8
ATOM      8  C   LIG    1       -1.162   1.763   0.013  0.00  0.00    +0.160 A 
ATOM      9  C   LIG    1       -1.182   2.961  -0.688  0.00  0.00    +0.060 A 
ATOM     10  C   LIG    1       -2.321   3.742  -0.686  0.00  0.00    +0.070 A 
ATOM     11  C   LIG    1       -3.438   3.338   0.024  0.00  0.00    -0.040 A 
ATOM     12  C   LIG    1       -3.420   2.147   0.729  0.00  0.00    +0.070 A 
ATOM     13 CL   LIG    1       -4.866   4.326   0.029  0.00  0.00    -0.050 Cl
ATOM     14  C   LIG    1       -2.285   1.359   0.725  0.00  0.00    -0.050 A 
ATOM     15 CL   LIG    1       -2.263  -0.135   1.610  0.00  0.00    -0.050 Cl
ENDBRANCH   5   8
ENDBRANCH   3   4
ENDBRANCH   1   3
BRANCH   1  16
ATOM     16  C   LIG    1        4.678   1.069   0.812  0.00  0.00    +0.470 C 
ATOM     17  O   LIG    1        4.629  -0.023   1.327  0.00  0.00    -0.500 OA
BRANCH  16  18
ATOM     18  C   LIG    1        5.931   1.900   0.927  0.00  0.00    +0.110 C 
BRANCH  18  19
ATOM     19  C   LIG    1        6.978   1.135   1.738  0.00  0.00    +0.080 C 
BRANCH  19  20
ATOM     20  C   LIG    1        8.249   1.978   1.854  0.00  0.00    +0.090 C 
BRANCH  20  21
ATOM     21  S   LIG    1        9.489   1.072   2.813  0.00  0.00    +0.010 S 
BRANCH  21  22
ATOM     22  C   LIG    1       10.807   2.241   2.790  0.00  0.00    +0.090 A 
ATOM     23  N   LIG    1       10.764   3.388   2.203  0.00  0.00    -0.470 NA
ATOM     24  C   LIG    1       11.855   4.176   2.278  0.00  0.00    +0.090 A 
ATOM     25  C   LIG    1       12.056   5.461   1.732  0.00  0.00    +0.070 A 
ATOM     26  C   LIG    1       13.251   6.113   1.909  0.00  0.00    +0.040 A 
ATOM     27  C   LIG    1       14.278   5.521   2.627  0.00  0.00    +0.040 A 
ATOM     28  C   LIG    1       14.105   4.266   3.170  0.00  0.00    +0.060 A 
ATOM     29  C   LIG    1       12.900   3.590   3.000  0.00  0.00    -0.170 A 
ATOM     30  S   LIG    1       12.371   2.004   3.557  0.00  0.00    +0.110 S 
ENDBRANCH  21  22
ENDBRANCH  20  21
ENDBRANCH  19  20
ENDBRANCH  18  19
ENDBRANCH  16  18
ENDBRANCH   1  16
TORSDOF 9
