REMARK  Name = ZINCfA000000yxnT.1
REMARK                            x       y       z     vdW  Elec       q    Type
REMARK                         _______ _______ _______ _____ _____    ______ ____
ROOT
ATOM      1  C   LIG    1       -2.870   6.142   4.619  0.00  0.00    +0.190 C 
ATOM      2  C   LIG    1       -2.624   5.570   3.247  0.00  0.00    +0.030 C 
ATOM      3  C   LIG    1       -1.527   4.894   2.856  0.00  0.00    +0.050 C 
ATOM      4  N   LIG    1       -1.715   4.558   1.543  0.00  0.00    -0.400 N 
ATOM      5  C   LIG    1       -2.919   5.046   1.174  0.00  0.00    +0.540 C 
ATOM      6  C   LIG    1       -0.323   4.569   3.703  0.00  0.00    +0.200 C 
ATOM      7  N   LIG    1       -3.459   5.645   2.200  0.00  0.00    -0.470 N 
ATOM      8  H   LIG    1       -4.326   6.080   2.204  0.00  0.00    +0.460 HD
ENDROOT
BRANCH   4   9
ATOM      9  C   LIG    1       -0.782   3.814   0.693  0.00  0.00    +0.330 C 
BRANCH   9  10
ATOM     10  C   LIG    1       -0.993   2.312   0.897  0.00  0.00    +0.070 C 
BRANCH  10  11
ATOM     11  C   LIG    1       -0.019   1.534   0.011  0.00  0.00    -0.150 C 
ATOM     12  C   LIG    1        1.453   1.995  -0.001  0.00  0.00    +0.060 C 
ATOM     13  C   LIG    1        2.232   0.792   0.586  0.00  0.00    +0.020 C 
ATOM     14  C   LIG    1        1.486  -0.425  -0.014  0.00  0.00    +0.050 C 
ATOM     15  C   LIG    1       -0.545   0.765  -1.202  0.00  0.00    +0.060 C 
ATOM     16  C   LIG    1        0.002  -0.004   0.002  0.00  0.00    -0.040 C 
ENDBRANCH  10  11
ENDBRANCH   9  10
ENDBRANCH   4   9
TORSDOF 3
