REMARK  Name = ZINCtV000002sTzV.0
REMARK                            x       y       z     vdW  Elec       q    Type
REMARK                         _______ _______ _______ _____ _____    ______ ____
ROOT
ATOM      1  S   LIG    1       -3.454   7.679   0.426  0.00  0.00    +0.100 S 
ENDROOT
BRANCH   1   2
ATOM      2  C   LIG    1       -5.107   8.272   0.566  0.00  0.00    +0.190 A 
ATOM      3  C   LIG    1       -5.365   9.659   0.701  0.00  0.00    -0.160 A 
ATOM      4  C   LIG    1       -4.445  10.789   0.752  0.00  0.00    -0.030 A 
ATOM      5  C   LIG    1       -5.036  11.975   0.888  0.00  0.00    -0.010 A 
ATOM      6  S   LIG    1       -6.781  11.812   0.953  0.00  0.00    +0.190 S 
ATOM      7  C   LIG    1       -6.696  10.063   0.802  0.00  0.00    +0.100 A 
ATOM      8  N   LIG    1       -7.662   9.134   0.777  0.00  0.00    -0.490 NA
ATOM      9  C   LIG    1       -7.373   7.860   0.655  0.00  0.00    +0.540 A 
ATOM     10  N   LIG    1       -6.129   7.428   0.551  0.00  0.00    -0.530 NA
BRANCH   4  11
ATOM     11  C   LIG    1       -2.974  10.631   0.660  0.00  0.00    -0.040 A 
ATOM     12  C   LIG    1       -2.316   9.712   1.477  0.00  0.00    +0.040 A 
ATOM     13  C   LIG    1       -0.948   9.565   1.383  0.00  0.00    +0.030 A 
ATOM     14  C   LIG    1       -0.226  10.336   0.489  0.00  0.00    +0.010 A 
ATOM     15  C   LIG    1       -0.873  11.254  -0.320  0.00  0.00    +0.020 A 
ATOM     16  C   LIG    1       -2.242  11.406  -0.239  0.00  0.00    +0.020 A 
ENDBRANCH   4  11
ENDBRANCH   1   2
BRANCH   1  17
ATOM     17  C   LIG    1       -3.768   5.901   0.295  0.00  0.00    +0.060 C 
BRANCH  17  20
ATOM     18  N   LIG    1       -2.447   3.825   0.050  0.00  0.00    -0.660 N 
ATOM     19  H   LIG    1       -3.282   3.337  -0.026  0.00  0.00    +0.410 HD
ATOM     20  C   LIG    1       -2.459   5.168   0.162  0.00  0.00    +0.530 C 
ATOM     21  O   LIG    1       -1.415   5.786   0.157  0.00  0.00    -0.500 OA
BRANCH  18  27
ATOM     22  C   LIG    1       -1.139   1.891  -0.571  0.00  0.00    -0.110 A 
ATOM     23  C   LIG    1        0.062   1.209  -0.571  0.00  0.00    +0.030 A 
ATOM     24  C   LIG    1        1.176   1.768   0.029  0.00  0.00    -0.010 A 
ATOM     25  C   LIG    1        1.090   3.007   0.636  0.00  0.00    +0.030 A 
ATOM     26  C   LIG    1       -0.110   3.692   0.644  0.00  0.00    +0.020 A 
ATOM     27  C   LIG    1       -1.230   3.134   0.042  0.00  0.00    +0.150 A 
BRANCH  22  29
ATOM     28  C   LIG    1       -2.019   0.934  -2.682  0.00  0.00    +0.040 C 
ATOM     29  C   LIG    1       -2.351   1.284  -1.230  0.00  0.00    +0.020 C 
ATOM     30  C   LIG    1       -2.758   0.015  -0.479  0.00  0.00    +0.030 C 
ENDBRANCH  22  29
ENDBRANCH  18  27
ENDBRANCH  17  20
ENDBRANCH   1  17
TORSDOF 6
