REMARK  Name = ZINCrD00000F5LFs.0
REMARK                            x       y       z     vdW  Elec       q    Type
REMARK                         _______ _______ _______ _____ _____    ______ ____
ROOT
ATOM      1  C   LIG    1       -1.196   3.216  -2.827  0.00  0.00    +0.290 C 
ATOM      2  C   LIG    1       -2.151   4.400  -2.974  0.00  0.00    +0.020 C 
ATOM      3  C   LIG    1       -2.972   4.278  -4.248  0.00  0.00    +0.020 C 
ATOM      4  C   LIG    1       -2.151   4.426  -5.512  0.00  0.00    +0.220 C 
ATOM      5  O   LIG    1       -1.216   3.349  -5.641  0.00  0.00    -0.320 OA
ATOM      6  C   LIG    1       -0.022   3.528  -5.013  0.00  0.00    +0.110 A 
ATOM      7  C   LIG    1        1.124   3.757  -5.762  0.00  0.00    +0.010 A 
ATOM      8  C   LIG    1        2.336   3.966  -5.125  0.00  0.00    -0.080 A 
ATOM      9  C   LIG    1        2.404   3.949  -3.744  0.00  0.00    -0.100 A 
ATOM     10  C   LIG    1        3.827   4.207  -3.299  0.00  0.00    +0.080 C 
ATOM     11  C   LIG    1        4.534   4.810  -4.531  0.00  0.00    +0.030 C 
ATOM     12  C   LIG    1        1.259   3.713  -2.998  0.00  0.00    +0.040 A 
ATOM     13  C   LIG    1        3.710   4.231  -5.701  0.00  0.00    +0.080 C 
ATOM     14  C   LIG    1        0.057   3.497  -3.636  0.00  0.00    -0.130 A 
ENDROOT
BRANCH   1  16
ATOM     15  C   LIG    1       -0.937   1.827  -0.841  0.00  0.00    +0.530 C 
ATOM     16  N   LIG    1       -0.841   3.043  -1.416  0.00  0.00    -0.580 N 
ATOM     17  O   LIG    1       -0.773   1.708   0.355  0.00  0.00    -0.520 OA
BRANCH  16  18
ATOM     18  C   LIG    1       -0.381   4.191  -0.630  0.00  0.00    +0.190 C 
ATOM     19  C   LIG    1       -1.089   4.466   0.698  0.00  0.00    +0.020 C 
ATOM     20  C   LIG    1        0.333   3.901   0.693  0.00  0.00    +0.030 C 
ENDBRANCH  16  18
BRANCH  15  21
ATOM     21  C   LIG    1       -1.247   0.618  -1.684  0.00  0.00    +0.080 C 
BRANCH  21  22
ATOM     22  C   LIG    1       -1.174  -0.641  -0.817  0.00  0.00    -0.300 C 
BRANCH  22  23
ATOM     23  S   LIG    1       -1.548  -2.097  -1.831  0.00  0.00    +2.480 S 
ATOM     24  O   LIG    1       -0.510  -2.327  -2.775  0.00  0.00    -0.930 OA
ATOM     25  O   LIG    1       -2.912  -2.091  -2.229  0.00  0.00    -0.940 OA
BRANCH  23  27
ATOM     26  C   LIG    1       -2.491  -4.163  -0.427  0.00  0.00    +0.230 C 
ATOM     27  C   LIG    1       -1.427  -3.454  -0.714  0.00  0.00    -0.570 C 
ENDBRANCH  23  27
ENDBRANCH  22  23
ENDBRANCH  21  22
ENDBRANCH  15  21
ENDBRANCH   1  16
TORSDOF 6
