REMARK  Name = ZINCrH000004jo7E.1
REMARK                            x       y       z     vdW  Elec       q    Type
REMARK                         _______ _______ _______ _____ _____    ______ ____
ROOT
ATOM      1  N   LIG    1        2.811   6.076   7.893  0.00  0.00    -0.510 N 
ATOM      2  C   LIG    1        2.779   6.259   6.555  0.00  0.00    +0.550 A 
ATOM      3  C   LIG    1        1.860   5.423   5.757  0.00  0.00    -0.160 A 
ATOM      4  C   LIG    1        1.772   5.555   4.373  0.00  0.00    +0.140 A 
ATOM      5  C   LIG    1        0.904   4.752   3.665  0.00  0.00    +0.030 A 
ATOM      6  C   LIG    1        0.107   3.816   4.331  0.00  0.00    -0.060 A 
ATOM      7  C   LIG    1        0.191   3.679   5.715  0.00  0.00    +0.070 A 
ATOM      8  C   LIG    1        1.065   4.480   6.431  0.00  0.00    +0.170 A 
ATOM      9  N   LIG    1        1.178   4.376   7.811  0.00  0.00    -0.580 N 
ATOM     10  H   LIG    1        0.636   3.730   8.289  0.00  0.00    +0.450 HD
ATOM     11  O   LIG    1        3.490   7.089   6.022  0.00  0.00    -0.470 OA
ATOM     12  C   LIG    1        2.031   5.161   8.490  0.00  0.00    +0.530 A 
ATOM     13  S   LIG    1        2.127   4.987  10.191  0.00  0.00    -0.540 S 
ENDROOT
BRANCH   6  14
ATOM     14  C   LIG    1       -0.825   2.962   3.561  0.00  0.00    +0.560 C 
ATOM     15  N   LIG    1       -0.909   3.092   2.222  0.00  0.00    -0.710 N 
ATOM     16  H   LIG    1       -0.357   3.745   1.763  0.00  0.00    +0.400 HD
ATOM     17  O   LIG    1       -1.516   2.144   4.136  0.00  0.00    -0.520 OA
BRANCH  15  18
ATOM     18  C   LIG    1       -1.831   2.247   1.460  0.00  0.00    +0.250 C 
ATOM     19  C   LIG    1       -3.223   2.882   1.461  0.00  0.00    +0.030 C 
BRANCH  18  20
ATOM     20  C   LIG    1       -1.332   2.115   0.020  0.00  0.00    +0.090 C 
BRANCH  20  21
ATOM     21  C   LIG    1       -0.017   1.379   0.010  0.00  0.00    -0.080 A 
ATOM     22  C   LIG    1        1.171   2.086   0.002  0.00  0.00    +0.020 A 
ATOM     23  C   LIG    1        2.377   1.411  -0.013  0.00  0.00    +0.020 A 
ATOM     24  C   LIG    1        2.397   0.029  -0.021  0.00  0.00    +0.020 A 
ATOM     25  C   LIG    1        1.210  -0.679  -0.013  0.00  0.00    +0.020 A 
ATOM     26  C   LIG    1        0.002  -0.004   0.002  0.00  0.00    -0.030 A 
ATOM     27 CL   LIG    1       -1.489  -0.893   0.012  0.00  0.00    -0.060 Cl
ENDBRANCH  20  21
ENDBRANCH  18  20
ENDBRANCH  15  18
ENDBRANCH   6  14
BRANCH   1  29
ATOM     28  C   LIG    1        2.992   8.165   9.152  0.00  0.00    +0.060 C 
ATOM     29  C   LIG    1        3.715   6.891   8.708  0.00  0.00    +0.320 C 
ENDBRANCH   1  29
TORSDOF 5
