REMARK  Name = ZINCrH00000tj11t.0
REMARK                            x       y       z     vdW  Elec       q    Type
REMARK                         _______ _______ _______ _____ _____    ______ ____
ROOT
ATOM      1  O   LIG    1        4.284   2.712  -0.090  0.00  0.00    -0.490 OA
ATOM      2  C   LIG    1        5.465   2.981  -0.034  0.00  0.00    +0.540 C 
ATOM      3  N   LIG    1        5.860   4.265   0.071  0.00  0.00    -0.540 N 
ATOM      4  C   LIG    1        7.288   4.611   0.060  0.00  0.00    +0.290 C 
ATOM      5  C   LIG    1        7.530   5.635   1.177  0.00  0.00    +0.040 C 
ATOM      6  C   LIG    1        6.738   6.904   0.864  0.00  0.00    +0.100 C 
ATOM      7  C   LIG    1        5.299   6.570   0.572  0.00  0.00    -0.110 A 
ATOM      8  C   LIG    1        4.343   7.565   0.687  0.00  0.00    +0.130 A 
ATOM      9  C   LIG    1        3.015   7.292   0.406  0.00  0.00    -0.060 A 
ATOM     10  C   LIG    1        2.633   6.019   0.023  0.00  0.00    +0.130 A 
ATOM     11  C   LIG    1        3.580   5.020  -0.087  0.00  0.00    +0.040 A 
ATOM     12  C   LIG    1        4.915   5.294   0.186  0.00  0.00    +0.210 A 
ENDROOT
BRANCH   9  13
ATOM     13  N   LIG    1        2.000   8.363   0.526  0.00  0.00    +0.030 N 
ATOM     14  O   LIG    1        2.335   9.484   0.863  0.00  0.00    -0.160 OA
ATOM     15  O   LIG    1        0.830   8.122   0.287  0.00  0.00    -0.160 OA
ENDBRANCH   9  13
BRANCH   2  16
ATOM     16  C   LIG    1        6.492   1.879  -0.082  0.00  0.00    +0.110 C 
BRANCH  16  17
ATOM     17  S   LIG    1        5.655   0.274  -0.075  0.00  0.00    +0.160 S 
BRANCH  17  18
ATOM     18  C   LIG    1        7.051  -0.800  -0.134  0.00  0.00    +0.120 A 
ATOM     19  N   LIG    1        8.310  -0.434  -0.170  0.00  0.00    -0.280 NA
ATOM     20  N   LIG    1        9.060  -1.478  -0.208  0.00  0.00    -0.260 NA
ATOM     21  C   LIG    1        8.308  -2.555  -0.197  0.00  0.00    +0.250 A 
ATOM     22  O   LIG    1        7.020  -2.147  -0.150  0.00  0.00    -0.200 OA
BRANCH  21  23
ATOM     23  C   LIG    1        8.780  -3.947  -0.230  0.00  0.00    -0.160 A 
ATOM     24  C   LIG    1       10.084  -4.336  -0.278  0.00  0.00    +0.100 A 
ATOM     25  C   LIG    1       10.272  -5.701  -0.301  0.00  0.00    +0.020 A 
ATOM     26  C   LIG    1        9.152  -6.429  -0.273  0.00  0.00    -0.010 A 
ATOM     27  S   LIG    1        7.749  -5.372  -0.206  0.00  0.00    +0.180 S 
ENDBRANCH  21  23
ENDBRANCH  17  18
ENDBRANCH  16  17
ENDBRANCH   2  16
TORSDOF 5
