REMARK  Name = ZINCnE000008JgXg.0
REMARK                            x       y       z     vdW  Elec       q    Type
REMARK                         _______ _______ _______ _____ _____    ______ ____
ROOT
ATOM      1  N   LIG    1        3.663   1.642  -0.024  0.00  0.00    -0.500 N 
ATOM      2  C   LIG    1        4.598   0.626  -0.038  0.00  0.00    +0.040 A 
ATOM      3  C   LIG    1        5.985   0.595  -0.051  0.00  0.00    +0.010 A 
ATOM      4  C   LIG    1        6.642  -0.618  -0.063  0.00  0.00    +0.020 A 
ATOM      5  C   LIG    1        5.926  -1.806  -0.062  0.00  0.00    +0.000 A 
ATOM      6  C   LIG    1        4.560  -1.797  -0.050  0.00  0.00    +0.060 A 
ATOM      7  C   LIG    1        3.870  -0.579  -0.037  0.00  0.00    +0.060 A 
ATOM      8  N   LIG    1        2.562  -0.258  -0.018  0.00  0.00    -0.490 NA
ATOM      9  C   LIG    1        2.425   1.049  -0.015  0.00  0.00    +0.350 A 
ENDROOT
BRANCH   9  10
ATOM     10  C   LIG    1        1.145   1.765   0.001  0.00  0.00    -0.020 C 
ATOM     11  C   LIG    1       -0.013   1.076   0.008  0.00  0.00    +0.140 C 
BRANCH  11  12
ATOM     12  C   LIG    1       -1.297   1.794   0.018  0.00  0.00    -0.100 A 
ATOM     13  C   LIG    1       -1.316   3.194   0.032  0.00  0.00    +0.010 A 
ATOM     14  C   LIG    1       -2.508   3.860   0.036  0.00  0.00    +0.040 A 
ATOM     15  C   LIG    1       -3.710   3.144   0.038  0.00  0.00    -0.110 A 
ATOM     16  C   LIG    1       -3.691   1.745   0.029  0.00  0.00    +0.040 A 
ATOM     17  C   LIG    1       -2.499   1.078   0.020  0.00  0.00    +0.020 A 
BRANCH  15  18
ATOM     18  C   LIG    1       -4.996   3.863   0.049  0.00  0.00    +0.520 C 
ATOM     19  O   LIG    1       -5.012   5.086   0.056  0.00  0.00    -0.680 OA
ATOM     20  O   LIG    1       -6.047   3.237   0.050  0.00  0.00    -0.680 OA
ENDBRANCH  15  18
ENDBRANCH  11  12
ENDBRANCH   9  10
BRANCH   1  21
ATOM     21  C   LIG    1        3.939   3.080  -0.020  0.00  0.00    +0.500 C 
BRANCH  21  23
ATOM     22  N   LIG    1        4.127   3.922   2.441  0.00  0.00    -0.390 NA
ATOM     23  C   LIG    1        4.045   3.556   1.369  0.00  0.00    +0.180 C 
ENDBRANCH  21  23
ENDBRANCH   1  21
TORSDOF 5
