REMARK  Name = ZINCnE000001rIa0.0
REMARK                            x       y       z     vdW  Elec       q    Type
REMARK                         _______ _______ _______ _____ _____    ______ ____
ROOT
ATOM      1  N   LIG    1       -1.961   2.549   3.430  0.00  0.00    -0.630 N 
ATOM      2  H   LIG    1       -1.957   1.591   3.275  0.00  0.00    +0.420 HD
ATOM      3  C   LIG    1       -2.491   3.046   4.565  0.00  0.00    +0.590 C 
ATOM      4  O   LIG    1       -2.588   4.249   4.715  0.00  0.00    -0.520 OA
ENDROOT
BRANCH   1  10
ATOM      5  C   LIG    1       -1.351   3.017   1.140  0.00  0.00    +0.080 A 
ATOM      6  C   LIG    1       -0.810   3.868   0.197  0.00  0.00    -0.010 A 
ATOM      7  C   LIG    1       -0.340   5.128   0.584  0.00  0.00    -0.110 A 
ATOM      8  C   LIG    1       -0.411   5.516   1.926  0.00  0.00    +0.030 A 
ATOM      9  C   LIG    1       -0.948   4.661   2.862  0.00  0.00    +0.040 A 
ATOM     10  C   LIG    1       -1.419   3.411   2.478  0.00  0.00    +0.100 A 
BRANCH   7  11
ATOM     11  C   LIG    1        0.234   6.041  -0.418  0.00  0.00    +0.520 C 
ATOM     12  O   LIG    1        0.295   5.701  -1.592  0.00  0.00    -0.690 OA
ATOM     13  O   LIG    1        0.649   7.140  -0.078  0.00  0.00    -0.680 OA
ENDBRANCH   7  11
BRANCH   5  15
ATOM     14  C   LIG    1       -1.711   1.457  -0.619  0.00  0.00    +0.240 C 
ATOM     15  O   LIG    1       -1.812   1.794   0.766  0.00  0.00    -0.330 OA
ENDBRANCH   5  15
ENDBRANCH   1  10
BRANCH   3  16
ATOM     16  C   LIG    1       -2.952   2.132   5.624  0.00  0.00    +0.020 A 
ATOM     17  C   LIG    1       -3.493   2.561   6.786  0.00  0.00    -0.040 A 
ATOM     18  S   LIG    1       -3.897   1.202   7.741  0.00  0.00    +0.210 S 
ATOM     19  C   LIG    1       -3.321   0.140   6.534  0.00  0.00    +0.040 A 
ATOM     20  N   LIG    1       -2.881   0.802   5.523  0.00  0.00    -0.440 NA
BRANCH  19  21
ATOM     21  C   LIG    1       -3.332  -1.363   6.637  0.00  0.00    +0.010 C 
ATOM     22  C   LIG    1       -4.173  -1.946   5.499  0.00  0.00    +0.060 C 
ATOM     23  C   LIG    1       -3.935  -1.778   7.980  0.00  0.00    +0.040 C 
ATOM     24  C   LIG    1       -1.900  -1.893   6.536  0.00  0.00    +0.060 C 
ENDBRANCH  19  21
ENDBRANCH   3  16
TORSDOF 5
