REMARK  Name = ZINCpe00000znQYZ.0
REMARK                            x       y       z     vdW  Elec       q    Type
REMARK                         _______ _______ _______ _____ _____    ______ ____
ROOT
ATOM      1  C   LIG    1       -1.295   2.059   0.019  0.00  0.00    +0.270 C 
ENDROOT
BRANCH   1   4
ATOM      2  O   LIG    1       -1.040  -0.625   0.009  0.00  0.00    -0.510 OA
ATOM      3  C   LIG    1        0.002  -0.004   0.002  0.00  0.00    +0.520 C 
ATOM      4  N   LIG    1       -0.016   1.344   0.009  0.00  0.00    -0.730 N 
ATOM      5  H   LIG    1        0.817   1.840   0.004  0.00  0.00    +0.400 HD
BRANCH   3   6
ATOM      6  C   LIG    1        1.317  -0.740  -0.015  0.00  0.00    +0.150 C 
BRANCH   6   7
ATOM      7  C   LIG    1        1.062  -2.225  -0.020  0.00  0.00    +0.080 A 
ATOM      8  C   LIG    1        1.562  -3.041  -0.953  0.00  0.00    -0.070 A 
ATOM      9  S   LIG    1        1.025  -4.678  -0.585  0.00  0.00    +0.120 S 
ATOM     10  C   LIG    1        0.175  -4.102   0.782  0.00  0.00    +0.230 A 
ATOM     11  N   LIG    1        0.323  -2.825   0.891  0.00  0.00    -0.450 NA
ENDBRANCH   6   7
ENDBRANCH   3   6
ENDBRANCH   1   4
BRANCH   1  12
ATOM     12  C   LIG    1       -1.808   2.206  -1.414  0.00  0.00    -0.060 C 
ATOM     13  C   LIG    1       -3.245   1.764  -1.699  0.00  0.00    +0.030 C 
ATOM     14  C   LIG    1       -2.070   0.923  -2.206  0.00  0.00    +0.030 C 
ENDBRANCH   1  12
BRANCH   1  15
ATOM     15  C   LIG    1       -1.099   3.445   0.636  0.00  0.00    +0.290 C 
BRANCH  15  16
ATOM     16  N   LIG    1       -0.495   3.309   1.964  0.00  0.00    -0.730 N 
ATOM     17  H   LIG    1       -0.288   2.428   2.314  0.00  0.00    +0.400 HD
ATOM     18  C   LIG    1       -0.229   4.406   2.699  0.00  0.00    +0.570 C 
ATOM     19  O   LIG    1       -0.490   5.510   2.260  0.00  0.00    -0.530 OA
BRANCH  18  20
ATOM     20  C   LIG    1        0.380   4.268   4.039  0.00  0.00    -0.190 A 
ATOM     21  C   LIG    1        0.661   5.400   4.813  0.00  0.00    +0.130 A 
ATOM     22  C   LIG    1        1.230   5.217   6.061  0.00  0.00    +0.000 A 
ATOM     23  CA  LIG    1        1.501   3.933   6.500  0.00  0.00    +0.150 A 
ATOM     24  N   LIG    1        1.225   2.884   5.748  0.00  0.00    -0.480 NA
ATOM     25  C   LIG    1        0.678   3.007   4.557  0.00  0.00    +0.300 A 
BRANCH  23  26
ATOM     26  C   LIG    1        2.120   3.729   7.858  0.00  0.00    +0.280 C 
BRANCH  26  27
ATOM     27  O   LIG    1        2.327   4.998   8.483  0.00  0.00    -0.570 OA
ATOM     28  H   LIG    1        2.724   4.943   9.363  0.00  0.00    +0.390 HD
ENDBRANCH  26  27
ENDBRANCH  23  26
ENDBRANCH  18  20
ENDBRANCH  15  16
ENDBRANCH   1  15
TORSDOF 9
