REMARK  Name = ZINCzw0000000e9f.0
REMARK                            x       y       z     vdW  Elec       q    Type
REMARK                         _______ _______ _______ _____ _____    ______ ____
ROOT
ATOM      1  N   LIG    1       -3.411   1.336   8.756  0.00  0.00    -0.580 N 
ATOM      2  C   LIG    1       -3.316   1.277  10.099  0.00  0.00    +0.560 C 
ATOM      3  O   LIG    1       -3.780   2.170  10.781  0.00  0.00    -0.500 OA
ENDROOT
BRANCH   2   4
ATOM      4  C   LIG    1       -2.646   0.127  10.743  0.00  0.00    -0.120 A 
ATOM      5  C   LIG    1       -1.485  -0.410  10.185  0.00  0.00    +0.070 A 
ATOM      6  C   LIG    1       -0.862  -1.480  10.794  0.00  0.00    +0.040 A 
ATOM      7  C   LIG    1       -1.392  -2.028  11.949  0.00  0.00    +0.070 A 
ATOM      8  C   LIG    1       -2.546  -1.503  12.504  0.00  0.00    -0.160 A 
ATOM      9  C   LIG    1       -3.175  -0.430  11.909  0.00  0.00    +0.110 A 
BRANCH   8  10
ATOM     10  C   LIG    1       -3.116  -2.106  13.762  0.00  0.00    +0.320 C 
BRANCH  10  11
ATOM     11  N   LIG    1       -4.064  -3.171  13.409  0.00  0.00    -0.390 N 
ATOM     12  C   LIG    1       -4.708  -3.677  14.628  0.00  0.00    +0.330 C 
ATOM     13  C   LIG    1       -3.344  -4.267  12.745  0.00  0.00    +0.320 C 
ATOM     14  H   LIG    1       -4.766  -2.804  12.785  0.00  0.00    +0.430 HD
ENDBRANCH  10  11
ENDBRANCH   8  10
ENDBRANCH   2   4
BRANCH   1  15
ATOM     15  C   LIG    1       -4.099   2.461   8.119  0.00  0.00    +0.310 C 
BRANCH  15  16
ATOM     16  C   LIG    1       -5.493   2.019   7.670  0.00  0.00    +0.070 C 
BRANCH  16  17
ATOM     17  C   LIG    1       -6.299   3.242   7.228  0.00  0.00    +0.030 C 
ATOM     18  N   LIG    1       -5.999   4.538   7.841  0.00  0.00    -0.110 NA
ATOM     19  N   LIG    1       -5.580   4.395   6.681  0.00  0.00    -0.110 NA
BRANCH  17  20
ATOM     20  C   LIG    1       -7.726   2.973   6.746  0.00  0.00    +0.110 C 
BRANCH  20  21
ATOM     21  C   LIG    1       -8.386   4.293   6.345  0.00  0.00    +0.160 C 
BRANCH  21  23
ATOM     22  C   LIG    1      -10.854   3.828   5.511  0.00  0.00    +0.030 C 
ATOM     23  C   LIG    1       -9.759   4.035   5.881  0.00  0.00    -0.200 C 
ENDBRANCH  21  23
ENDBRANCH  20  21
ENDBRANCH  17  20
ENDBRANCH  16  17
ENDBRANCH  15  16
ENDBRANCH   1  15
BRANCH   1  24
ATOM     24  C   LIG    1       -2.826   0.274   7.933  0.00  0.00    +0.340 C 
BRANCH  24  25
ATOM     25  C   LIG    1       -3.877  -0.278   7.005  0.00  0.00    -0.030 A 
ATOM     26  N   LIG    1       -3.730  -0.583   5.735  0.00  0.00    -0.250 NA
ATOM     27  N   LIG    1       -4.850  -1.025   5.285  0.00  0.00    -0.230 N 
ATOM     28  H   LIG    1       -5.001  -1.317   4.372  0.00  0.00    +0.480 HD
ATOM     29  N   LIG    1       -5.745  -1.026   6.209  0.00  0.00    -0.270 NA
ATOM     30  C   LIG    1       -5.205  -0.576   7.319  0.00  0.00    +0.210 A 
ENDBRANCH  24  25
BRANCH  24  31
ATOM     31  C   LIG    1       -1.686   0.837   7.124  0.00  0.00    +0.510 C 
ATOM     32  N   LIG    1       -0.751   0.011   6.612  0.00  0.00    -0.690 N 
ATOM     33  H   LIG    1       -0.798  -0.942   6.786  0.00  0.00    +0.400 HD
ATOM     34  O   LIG    1       -1.609   2.032   6.933  0.00  0.00    -0.500 OA
BRANCH  32  35
ATOM     35  C   LIG    1        0.335   0.554   5.792  0.00  0.00    +0.100 C 
ATOM     36  C   LIG    1        0.027   0.861   4.325  0.00  0.00    +0.030 C 
ATOM     37  C   LIG    1        1.310   1.482   6.519  0.00  0.00    +0.080 C 
ATOM     38  C   LIG    1        0.902  -0.341   4.688  0.00  0.00    +0.040 C 
ENDBRANCH  32  35
ENDBRANCH  24  31
ENDBRANCH   1  24
TORSDOF 13
