REMARK  Name = ZINCvU0000000Ix0.0
REMARK                            x       y       z     vdW  Elec       q    Type
REMARK                         _______ _______ _______ _____ _____    ______ ____
ROOT
ATOM      1  C   LIG    1        1.273   3.535  -0.109  0.00  0.00    -0.070 A 
ATOM      2  C   LIG    1        2.477   4.230  -0.034  0.00  0.00    +0.040 A 
ATOM      3  C   LIG    1        3.668   3.537   0.079  0.00  0.00    +0.060 A 
ATOM      4  C   LIG    1        3.673   2.155   0.123  0.00  0.00    +0.030 A 
ATOM      5  C   LIG    1        2.486   1.448   0.056  0.00  0.00    +0.090 A 
ATOM      6  C   LIG    1        1.277   2.129  -0.057  0.00  0.00    -0.080 A 
ENDROOT
BRANCH   1   9
ATOM      7  C   LIG    1        0.625   5.593   1.712  0.00  0.00    +0.300 C 
ATOM      8  N   LIG    1       -0.335   5.209   0.674  0.00  0.00    -0.550 N 
ATOM      9  C   LIG    1       -0.004   4.272  -0.236  0.00  0.00    +0.560 C 
ATOM     10  O   LIG    1       -0.755   4.031  -1.161  0.00  0.00    -0.480 OA
BRANCH   8  11
ATOM     11  C   LIG    1       -1.594   5.815   0.627  0.00  0.00    +0.150 A 
ATOM     12  C   LIG    1       -2.562   5.342  -0.248  0.00  0.00    +0.030 A 
ATOM     13  C   LIG    1       -3.807   5.940  -0.289  0.00  0.00    +0.020 A 
ATOM     14  C   LIG    1       -4.085   7.015   0.534  0.00  0.00    -0.020 A 
ATOM     15  C   LIG    1       -3.122   7.493   1.404  0.00  0.00    +0.020 A 
ATOM     16  C   LIG    1       -1.877   6.896   1.453  0.00  0.00    -0.030 A 
ENDBRANCH   8  11
ENDBRANCH   1   9
BRANCH   6  17
ATOM     17  C   LIG    1        0.005   1.378  -0.130  0.00  0.00    +0.500 C 
ATOM     18  O   LIG    1       -1.053   1.974  -0.126  0.00  0.00    -0.470 OA
BRANCH  17  19
ATOM     19  O   LIG    1        0.020   0.033  -0.207  0.00  0.00    -0.350 OA
BRANCH  19  20
ATOM     20  C   LIG    1       -1.266  -0.637  -0.275  0.00  0.00    +0.310 C 
BRANCH  20  21
ATOM     21  C   LIG    1       -1.052  -2.127  -0.355  0.00  0.00    -0.130 A 
ATOM     22  C   LIG    1       -0.931  -2.743  -1.589  0.00  0.00    +0.150 A 
ATOM     23  C   LIG    1       -0.729  -4.112  -1.664  0.00  0.00    +0.060 A 
ATOM     24  C   LIG    1       -0.658  -4.866  -0.503  0.00  0.00    +0.110 A 
ATOM     25  C   LIG    1       -0.785  -4.249   0.731  0.00  0.00    +0.060 A 
ATOM     26  F   LIG    1       -0.717  -4.983   1.863  0.00  0.00    -0.100 F 
ATOM     27  F   LIG    1       -0.467  -6.201  -0.575  0.00  0.00    -0.090 F 
ATOM     28  F   LIG    1       -0.606  -4.712  -2.868  0.00  0.00    -0.100 F 
ATOM     29  F   LIG    1       -1.006  -2.009  -2.721  0.00  0.00    -0.090 F 
ATOM     30  C   LIG    1       -0.981  -2.879   0.804  0.00  0.00    +0.150 A 
ATOM     31  F   LIG    1       -1.104  -2.278   2.008  0.00  0.00    -0.090 F 
ENDBRANCH  20  21
ENDBRANCH  19  20
ENDBRANCH  17  19
ENDBRANCH   6  17
TORSDOF 6
