REMARK  Name = ZINCc70000006kSf.0
REMARK                            x       y       z     vdW  Elec       q    Type
REMARK                         _______ _______ _______ _____ _____    ______ ____
ROOT
ATOM      1  C   LIG    1       -1.636  -3.155   0.001  0.00  0.00    +0.530 A 
ATOM      2  N   LIG    1       -2.918  -2.836   0.016  0.00  0.00    -0.620 NA
ATOM      3  C   LIG    1       -3.320  -1.570   0.027  0.00  0.00    +0.570 A 
ATOM      4  N   LIG    1       -2.474  -0.573   0.023  0.00  0.00    -0.360 NA
ATOM      5  N   LIG    1       -1.095  -0.823   0.008  0.00  0.00    -0.200 N 
ATOM      6  C   LIG    1        0.002  -0.004   0.002  0.00  0.00    -0.050 A 
ATOM      7  C   LIG    1        1.144  -0.808  -0.019  0.00  0.00    +0.080 A 
ATOM      8  C   LIG    1        0.726  -2.124  -0.016  0.00  0.00    +0.020 A 
ATOM      9  C   LIG    1       -0.666  -2.123  -0.003  0.00  0.00    -0.070 A 
ENDROOT
BRANCH   1  10
ATOM     10  N   LIG    1       -1.246  -4.479  -0.009  0.00  0.00    -0.800 N 
ATOM     11  H   LIG    1       -0.303  -4.707  -0.020  0.00  0.00    +0.420 HD
ATOM     12  H   LIG    1       -1.915  -5.182  -0.006  0.00  0.00    +0.420 HD
ENDBRANCH   1  10
BRANCH   6  13
ATOM     13  C   LIG    1       -0.017   1.404   0.010  0.00  0.00    +0.520 C 
ATOM     14  O   LIG    1        1.027   2.026   0.003  0.00  0.00    -0.460 OA
ENDBRANCH   6  13
TORSDOF 2
