REMARK  Name = ZINCtV00000tHf3W.0
REMARK                            x       y       z     vdW  Elec       q    Type
REMARK                         _______ _______ _______ _____ _____    ______ ____
ROOT
ATOM      1  C   LIG    1        5.480  -0.875  -7.335  0.00  0.00    +0.040 C 
ATOM      2  C   LIG    1        4.569   0.353  -7.281  0.00  0.00    +0.280 C 
ENDROOT
BRANCH   2   3
ATOM      3  C   LIG    1        3.623   0.329  -8.453  0.00  0.00    -0.090 A 
ATOM      4  C   LIG    1        2.497  -0.473  -8.414  0.00  0.00    +0.010 A 
ATOM      5  C   LIG    1        1.624  -0.496  -9.483  0.00  0.00    +0.030 A 
ATOM      6  C   LIG    1        1.885   0.284 -10.608  0.00  0.00    -0.050 A 
ATOM      7  C   LIG    1        3.024   1.087 -10.645  0.00  0.00    +0.030 A 
ATOM      8  C   LIG    1        3.886   1.105  -9.568  0.00  0.00    +0.030 A 
BRANCH   6   9
ATOM      9  C   LIG    1        0.954   0.260 -11.763  0.00  0.00    -0.040 A 
ATOM     10  C   LIG    1        1.216   1.041 -12.888  0.00  0.00    +0.060 A 
ATOM     11  C   LIG    1        0.351   1.021 -13.965  0.00  0.00    +0.030 A 
ATOM     12  C   LIG    1       -0.778   0.228 -13.936  0.00  0.00    +0.070 A 
ATOM     13  C   LIG    1       -1.052  -0.560 -12.815  0.00  0.00    -0.020 A 
ATOM     14  C   LIG    1       -0.179  -0.546 -11.728  0.00  0.00    +0.080 A 
BRANCH  13  15
ATOM     15  C   LIG    1       -2.223  -1.383 -12.785  0.00  0.00    +0.250 C 
ATOM     16  N   LIG    1       -3.152  -2.036 -12.761  0.00  0.00    -0.410 NA
ENDBRANCH  13  15
ENDBRANCH   6   9
ENDBRANCH   2   3
BRANCH   2  17
ATOM     17  N   LIG    1        3.800   0.337  -6.033  0.00  0.00    -0.720 N 
ATOM     18  H   LIG    1        2.906  -0.040  -6.019  0.00  0.00    +0.400 HD
ATOM     19  C   LIG    1        4.336   0.844  -4.905  0.00  0.00    +0.560 C 
ATOM     20  O   LIG    1        5.456   1.316  -4.923  0.00  0.00    -0.510 OA
BRANCH  19  21
ATOM     21  C   LIG    1        3.561   0.828  -3.647  0.00  0.00    -0.140 A 
ATOM     22  C   LIG    1        2.274   0.287  -3.623  0.00  0.00    +0.060 A 
ATOM     23  C   LIG    1        1.558   0.270  -2.444  0.00  0.00    +0.010 A 
ATOM     24  C   LIG    1        2.108   0.797  -1.289  0.00  0.00    -0.010 A 
ATOM     25  C   LIG    1        3.382   1.334  -1.304  0.00  0.00    +0.020 A 
ATOM     26  C   LIG    1        4.113   1.353  -2.476  0.00  0.00    +0.020 A 
ATOM     27 CL   LIG    1        5.712   2.029  -2.494  0.00  0.00    -0.030 Cl
BRANCH  24  28
ATOM     28  C   LIG    1        1.317   0.779  -0.006  0.00  0.00    -0.010 C 
ATOM     29  C   LIG    1       -0.019   1.526   0.010  0.00  0.00    +0.040 C 
ATOM     30  C   LIG    1        0.002  -0.004   0.002  0.00  0.00    +0.030 C 
ENDBRANCH  24  28
ENDBRANCH  19  21
ENDBRANCH   2  17
TORSDOF 6
