REMARK  Name = ZINCpk000004F5BC.0
REMARK                            x       y       z     vdW  Elec       q    Type
REMARK                         _______ _______ _______ _____ _____    ______ ____
ROOT
ATOM      1  N   LIG    1       -3.542  -1.011  -0.505  0.00  0.00    -0.740 N 
ATOM      2  H   LIG    1       -3.410  -1.742  -1.129  0.00  0.00    +0.390 HD
ATOM      3  C   LIG    1       -2.484  -0.306  -0.059  0.00  0.00    +0.720 C 
ATOM      4  N   LIG    1       -1.242  -0.617  -0.479  0.00  0.00    -0.620 N 
ATOM      5  C   LIG    1       -0.874  -1.655  -1.490  0.00  0.00    +0.240 C 
ATOM      6  C   LIG    1        0.502  -1.209  -2.043  0.00  0.00    +0.050 C 
ATOM      7  C   LIG    1        1.183  -0.642  -0.769  0.00  0.00    +0.010 C 
ATOM      8  C   LIG    1        1.253  -1.677   0.366  0.00  0.00    +0.020 C 
ATOM      9  C   LIG    1        0.575  -0.637   1.270  0.00  0.00    +0.020 C 
ATOM     10  C   LIG    1        0.002   0.001  -0.003  0.00  0.00    +0.240 C 
ATOM     11  O   LIG    1       -2.649   0.610   0.723  0.00  0.00    -0.570 OA
ENDROOT
BRANCH   1  17
ATOM     12  C   LIG    1       -8.831  -2.625   2.361  0.00  0.00    +0.090 C 
ATOM     13  C   LIG    1       -8.618  -2.067   0.977  0.00  0.00    +0.510 C 
ATOM     14  N   LIG    1       -7.543  -1.297   0.719  0.00  0.00    -0.620 N 
ATOM     15  C   LIG    1       -7.322  -0.746  -0.625  0.00  0.00    +0.280 C 
ATOM     16  C   LIG    1       -5.914  -1.132  -1.091  0.00  0.00    +0.010 C 
ATOM     17  C   LIG    1       -4.893  -0.673  -0.047  0.00  0.00    +0.260 C 
ATOM     18  C   LIG    1       -5.170  -1.375   1.284  0.00  0.00    +0.000 C 
ATOM     19  C   LIG    1       -6.569  -0.992   1.776  0.00  0.00    +0.280 C 
ATOM     20  O   LIG    1       -9.415  -2.311   0.096  0.00  0.00    -0.550 OA
ENDBRANCH   1  17
BRANCH  10  21
ATOM     21  C   LIG    1       -0.022   1.508  -0.003  0.00  0.00    -0.210 A 
ATOM     22  C   LIG    1        0.791   2.317   0.715  0.00  0.00    +0.230 A 
ATOM     23  N   LIG    1        0.454   3.593   0.434  0.00  0.00    -0.380 N 
ATOM     24  N   LIG    1       -0.608   3.567  -0.479  0.00  0.00    -0.300 NA
ATOM     25  C   LIG    1        1.083   4.793   0.992  0.00  0.00    +0.350 C 
ATOM     26  C   LIG    1       -0.892   2.317  -0.741  0.00  0.00    +0.260 A 
ENDBRANCH  10  21
TORSDOF 2
