REMARK  Name = ZINCb80000001CKi.0
REMARK                            x       y       z     vdW  Elec       q    Type
REMARK                         _______ _______ _______ _____ _____    ______ ____
ROOT
ATOM      1  C   LIG    1       -1.220   1.642   0.017  0.00  0.00    +0.420 A 
ATOM      2  C   LIG    1       -1.227   3.035   0.030  0.00  0.00    -0.110 A 
ATOM      3  C   LIG    1       -2.424   3.700   0.035  0.00  0.00    +0.180 A 
ATOM      4  C   LIG    1       -3.608   2.948   0.036  0.00  0.00    -0.260 A 
ATOM      5  C   LIG    1       -3.525   1.554   0.028  0.00  0.00    +0.350 A 
ATOM      6  N   LIG    1       -2.353   0.954   0.018  0.00  0.00    -0.550 NA
ENDROOT
BRANCH   4   7
ATOM      7  C   LIG    1       -4.921   3.619   0.046  0.00  0.00    +0.580 C 
ATOM      8  O   LIG    1       -4.983   4.834   0.053  0.00  0.00    -0.550 OA
ATOM      9  N   LIG    1       -6.053   2.887   0.047  0.00  0.00    -0.850 N 
ATOM     10  H   LIG    1       -6.916   3.328   0.053  0.00  0.00    +0.410 HD
ATOM     11  H   LIG    1       -6.003   1.918   0.041  0.00  0.00    +0.400 HD
ENDBRANCH   4   7
BRANCH   1  13
ATOM     12  C   LIG    1        1.248   1.716  -0.001  0.00  0.00    +0.290 C 
ATOM     13  N   LIG    1       -0.011   0.966   0.007  0.00  0.00    -0.720 N 
ATOM     14  H   LIG    1        0.002  -0.004   0.002  0.00  0.00    +0.410 HD
ENDBRANCH   1  13
TORSDOF 2
