REMARK  Name = ZINCrD00000hQ477.0
REMARK                            x       y       z     vdW  Elec       q    Type
REMARK                         _______ _______ _______ _____ _____    ______ ____
ROOT
ATOM      1  C   LIG    1        0.606   3.083  -1.636  0.00  0.00    +0.100 C 
ATOM      2  C   LIG    1        0.793   1.798  -0.871  0.00  0.00    -0.060 A 
ATOM      3  C   LIG    1       -0.276   1.235  -0.199  0.00  0.00    +0.010 A 
ATOM      4  C   LIG    1       -0.110   0.056   0.505  0.00  0.00    +0.040 A 
ATOM      5  C   LIG    1        1.128  -0.564   0.538  0.00  0.00    +0.040 A 
ATOM      6  C   LIG    1        2.205   0.004  -0.140  0.00  0.00    +0.160 A 
ATOM      7  C   LIG    1        2.032   1.186  -0.843  0.00  0.00    +0.040 A 
ENDROOT
BRANCH   6   8
ATOM      8  N   LIG    1        3.461  -0.618  -0.110  0.00  0.00    -0.680 N 
ATOM      9  H   LIG    1        3.522  -1.586  -0.093  0.00  0.00    +0.410 HD
ATOM     10  C   LIG    1        4.583   0.128  -0.106  0.00  0.00    +0.730 C 
ATOM     11  N   LIG    1        5.787  -0.467   0.010  0.00  0.00    -0.630 N 
ATOM     12  C   LIG    1        7.094   0.225   0.023  0.00  0.00    +0.250 C 
ATOM     13  C   LIG    1        8.021  -0.749   0.785  0.00  0.00    +0.160 C 
ATOM     14  C   LIG    1        7.559  -2.115   0.234  0.00  0.00    +0.190 C 
ATOM     15  O   LIG    1        8.030  -2.317  -1.100  0.00  0.00    -0.380 OA
ATOM     16  C   LIG    1        9.433  -2.109  -1.289  0.00  0.00    +0.220 C 
ATOM     17  C   LIG    1        9.776  -0.666  -0.897  0.00  0.00    +0.150 C 
ATOM     18  N   LIG    1        9.422  -0.481   0.516  0.00  0.00    -0.530 NA
ATOM     19  C   LIG    1        9.802   0.859   0.983  0.00  0.00    +0.200 C 
ATOM     20  C   LIG    1        6.023  -1.915   0.140  0.00  0.00    +0.270 C 
ATOM     21  O   LIG    1        4.510   1.337  -0.208  0.00  0.00    -0.570 OA
ENDBRANCH   6   8
BRANCH   5  22
ATOM     22  O   LIG    1        1.292  -1.723   1.229  0.00  0.00    -0.250 OA
BRANCH  22  23
ATOM     23  C   LIG    1        1.846  -1.654   2.468  0.00  0.00    +0.120 A 
ATOM     24  C   LIG    1        2.131  -0.420   3.034  0.00  0.00    -0.060 A 
ATOM     25  C   LIG    1        2.690  -0.352   4.296  0.00  0.00    +0.040 A 
ATOM     26  C   LIG    1        2.974  -1.514   4.990  0.00  0.00    -0.030 A 
ATOM     27  C   LIG    1        2.696  -2.745   4.426  0.00  0.00    +0.050 A 
ATOM     28  C   LIG    1        2.133  -2.818   3.167  0.00  0.00    -0.020 A 
ENDBRANCH  22  23
ENDBRANCH   5  22
TORSDOF 3
