REMARK  Name = ZINCvU0000000EPw.0
REMARK                            x       y       z     vdW  Elec       q    Type
REMARK                         _______ _______ _______ _____ _____    ______ ____
ROOT
ATOM      1  C   LIG    1        0.720  -4.167   0.361  0.00  0.00    +0.190 A 
ATOM      2  N   LIG    1        0.335  -2.940   0.629  0.00  0.00    -0.320 NA
ATOM      3  N   LIG    1        1.237  -2.082  -0.020  0.00  0.00    -0.330 N 
ATOM      4  C   LIG    1        2.124  -2.870  -0.656  0.00  0.00    +0.310 A 
ATOM      5  N   LIG    1        1.807  -4.117  -0.416  0.00  0.00    -0.500 NA
ENDROOT
BRANCH   4   6
ATOM      6  C   LIG    1        3.283  -2.399  -1.496  0.00  0.00    +0.080 C 
ATOM      7  C   LIG    1        3.129  -2.930  -2.922  0.00  0.00    +0.030 C 
ATOM      8  C   LIG    1        4.306  -2.452  -3.775  0.00  0.00    +0.010 C 
ATOM      9  C   LIG    1        5.614  -2.971  -3.176  0.00  0.00    +0.020 C 
ATOM     10  C   LIG    1        5.769  -2.440  -1.749  0.00  0.00    +0.010 C 
ATOM     11  C   LIG    1        4.592  -2.918  -0.897  0.00  0.00    +0.030 C 
ENDBRANCH   4   6
BRANCH   3  12
ATOM     12  C   LIG    1        1.215  -0.680  -0.013  0.00  0.00    +0.140 A 
ATOM     13  C   LIG    1        0.002  -0.004   0.002  0.00  0.00    +0.020 A 
ATOM     14  C   LIG    1       -0.017   1.377   0.010  0.00  0.00    +0.040 A 
ATOM     15  C   LIG    1        1.171   2.086   0.002  0.00  0.00    +0.020 A 
ATOM     16  C   LIG    1        2.380   1.415  -0.013  0.00  0.00    +0.040 A 
ATOM     17  C   LIG    1        2.405   0.034  -0.021  0.00  0.00    +0.010 A 
ENDBRANCH   3  12
BRANCH   1  18
ATOM     18  S   LIG    1       -0.067  -5.636   0.932  0.00  0.00    +0.120 S 
BRANCH  18  19
ATOM     19  C   LIG    1       -1.451  -5.001   1.918  0.00  0.00    +0.080 C 
BRANCH  19  21
ATOM     20  O   LIG    1       -1.894  -7.296   2.247  0.00  0.00    -0.520 OA
ATOM     21  C   LIG    1       -2.235  -6.157   2.485  0.00  0.00    +0.540 C 
ATOM     22  N   LIG    1       -3.316  -5.924   3.256  0.00  0.00    -0.730 N 
ATOM     23  H   LIG    1       -3.588  -5.012   3.446  0.00  0.00    +0.400 HD
BRANCH  22  24
ATOM     24  C   LIG    1       -4.078  -7.047   3.807  0.00  0.00    +0.260 C 
BRANCH  24  25
ATOM     25  C   LIG    1       -5.245  -6.511   4.639  0.00  0.00    +0.070 C 
BRANCH  25  26
ATOM     26  C   LIG    1       -6.030  -7.666   5.206  0.00  0.00    -0.080 A 
ATOM     27  C   LIG    1       -7.089  -8.198   4.494  0.00  0.00    +0.030 A 
ATOM     28  C   LIG    1       -7.806  -9.260   5.012  0.00  0.00    +0.030 A 
ATOM     29  C   LIG    1       -7.469  -9.785   6.247  0.00  0.00    -0.030 A 
ATOM     30  C   LIG    1       -6.412  -9.249   6.961  0.00  0.00    +0.030 A 
ATOM     31 CL   LIG    1       -8.374 -11.115   6.901  0.00  0.00    -0.070 Cl
ATOM     32  C   LIG    1       -5.693  -8.191   6.440  0.00  0.00    +0.030 A 
ENDBRANCH  25  26
ENDBRANCH  24  25
ENDBRANCH  22  24
ENDBRANCH  19  21
ENDBRANCH  18  19
ENDBRANCH   1  18
TORSDOF 8
