REMARK  Name = ZINCrD0000073hxw.0
REMARK                            x       y       z     vdW  Elec       q    Type
REMARK                         _______ _______ _______ _____ _____    ______ ____
ROOT
ATOM      1  O   LIG    1       -0.010   4.208   0.024  0.00  0.00    -0.350 OA
ENDROOT
BRANCH   1   2
ATOM      2  C   LIG    1        1.166   3.550   0.010  0.00  0.00    +0.530 C 
ATOM      3  O   LIG    1        2.210   4.171   0.003  0.00  0.00    -0.490 OA
BRANCH   2  10
ATOM      4  C   LIG    1        2.409   1.391  -0.014  0.00  0.00    +0.250 A 
ATOM      5  C   LIG    1        2.416   0.007  -0.021  0.00  0.00    -0.150 A 
ATOM      6  C   LIG    1        1.215  -0.692  -0.013  0.00  0.00    +0.310 A 
ATOM      7  C   LIG    1        0.002  -0.004   0.002  0.00  0.00    -0.160 A 
ATOM      8  C   LIG    1       -0.016   1.361   0.009  0.00  0.00    +0.190 A 
ATOM      9 CL   LIG    1       -1.492  -0.888   0.011  0.00  0.00    -0.060 Cl
ATOM     10  C   LIG    1        1.185   2.079   0.002  0.00  0.00    -0.220 A 
BRANCH   6  11
ATOM     11  N   LIG    1        1.223  -2.083  -0.020  0.00  0.00    -0.850 N 
ATOM     12  H   LIG    1        2.066  -2.563  -0.031  0.00  0.00    +0.410 HD
ATOM     13  H   LIG    1        0.386  -2.572  -0.015  0.00  0.00    +0.410 HD
ENDBRANCH   6  11
BRANCH   4  15
ATOM     14  C   LIG    1        4.783   1.310  -0.036  0.00  0.00    +0.250 C 
ATOM     15  O   LIG    1        3.578   2.078  -0.021  0.00  0.00    -0.280 OA
ENDBRANCH   4  15
ENDBRANCH   2  10
ENDBRANCH   1   2
BRANCH   1  16
ATOM     16  C   LIG    1        0.047   5.659   0.031  0.00  0.00    +0.400 C 
BRANCH  16  17
ATOM     17  C   LIG    1       -1.353   6.217   0.047  0.00  0.00    +0.170 A 
ATOM     18  N   LIG    1       -2.068   6.495   1.109  0.00  0.00    -0.450 NA
ATOM     19  C   LIG    1       -3.245   6.969   0.641  0.00  0.00    +0.220 A 
ATOM     20  N   LIG    1       -3.179   6.944  -0.666  0.00  0.00    -0.340 NA
ATOM     21  O   LIG    1       -2.101   6.516  -1.020  0.00  0.00    +0.100 OA
BRANCH  19  22
ATOM     22  C   LIG    1       -4.397   7.425   1.456  0.00  0.00    -0.060 A 
ATOM     23  C   LIG    1       -4.328   7.389   2.846  0.00  0.00    +0.100 A 
ATOM     24  C   LIG    1       -5.401   7.820   3.600  0.00  0.00    -0.030 A 
ATOM     25  C   LIG    1       -6.550   8.277   2.980  0.00  0.00    +0.070 A 
ATOM     26  C   LIG    1       -6.631   8.312   1.601  0.00  0.00    -0.070 A 
ATOM     27  C   LIG    1       -5.559   7.888   0.831  0.00  0.00    +0.160 A 
BRANCH  27  28
ATOM     28  O   LIG    1       -5.638   7.922  -0.524  0.00  0.00    -0.300 OA
ATOM     29  C   LIG    1       -6.856   8.407  -1.091  0.00  0.00    +0.240 C 
ENDBRANCH  27  28
ENDBRANCH  19  22
ENDBRANCH  16  17
ENDBRANCH   1  16
TORSDOF 8
