REMARK  Name = ZINCpk00000l8s9Y.0
REMARK                            x       y       z     vdW  Elec       q    Type
REMARK                         _______ _______ _______ _____ _____    ______ ____
ROOT
ATOM      1  N   LIG    1       -0.018   1.461   0.010  0.00  0.00    -0.680 N 
ATOM      2  H   LIG    1       -0.864   1.934   0.017  0.00  0.00    +0.420 HD
ENDROOT
BRANCH   1   3
ATOM      3  C   LIG    1        1.172   2.170   0.003  0.00  0.00    +0.490 A 
ATOM      4  N   LIG    1        2.326   1.532  -0.006  0.00  0.00    -0.520 NA
ATOM      5  C   LIG    1        3.487   2.196  -0.019  0.00  0.00    +0.290 A 
ATOM      6  C   LIG    1        3.526   3.543  -0.012  0.00  0.00    +0.100 A 
ATOM      7  N   LIG    1        2.358   4.259   0.003  0.00  0.00    -0.350 N 
ATOM      8  C   LIG    1        2.051   5.571   0.013  0.00  0.00    +0.200 A 
ATOM      9  N   LIG    1        0.744   5.671   0.025  0.00  0.00    -0.250 NA
ATOM     10  N   LIG    1        0.209   4.500   0.024  0.00  0.00    -0.250 NA
ATOM     11  C   LIG    1        1.160   3.586   0.010  0.00  0.00    +0.110 A 
BRANCH   8  12
ATOM     12  C   LIG    1        3.031   6.715   0.009  0.00  0.00    +0.040 C 
ATOM     13  C   LIG    1        2.474   8.123   0.226  0.00  0.00    +0.070 C 
ATOM     14  C   LIG    1        2.965   7.699  -1.160  0.00  0.00    +0.050 C 
ENDBRANCH   8  12
ENDBRANCH   1   3
BRANCH   1  19
ATOM     15  C   LIG    1        0.113  -0.539   1.445  0.00  0.00    +0.150 C 
ATOM     16  C   LIG    1       -0.778  -1.806   1.449  0.00  0.00    +0.000 C 
ATOM     17  C   LIG    1       -1.968  -1.391   0.549  0.00  0.00    -0.020 C 
ATOM     18  C   LIG    1       -1.321  -0.546  -0.568  0.00  0.00    +0.050 C 
ATOM     19  C   LIG    1        0.002  -0.004   0.002  0.00  0.00    +0.270 C 
BRANCH  15  20
ATOM     20  O   LIG    1        1.467  -0.878   1.750  0.00  0.00    -0.540 OA
ATOM     21  H   LIG    1        1.595  -1.220   2.645  0.00  0.00    +0.380 HD
ENDBRANCH  15  20
BRANCH  17  22
ATOM     22  C   LIG    1       -2.649  -2.627  -0.042  0.00  0.00    +0.310 C 
BRANCH  22  23
ATOM     23  N   LIG    1       -3.280  -3.398   1.033  0.00  0.00    -0.460 N 
ATOM     24  C   LIG    1       -2.702  -4.404   1.758  0.00  0.00    +0.120 A 
ATOM     25  C   LIG    1       -3.628  -4.832   2.638  0.00  0.00    +0.140 A 
ATOM     26  N   LIG    1       -4.744  -4.112   2.449  0.00  0.00    -0.490 NA
ATOM     27  C   LIG    1       -4.543  -3.251   1.489  0.00  0.00    +0.380 A 
ENDBRANCH  22  23
ENDBRANCH  17  22
ENDBRANCH   1  19
TORSDOF 6
