REMARK  Name = ZINCpe00000VVGOx.0
REMARK                            x       y       z     vdW  Elec       q    Type
REMARK                         _______ _______ _______ _____ _____    ______ ____
ROOT
ATOM      1  C   LIG    1        3.781   1.926   0.011  0.00  0.00    +0.560 C 
ATOM      2  N   LIG    1        3.887   3.245  -0.080  0.00  0.00    -0.640 NA
ATOM      3  C   LIG    1        5.087   3.828  -0.064  0.00  0.00    +0.520 C 
ATOM      4  C   LIG    1        6.326   2.990   0.078  0.00  0.00    +0.210 C 
ATOM      5  N   LIG    1        6.080   1.632  -0.416  0.00  0.00    -0.410 NA
ATOM      6  H   LIG    1        6.852   1.022  -0.195  0.00  0.00    +0.370 HD
ATOM      7  C   LIG    1        7.497   3.632  -0.681  0.00  0.00    +0.130 C 
ATOM      8  C   LIG    1        8.520   3.905   0.402  0.00  0.00    +0.090 C 
ATOM      9  N   LIG    1        8.056   3.514   1.539  0.00  0.00    -0.190 NA
ATOM     10  N   LIG    1        6.777   2.961   1.473  0.00  0.00    -0.650 N 
ATOM     11  H   LIG    1        6.271   2.614   2.224  0.00  0.00    +0.430 HD
ATOM     12  O   LIG    1        5.178   5.036  -0.165  0.00  0.00    -0.470 OA
ATOM     13  N   LIG    1        4.906   1.155   0.119  0.00  0.00    -0.580 N 
ATOM     14  H   LIG    1        4.875   0.291   0.560  0.00  0.00    +0.420 HD
ENDROOT
BRANCH   8  15
ATOM     15  C   LIG    1        9.841   4.523   0.188  0.00  0.00    -0.060 A 
ATOM     16  C   LIG    1       10.237   4.908  -1.095  0.00  0.00    +0.070 A 
ATOM     17  C   LIG    1       11.475   5.486  -1.288  0.00  0.00    +0.010 A 
ATOM     18  C   LIG    1       12.325   5.685  -0.215  0.00  0.00    +0.060 A 
ATOM     19  C   LIG    1       11.942   5.306   1.059  0.00  0.00    -0.020 A 
ATOM     20  C   LIG    1       10.703   4.732   1.270  0.00  0.00    +0.130 A 
ATOM     21  F   LIG    1       10.328   4.368   2.515  0.00  0.00    -0.120 F 
ENDBRANCH   8  15
BRANCH   1  27
ATOM     22  C   LIG    1        1.292   2.084   0.021  0.00  0.00    +0.300 A 
ATOM     23  C   LIG    1        0.044   1.474   0.012  0.00  0.00    -0.090 A 
ATOM     24  C   LIG    1       -0.052   0.097  -0.014  0.00  0.00    +0.100 A 
ATOM     25  C   LIG    1        1.092  -0.687  -0.031  0.00  0.00    -0.060 A 
ATOM     26  C   LIG    1        2.338  -0.101  -0.023  0.00  0.00    +0.090 A 
ATOM     27  C   LIG    1        2.453   1.293   0.003  0.00  0.00    -0.190 A 
BRANCH  22  28
ATOM     28  N   LIG    1        1.391   3.469   0.047  0.00  0.00    -0.840 N 
ATOM     29  H   LIG    1        2.260   3.894  -0.026  0.00  0.00    +0.430 HD
ATOM     30  H   LIG    1        0.591   4.011   0.138  0.00  0.00    +0.390 HD
ENDBRANCH  22  28
ENDBRANCH   1  27
TORSDOF 3
