REMARK  Name = ZINCrg000000s6yD.0
REMARK                            x       y       z     vdW  Elec       q    Type
REMARK                         _______ _______ _______ _____ _____    ______ ____
ROOT
ATOM      1  C   LIG    1        1.226   1.801  -0.779  0.00  0.00    +0.110 C 
ENDROOT
BRANCH   1   2
ATOM      2  C   LIG    1       -0.053   1.105  -0.391  0.00  0.00    +0.540 C 
ATOM      3  N   LIG    1       -1.209   1.797  -0.342  0.00  0.00    -0.710 N 
ATOM      4  H   LIG    1       -1.216   2.744  -0.552  0.00  0.00    +0.420 HD
ATOM      5  O   LIG    1       -0.044  -0.079  -0.129  0.00  0.00    -0.520 OA
BRANCH   3   6
ATOM      6  C   LIG    1       -2.453   1.119   0.029  0.00  0.00    +0.240 C 
ATOM      7  C   LIG    1       -2.579   1.084   1.554  0.00  0.00    +0.060 C 
BRANCH   6   8
ATOM      8  C   LIG    1       -3.625   1.865  -0.555  0.00  0.00    +0.520 C 
ATOM      9  N   LIG    1       -4.804   1.236  -0.732  0.00  0.00    -0.610 N 
ATOM     10  C   LIG    1       -5.934   1.916  -1.385  0.00  0.00    +0.260 C 
ATOM     11  C   LIG    1       -6.469   0.997  -2.495  0.00  0.00    +0.220 C 
ATOM     12  O   LIG    1       -6.737  -0.296  -1.946  0.00  0.00    -0.380 OA
ATOM     13  C   LIG    1       -5.582  -0.964  -1.432  0.00  0.00    +0.220 C 
ATOM     14  C   LIG    1       -5.000  -0.148  -0.272  0.00  0.00    +0.250 C 
ATOM     15  O   LIG    1       -3.507   3.032  -0.865  0.00  0.00    -0.530 OA
ENDBRANCH   6   8
ENDBRANCH   3   6
ENDBRANCH   1   2
BRANCH   1  16
ATOM     16  S   LIG    1        2.590   0.611  -0.761  0.00  0.00    +0.090 S 
BRANCH  16  21
ATOM     17  N   LIG    1        5.230   1.300  -1.389  0.00  0.00    -0.420 N 
ATOM     18  C   LIG    1        5.888   2.441  -1.770  0.00  0.00    +0.400 A 
ATOM     19  N   LIG    1        5.005   3.397  -1.822  0.00  0.00    -0.280 NA
ATOM     20  N   LIG    1        3.843   2.946  -1.510  0.00  0.00    -0.290 NA
ATOM     21  C   LIG    1        3.920   1.663  -1.238  0.00  0.00    +0.140 A 
BRANCH  17  26
ATOM     22  C   LIG    1        7.473  -3.856  -0.616  0.00  0.00    +0.100 C 
ATOM     23  C   LIG    1        6.878  -2.487  -0.822  0.00  0.00    -0.070 A 
ATOM     24  C   LIG    1        7.143  -1.787  -1.984  0.00  0.00    +0.040 A 
ATOM     25  C   LIG    1        6.598  -0.531  -2.175  0.00  0.00    +0.030 A 
ATOM     26  C   LIG    1        5.785   0.026  -1.198  0.00  0.00    +0.100 A 
ATOM     27  C   LIG    1        5.525  -0.677  -0.030  0.00  0.00    +0.040 A 
ATOM     28  C   LIG    1        6.067  -1.934   0.153  0.00  0.00    +0.040 A 
ENDBRANCH  17  26
ENDBRANCH  16  21
ENDBRANCH   1  16
TORSDOF 6
