REMARK  Name = ZINCrH000004sPsC.0
REMARK                            x       y       z     vdW  Elec       q    Type
REMARK                         _______ _______ _______ _____ _____    ______ ____
ROOT
ATOM      1  C   LIG    1       -0.018   1.503   0.010  0.00  0.00    +0.300 C 
ENDROOT
BRANCH   1   2
ATOM      2  C   LIG    1        0.002  -0.004   0.002  0.00  0.00    -0.100 A 
ATOM      3  C   LIG    1        0.236  -0.699   1.174  0.00  0.00    +0.020 A 
ATOM      4  C   LIG    1        0.251  -2.081   1.167  0.00  0.00    +0.000 A 
ATOM      5  C   LIG    1        0.040  -2.768  -0.013  0.00  0.00    +0.010 A 
ATOM      6  C   LIG    1       -0.189  -2.074  -1.186  0.00  0.00    +0.000 A 
ATOM      7  C   LIG    1       -0.208  -0.692  -1.179  0.00  0.00    +0.020 A 
ENDBRANCH   1   2
BRANCH   1   8
ATOM      8  N   LIG    1       -0.704   1.975   1.216  0.00  0.00    -0.720 N 
ATOM      9  H   LIG    1       -0.191   2.209   2.005  0.00  0.00    +0.410 HD
ATOM     10  C   LIG    1       -2.047   2.086   1.227  0.00  0.00    +0.520 C 
ATOM     11  O   LIG    1       -2.688   1.794   0.240  0.00  0.00    -0.530 OA
BRANCH  10  12
ATOM     12  C   LIG    1       -2.753   2.572   2.467  0.00  0.00    +0.000 C 
ATOM     13  C   LIG    1       -2.263   3.979   2.814  0.00  0.00    +0.040 C 
BRANCH  12  14
ATOM     14  C   LIG    1       -4.261   2.604   2.216  0.00  0.00    +0.110 C 
BRANCH  14  15
ATOM     15  C   LIG    1       -4.975   2.972   3.491  0.00  0.00    -0.050 A 
ATOM     16  C   LIG    1       -5.229   4.299   3.783  0.00  0.00    +0.000 A 
ATOM     17  C   LIG    1       -5.884   4.637   4.953  0.00  0.00    +0.040 A 
ATOM     18  C   LIG    1       -6.286   3.649   5.831  0.00  0.00    -0.020 A 
ATOM     19  C   LIG    1       -6.033   2.319   5.540  0.00  0.00    +0.100 A 
ATOM     20  F   LIG    1       -6.425   1.353   6.397  0.00  0.00    -0.140 F 
ATOM     21  C   LIG    1       -5.381   1.981   4.366  0.00  0.00    -0.020 A 
ENDBRANCH  14  15
ENDBRANCH  12  14
ENDBRANCH  10  12
ENDBRANCH   1   8
BRANCH   1  22
ATOM     22  C   LIG    1        1.417   2.032  -0.001  0.00  0.00    +0.210 C 
BRANCH  22  27
ATOM     23  C   LIG    1        1.326   6.935   1.015  0.00  0.00    +0.210 C 
ATOM     24  C   LIG    1        1.359   5.609   0.299  0.00  0.00    +0.170 A 
ATOM     25  N   LIG    1        1.387   5.431  -0.988  0.00  0.00    -0.380 NA
ATOM     26  O   LIG    1        1.415   4.246  -1.247  0.00  0.00    +0.080 OA
ATOM     27  C   LIG    1        1.397   3.535  -0.116  0.00  0.00    +0.180 A 
ATOM     28  N   LIG    1        1.365   4.394   0.874  0.00  0.00    -0.470 NA
ENDBRANCH  22  27
ENDBRANCH   1  22
TORSDOF 7
