REMARK  Name = ZINCpk00000KfKtK.0
REMARK                            x       y       z     vdW  Elec       q    Type
REMARK                         _______ _______ _______ _____ _____    ______ ____
ROOT
ATOM      1  C   LIG    1        4.684   0.241  -0.947  0.00  0.00    -0.350 C 
ENDROOT
BRANCH   1   2
ATOM      2  C   LIG    1        3.243   0.409  -0.462  0.00  0.00    +0.010 C 
ATOM      3  C   LIG    1        2.375   0.925  -1.612  0.00  0.00    +0.020 C 
ATOM      4  C   LIG    1        0.941   1.125  -1.113  0.00  0.00    +0.270 C 
ATOM      5  N   LIG    1        0.467  -0.132  -0.517  0.00  0.00    -0.610 N 
ATOM      6  C   LIG    1        1.275  -0.762   0.535  0.00  0.00    +0.280 C 
ATOM      7  C   LIG    1       -0.686  -0.695  -0.928  0.00  0.00    +0.600 C 
ATOM      8  O   LIG    1       -1.009  -1.792  -0.512  0.00  0.00    -0.530 OA
ATOM      9  C   LIG    1        2.706  -0.941   0.019  0.00  0.00    +0.030 C 
BRANCH   7  10
ATOM     10  C   LIG    1       -1.550   0.013  -1.877  0.00  0.00    -0.280 A 
ATOM     11  C   LIG    1       -2.369  -0.578  -2.798  0.00  0.00    +0.100 A 
ATOM     12  C   LIG    1       -3.071   0.325  -3.561  0.00  0.00    +0.000 A 
ATOM     13  C   LIG    1       -2.837   1.611  -3.276  0.00  0.00    -0.070 A 
ATOM     14  S   LIG    1       -1.707   1.760  -2.006  0.00  0.00    +0.220 S 
ENDBRANCH   7  10
ENDBRANCH   1   2
BRANCH   1  15
ATOM     15  S   LIG    1        5.371   1.864  -1.377  0.00  0.00    +2.610 S 
ATOM     16  O   LIG    1        5.541   2.659  -0.211  0.00  0.00    -0.960 OA
ATOM     17  O   LIG    1        4.729   2.386  -2.532  0.00  0.00    -0.950 OA
BRANCH  15  18
ATOM     18  N   LIG    1        6.915   1.540  -1.880  0.00  0.00    -1.120 NA
ATOM     19  H   LIG    1        7.671   1.874  -1.372  0.00  0.00    +0.420 HD
BRANCH  18  20
ATOM     20  C   LIG    1        7.140   0.747  -3.091  0.00  0.00    +0.360 C 
BRANCH  20  24
ATOM     21  C   LIG    1       11.284   2.433  -5.351  0.00  0.00    +0.360 C 
ATOM     22  N   LIG    1       10.373   1.640  -4.521  0.00  0.00    -0.370 N 
ATOM     23  C   LIG    1        9.045   1.839  -4.387  0.00  0.00    +0.260 A 
ATOM     24  C   LIG    1        8.572   0.901  -3.534  0.00  0.00    -0.260 A 
ATOM     25  C   LIG    1        9.646   0.096  -3.140  0.00  0.00    +0.250 A 
ATOM     26  N   LIG    1       10.726   0.538  -3.732  0.00  0.00    -0.290 NA
ENDBRANCH  20  24
ENDBRANCH  18  20
ENDBRANCH  15  18
ENDBRANCH   1  15
TORSDOF 6
