REMARK  Name = ZINCrH000004lOmw.0
REMARK                            x       y       z     vdW  Elec       q    Type
REMARK                         _______ _______ _______ _____ _____    ______ ____
ROOT
ATOM      1  N   LIG    1        1.753   5.027   2.076  0.00  0.00    -0.730 N 
ATOM      2  H   LIG    1        1.107   5.498   1.528  0.00  0.00    +0.400 HD
ATOM      3  C   LIG    1        1.624   5.021   3.417  0.00  0.00    +0.700 C 
ATOM      4  N   LIG    1        0.596   5.671   3.998  0.00  0.00    -0.680 N 
ATOM      5  H   LIG    1       -0.004   6.210   3.458  0.00  0.00    +0.400 HD
ATOM      6  O   LIG    1        2.435   4.430   4.104  0.00  0.00    -0.570 OA
ENDROOT
BRANCH   4   7
ATOM      7  C   LIG    1        0.393   5.569   5.380  0.00  0.00    +0.140 A 
ATOM      8  C   LIG    1        0.808   4.432   6.060  0.00  0.00    +0.040 A 
ATOM      9  C   LIG    1        0.613   4.333   7.423  0.00  0.00    +0.040 A 
ATOM     10  C   LIG    1       -0.008   5.366   8.113  0.00  0.00    +0.130 A 
ATOM     11  C   LIG    1       -0.428   6.501   7.432  0.00  0.00    -0.010 A 
ATOM     12  C   LIG    1       -0.228   6.602   6.069  0.00  0.00    +0.000 A 
BRANCH  10  13
ATOM     13  N   LIG    1       -0.212   5.263   9.495  0.00  0.00    -0.560 N 
ATOM     14  C   LIG    1        0.330   4.238  10.181  0.00  0.00    +0.510 C 
ATOM     15  O   LIG    1        0.915   3.354   9.591  0.00  0.00    -0.520 OA
ATOM     16  C   LIG    1        0.210   4.189  11.683  0.00  0.00    +0.110 C 
ATOM     17  C   LIG    1       -1.015   6.269  10.194  0.00  0.00    +0.290 C 
ENDBRANCH  10  13
ENDBRANCH   4   7
BRANCH   1  18
ATOM     18  C   LIG    1        2.871   4.320   1.445  0.00  0.00    +0.270 C 
ATOM     19  C   LIG    1        4.101   5.230   1.420  0.00  0.00    +0.050 C 
BRANCH  18  20
ATOM     20  C   LIG    1        2.490   3.939   0.013  0.00  0.00    +0.210 C 
BRANCH  20  21
ATOM     21  C   LIG    1        1.209   3.145   0.028  0.00  0.00    -0.120 A 
ATOM     22  C   LIG    1        1.253   1.763   0.034  0.00  0.00    +0.050 A 
ATOM     23  C   LIG    1        0.079   1.034   0.048  0.00  0.00    -0.010 A 
ATOM     24  C   LIG    1       -1.141   1.688   0.052  0.00  0.00    +0.100 A 
ATOM     25  C   LIG    1       -1.184   3.072   0.052  0.00  0.00    -0.010 A 
ATOM     26  F   LIG    1       -2.289   0.976   0.060  0.00  0.00    -0.140 F 
ATOM     27  C   LIG    1       -0.009   3.799   0.038  0.00  0.00    +0.060 A 
ENDBRANCH  20  21
BRANCH  20  29
ATOM     28  C   LIG    1        2.616   4.966  -2.149  0.00  0.00    +0.210 C 
ATOM     29  O   LIG    1        2.306   5.125  -0.763  0.00  0.00    -0.370 OA
ENDBRANCH  20  29
ENDBRANCH  18  20
ENDBRANCH   1  18
TORSDOF 6
