REMARK  Name = ZINCvU0000000Giv.0
REMARK                            x       y       z     vdW  Elec       q    Type
REMARK                         _______ _______ _______ _____ _____    ______ ____
ROOT
ATOM      1  C   LIG    1        6.287   6.287   0.973  0.00  0.00    +0.500 C 
ATOM      2  O   LIG    1        6.010   5.213   0.479  0.00  0.00    -0.450 OA
ENDROOT
BRANCH   1  11
ATOM      3  C   LIG    1        7.635   3.743  -0.407  0.00  0.00    +0.210 C 
ATOM      4  C   LIG    1        8.755   4.749  -0.346  0.00  0.00    +0.160 A 
ATOM      5  N   LIG    1        9.970   4.575  -0.770  0.00  0.00    -0.270 NA
ATOM      6  O   LIG    1       10.726   5.749  -0.550  0.00  0.00    -0.070 OA
ATOM      7  C   LIG    1        9.948   6.677   0.043  0.00  0.00    +0.310 A 
ATOM      8  N   LIG    1       10.177   7.912   0.460  0.00  0.00    -0.450 NA
ATOM      9  C   LIG    1        9.230   8.647   1.028  0.00  0.00    +0.290 A 
ATOM     10  C   LIG    1        7.935   8.149   1.216  0.00  0.00    +0.040 A 
ATOM     11  C   LIG    1        7.640   6.856   0.796  0.00  0.00    +0.010 A 
ATOM     12  C   LIG    1        8.675   6.102   0.201  0.00  0.00    -0.200 A 
BRANCH   9  13
ATOM     13  C   LIG    1        9.548  10.018   1.472  0.00  0.00    -0.010 A 
ATOM     14  C   LIG    1       10.758  10.633   1.361  0.00  0.00    +0.040 A 
ATOM     15  C   LIG    1       10.608  11.922   1.905  0.00  0.00    -0.060 A 
ATOM     16  C   LIG    1        9.331  12.028   2.325  0.00  0.00    +0.210 A 
ATOM     17  O   LIG    1        8.694  10.877   2.061  0.00  0.00    -0.160 OA
ENDBRANCH   9  13
ENDBRANCH   1  11
BRANCH   1  18
ATOM     18  O   LIG    1        5.361   6.960   1.683  0.00  0.00    -0.280 OA
BRANCH  18  19
ATOM     19  C   LIG    1        4.109   6.431   1.722  0.00  0.00    +0.080 A 
ATOM     20  C   LIG    1        3.109   6.955   0.915  0.00  0.00    +0.040 A 
ATOM     21  C   LIG    1        1.837   6.418   0.956  0.00  0.00    +0.040 A 
ATOM     22  C   LIG    1        1.560   5.355   1.804  0.00  0.00    +0.110 A 
ATOM     23  C   LIG    1        2.558   4.835   2.615  0.00  0.00    +0.040 A 
ATOM     24  C   LIG    1        3.831   5.369   2.570  0.00  0.00    +0.040 A 
BRANCH  22  25
ATOM     25  O   LIG    1        0.308   4.827   1.844  0.00  0.00    -0.250 OA
BRANCH  25  26
ATOM     26  C   LIG    1       -0.061   3.985   0.847  0.00  0.00    +0.310 A 
ATOM     27  C   LIG    1       -1.294   3.349   0.903  0.00  0.00    -0.040 A 
ATOM     28  C   LIG    1       -1.660   2.496  -0.124  0.00  0.00    +0.110 A 
ATOM     29  C   LIG    1       -0.770   2.300  -1.171  0.00  0.00    -0.060 A 
ATOM     30  C   LIG    1        0.440   2.965  -1.162  0.00  0.00    +0.300 A 
ATOM     31  N   LIG    1        0.759   3.776  -0.171  0.00  0.00    -0.530 NA
ENDBRANCH  25  26
ENDBRANCH  22  25
ENDBRANCH  18  19
ENDBRANCH   1  18
TORSDOF 6
