REMARK  Name = ZINCrD0000073Vc8.1
REMARK                            x       y       z     vdW  Elec       q    Type
REMARK                         _______ _______ _______ _____ _____    ______ ____
ROOT
ATOM      1  N   LIG    1        4.087   7.336  -0.889  0.00  0.00    -0.670 NA
ATOM      2  H   LIG    1        4.038   6.682  -1.657  0.00  0.00    +0.340 HD
ENDROOT
BRANCH   1   4
ATOM      3  C   LIG    1        3.342   7.581   1.431  0.00  0.00    +0.040 C 
ATOM      4  C   LIG    1        2.938   7.175   0.012  0.00  0.00    +0.190 C 
BRANCH   4   5
ATOM      5  C   LIG    1        2.494   5.735   0.009  0.00  0.00    -0.090 A 
ATOM      6  C   LIG    1        1.146   5.429   0.021  0.00  0.00    +0.060 A 
ATOM      7  C   LIG    1        0.736   4.109   0.018  0.00  0.00    +0.000 A 
ATOM      8  C   LIG    1        1.679   3.091   0.003  0.00  0.00    +0.130 A 
ATOM      9  C   LIG    1        3.032   3.402  -0.003  0.00  0.00    +0.000 A 
ATOM     10  C   LIG    1        3.436   4.723  -0.006  0.00  0.00    +0.060 A 
BRANCH   8  11
ATOM     11  N   LIG    1        1.266   1.751  -0.001  0.00  0.00    -0.410 N 
ATOM     12  C   LIG    1        2.079   0.647  -0.014  0.00  0.00    +0.130 A 
ATOM     13  C   LIG    1        1.273  -0.431  -0.012  0.00  0.00    +0.160 A 
ATOM     14  N   LIG    1        0.002  -0.004   0.002  0.00  0.00    -0.480 NA
ATOM     15  C   LIG    1       -0.016   1.301   0.009  0.00  0.00    +0.400 A 
ENDBRANCH   8  11
ENDBRANCH   4   5
ENDBRANCH   1   4
BRANCH   1  16
ATOM     16  C   LIG    1        4.182   8.717  -1.379  0.00  0.00    +0.260 C 
BRANCH  16  17
ATOM     17  C   LIG    1        5.370   8.843  -2.299  0.00  0.00    +0.010 A 
ATOM     18  C   LIG    1        6.551   9.386  -1.829  0.00  0.00    +0.070 A 
ATOM     19  C   LIG    1        7.646   9.498  -2.671  0.00  0.00    +0.100 A 
ATOM     20  C   LIG    1        7.549   9.072  -3.994  0.00  0.00    +0.030 A 
ATOM     21  O   LIG    1        8.746   9.291  -4.611  0.00  0.00    -0.290 OA
ATOM     22  C   LIG    1        9.699   9.476  -3.548  0.00  0.00    +0.450 C 
ATOM     23  C   LIG    1        6.360   8.533  -4.459  0.00  0.00    +0.130 A 
ATOM     24  O   LIG    1        8.904   9.984  -2.461  0.00  0.00    -0.290 OA
ATOM     25  C   LIG    1        5.274   8.420  -3.611  0.00  0.00    -0.040 A 
BRANCH  25  26
ATOM     26  N   LIG    1        4.004   7.845  -4.111  0.00  0.00    +0.040 N 
ATOM     27  O   LIG    1        3.046   7.745  -3.366  0.00  0.00    -0.160 OA
ATOM     28  O   LIG    1        3.918   7.472  -5.267  0.00  0.00    -0.150 OA
ENDBRANCH  25  26
ENDBRANCH  16  17
ENDBRANCH   1  16
TORSDOF 6
