REMARK  Name = ZINCrH000004oFM2.0
REMARK                            x       y       z     vdW  Elec       q    Type
REMARK                         _______ _______ _______ _____ _____    ______ ____
ROOT
ATOM      1  C   LIG    1        3.704   2.309   0.299  0.00  0.00    +0.520 C 
ATOM      2  F   LIG    1        3.682   3.386   1.192  0.00  0.00    -0.150 F 
ATOM      3  F   LIG    1        3.642   2.790  -1.014  0.00  0.00    -0.150 F 
ENDROOT
BRANCH   1   8
ATOM      4  C   LIG    1        0.235   0.826  -2.540  0.00  0.00    +0.060 C 
ATOM      5  C   LIG    1       -0.241   1.702  -1.379  0.00  0.00    +0.000 C 
ATOM      6  C   LIG    1        0.795   2.727  -0.898  0.00  0.00    +0.270 C 
ATOM      7  N   LIG    1        1.328   1.690  -0.002  0.00  0.00    -0.620 N 
ATOM      8  C   LIG    1        2.521   1.414   0.562  0.00  0.00    +0.520 C 
ATOM      9  O   LIG    1        2.642   0.445   1.282  0.00  0.00    -0.440 OA
ATOM     10  C   LIG    1       -0.013   1.086   0.008  0.00  0.00    +0.300 C 
BRANCH  10  11
ATOM     11  C   LIG    1       -0.918   1.650   1.073  0.00  0.00    -0.100 A 
ATOM     12  C   LIG    1       -0.630   2.875   1.646  0.00  0.00    +0.010 A 
ATOM     13  C   LIG    1       -1.463   3.395   2.619  0.00  0.00    +0.000 A 
ATOM     14  C   LIG    1       -2.577   2.685   3.027  0.00  0.00    +0.020 A 
ATOM     15  C   LIG    1       -2.862   1.458   2.457  0.00  0.00    +0.010 A 
ATOM     16  C   LIG    1       -2.032   0.941   1.480  0.00  0.00    +0.030 A 
ENDBRANCH  10  11
ENDBRANCH   1   8
BRANCH   1  17
ATOM     17  N   LIG    1        4.942   1.548   0.482  0.00  0.00    -0.350 N 
ATOM     18  C   LIG    1        6.196   2.031   0.328  0.00  0.00    +0.180 A 
ATOM     19  C   LIG    1        7.037   0.989   0.595  0.00  0.00    +0.040 A 
ATOM     20  N   LIG    1        6.250  -0.060   0.894  0.00  0.00    -0.230 NA
ATOM     21  N   LIG    1        5.021   0.310   0.821  0.00  0.00    -0.010 NA
BRANCH  19  22
ATOM     22  C   LIG    1        8.521   1.011   0.563  0.00  0.00    -0.020 A 
ATOM     23  C   LIG    1        9.196   2.182   0.228  0.00  0.00    +0.020 A 
ATOM     24  C   LIG    1       10.576   2.198   0.205  0.00  0.00    +0.010 A 
ATOM     25  C   LIG    1       11.288   1.050   0.503  0.00  0.00    +0.020 A 
ATOM     26  C   LIG    1       10.623  -0.117   0.831  0.00  0.00    +0.010 A 
ATOM     27  C   LIG    1        9.243  -0.142   0.862  0.00  0.00    +0.040 A 
ENDBRANCH  19  22
ENDBRANCH   1  17
TORSDOF 4
