REMARK  Name = ZINCrH000004vF52.0
REMARK                            x       y       z     vdW  Elec       q    Type
REMARK                         _______ _______ _______ _____ _____    ______ ____
ROOT
ATOM      1  O   LIG    1        2.651   4.688   0.117  0.00  0.00    -0.540 OA
ATOM      2  C   LIG    1        1.443   4.780   0.014  0.00  0.00    +0.600 C 
ATOM      3  N   LIG    1        0.865   5.994  -0.076  0.00  0.00    -0.610 N 
ATOM      4  C   LIG    1       -0.599   6.138  -0.063  0.00  0.00    +0.250 C 
ATOM      5  C   LIG    1       -0.972   7.194   0.984  0.00  0.00    +0.220 C 
ATOM      6  O   LIG    1       -0.218   8.384   0.741  0.00  0.00    -0.370 OA
ATOM      7  C   LIG    1        1.196   8.217   0.865  0.00  0.00    +0.190 C 
ATOM      8  C   LIG    1        1.680   7.215  -0.183  0.00  0.00    +0.270 C 
ENDROOT
BRANCH   7   9
ATOM      9  C   LIG    1        1.880   9.543   0.651  0.00  0.00    -0.090 A 
ATOM     10  C   LIG    1        1.369  10.445  -0.264  0.00  0.00    +0.040 A 
ATOM     11  C   LIG    1        1.994  11.663  -0.457  0.00  0.00    +0.000 A 
ATOM     12  C   LIG    1        3.135  11.975   0.257  0.00  0.00    +0.010 A 
ATOM     13  C   LIG    1        3.650  11.071   1.168  0.00  0.00    +0.000 A 
ATOM     14  C   LIG    1        3.022   9.855   1.365  0.00  0.00    +0.010 A 
ENDBRANCH   7   9
BRANCH   2  15
ATOM     15  C   LIG    1        0.611   3.563  -0.013  0.00  0.00    -0.290 A 
ATOM     16  C   LIG    1        0.924   2.343   0.552  0.00  0.00    +0.320 A 
ATOM     17  N   LIG    1       -0.098   1.510   0.300  0.00  0.00    -0.350 N 
ATOM     18  N   LIG    1       -1.065   2.203  -0.436  0.00  0.00    -0.280 NA
ATOM     19  C   LIG    1       -0.656   3.428  -0.623  0.00  0.00    +0.260 A 
BRANCH  17  20
ATOM     20  C   LIG    1       -0.183   0.108   0.719  0.00  0.00    +0.390 C 
BRANCH  20  21
ATOM     21  C   LIG    1       -1.455  -0.106   1.499  0.00  0.00    -0.110 A 
ATOM     22  C   LIG    1       -2.556  -0.669   0.883  0.00  0.00    +0.070 A 
ATOM     23  C   LIG    1       -3.723  -0.866   1.598  0.00  0.00    +0.010 A 
ATOM     24  C   LIG    1       -3.789  -0.499   2.929  0.00  0.00    +0.050 A 
ATOM     25  C   LIG    1       -2.688   0.064   3.546  0.00  0.00    +0.030 A 
ATOM     26  C   LIG    1       -1.518   0.256   2.833  0.00  0.00    -0.020 A 
ATOM     27 CL   LIG    1       -0.133   0.956   3.609  0.00  0.00    -0.060 Cl
ENDBRANCH  20  21
ENDBRANCH  17  20
ENDBRANCH   2  15
TORSDOF 4
