REMARK  Name = ZINCkj000005mmto.1
REMARK                            x       y       z     vdW  Elec       q    Type
REMARK                         _______ _______ _______ _____ _____    ______ ____
ROOT
ATOM      1  N   LIG    1        0.583   3.917   1.309  0.00  0.00    -0.390 N 
ATOM      2  C   LIG    1       -0.629   3.793   2.154  0.00  0.00    +0.220 C 
ATOM      3  C   LIG    1       -0.990   5.255   2.562  0.00  0.00    +0.230 C 
ATOM      4  C   LIG    1       -0.515   6.015   1.272  0.00  0.00    +0.100 C 
ATOM      5  N   LIG    1        0.084   5.639   3.532  0.00  0.00    -0.500 NA
ATOM      6  C   LIG    1        1.341   5.697   2.749  0.00  0.00    +0.230 C 
ATOM      7  C   LIG    1        0.920   5.376   1.281  0.00  0.00    +0.180 C 
ATOM      8  H   LIG    1        1.344   3.393   1.714  0.00  0.00    +0.420 HD
ENDROOT
BRANCH   1   9
ATOM      9  C   LIG    1        0.303   3.437  -0.051  0.00  0.00    +0.320 C 
BRANCH   9  13
ATOM     10  C   LIG    1       -0.310  -0.790   0.030  0.00  0.00    +0.060 A 
ATOM     11  C   LIG    1       -1.382   0.067   0.197  0.00  0.00    +0.030 A 
ATOM     12  C   LIG    1       -1.183   1.435   0.171  0.00  0.00    +0.030 A 
ATOM     13  C   LIG    1        0.087   1.946  -0.022  0.00  0.00    -0.160 A 
ATOM     14  C   LIG    1        1.158   1.089  -0.190  0.00  0.00    +0.040 A 
ATOM     15  C   LIG    1        0.960  -0.279  -0.164  0.00  0.00    +0.030 A 
ENDBRANCH   9  13
ENDBRANCH   1   9
BRANCH   5  16
ATOM     16  C   LIG    1        0.186   4.657   4.620  0.00  0.00    +0.190 C 
BRANCH  16  17
ATOM     17  C   LIG    1        1.008   5.250   5.766  0.00  0.00    +0.330 C 
ATOM     18  O   LIG    1        0.374   6.448   6.246  0.00  0.00    -0.360 OA
ATOM     19  C   LIG    1        1.467   7.329   6.600  0.00  0.00    +0.210 C 
ATOM     20  C   LIG    1        2.509   6.994   5.503  0.00  0.00    +0.200 C 
ATOM     21  O   LIG    1        2.322   5.579   5.297  0.00  0.00    -0.390 OA
ENDBRANCH  16  17
ENDBRANCH   5  16
TORSDOF 4
