REMARK  Name = ZINCkj000005mmto.0
REMARK                            x       y       z     vdW  Elec       q    Type
REMARK                         _______ _______ _______ _____ _____    ______ ____
ROOT
ATOM      1  N   LIG    1       -2.136   1.155   0.674  0.00  0.00    -0.400 N 
ATOM      2  C   LIG    1       -2.229   1.159  -0.810  0.00  0.00    +0.230 C 
ATOM      3  C   LIG    1       -0.885   1.783  -1.298  0.00  0.00    +0.230 C 
ATOM      4  C   LIG    1        0.074   1.261  -0.169  0.00  0.00    +0.100 C 
ATOM      5  N   LIG    1       -0.999   3.230  -0.929  0.00  0.00    -0.500 NA
ATOM      6  C   LIG    1       -0.996   3.275   0.553  0.00  0.00    +0.230 C 
ATOM      7  C   LIG    1       -0.823   1.792   1.006  0.00  0.00    +0.190 C 
ATOM      8  H   LIG    1       -2.161   0.208   1.022  0.00  0.00    +0.420 HD
ENDROOT
BRANCH   1   9
ATOM      9  C   LIG    1       -3.238   1.936   1.254  0.00  0.00    +0.310 C 
BRANCH   9  13
ATOM     10  C   LIG    1       -6.915  -0.170   0.713  0.00  0.00    +0.060 A 
ATOM     11  C   LIG    1       -6.158  -0.381   1.851  0.00  0.00    +0.030 A 
ATOM     12  C   LIG    1       -4.968   0.300   2.026  0.00  0.00    +0.040 A 
ATOM     13  C   LIG    1       -4.535   1.193   1.063  0.00  0.00    -0.160 A 
ATOM     14  C   LIG    1       -5.294   1.408  -0.072  0.00  0.00    +0.020 A 
ATOM     15  C   LIG    1       -6.481   0.723  -0.249  0.00  0.00    +0.030 A 
ENDBRANCH   9  13
ENDBRANCH   1   9
BRANCH   5  16
ATOM     16  C   LIG    1       -2.233   3.815  -1.470  0.00  0.00    +0.180 C 
BRANCH  16  17
ATOM     17  C   LIG    1       -2.190   3.772  -2.999  0.00  0.00    +0.330 C 
ATOM     18  O   LIG    1       -2.202   2.405  -3.444  0.00  0.00    -0.390 OA
ATOM     19  C   LIG    1       -1.353   2.387  -4.614  0.00  0.00    +0.210 C 
ATOM     20  C   LIG    1       -0.256   3.407  -4.220  0.00  0.00    +0.210 C 
ATOM     21  O   LIG    1       -0.985   4.395  -3.465  0.00  0.00    -0.360 OA
ENDBRANCH  16  17
ENDBRANCH   5  16
TORSDOF 4
