REMARK  Name = ZINCrg000000rbax.0
REMARK                            x       y       z     vdW  Elec       q    Type
REMARK                         _______ _______ _______ _____ _____    ______ ____
ROOT
ATOM      1  N   LIG    1        1.496  -0.246   1.563  0.00  0.00    -0.520 NA
ATOM      2  C   LIG    1        0.431  -0.998   0.884  0.00  0.00    +0.180 C 
ATOM      3  C   LIG    1       -0.173  -0.131  -0.226  0.00  0.00    +0.320 C 
ATOM      4  N   LIG    1       -0.593   1.151   0.359  0.00  0.00    -0.630 N 
ATOM      5  C   LIG    1        0.381   1.898   1.170  0.00  0.00    +0.280 C 
ATOM      6  C   LIG    1       -1.835   1.632   0.153  0.00  0.00    +0.720 C 
ATOM      7  N   LIG    1       -2.142   2.889   0.530  0.00  0.00    -0.640 N 
ATOM      8  C   LIG    1       -1.088   3.890   0.761  0.00  0.00    +0.250 C 
ATOM      9  C   LIG    1       -1.448   5.157  -0.032  0.00  0.00    +0.220 C 
ATOM     10  O   LIG    1       -2.782   5.552   0.297  0.00  0.00    -0.380 OA
ATOM     11  C   LIG    1       -3.782   4.594  -0.057  0.00  0.00    +0.220 C 
ATOM     12  C   LIG    1       -3.541   3.300   0.728  0.00  0.00    +0.270 C 
ATOM     13  O   LIG    1       -2.678   0.932  -0.374  0.00  0.00    -0.580 OA
ATOM     14  C   LIG    1        0.963   0.952   2.225  0.00  0.00    +0.160 C 
ENDROOT
BRANCH   1  16
ATOM     15  C   LIG    1        2.897  -2.244   1.766  0.00  0.00    +0.090 C 
ATOM     16  C   LIG    1        2.216  -1.099   2.518  0.00  0.00    +0.130 C 
BRANCH  16  17
ATOM     17  C   LIG    1        3.257  -0.281   3.236  0.00  0.00    +0.530 C 
ATOM     18  N   LIG    1        3.595  -0.584   4.505  0.00  0.00    -0.560 N 
ATOM     19  C   LIG    1        3.095  -1.740   5.254  0.00  0.00    +0.270 C 
ATOM     20  C   LIG    1        3.769  -1.649   6.633  0.00  0.00    +0.090 C 
ATOM     21  C   LIG    1        4.620  -0.401   6.560  0.00  0.00    -0.140 A 
ATOM     22  C   LIG    1        5.445   0.189   7.497  0.00  0.00    +0.050 A 
ATOM     23  C   LIG    1        6.130   1.350   7.187  0.00  0.00    -0.010 A 
ATOM     24  C   LIG    1        5.987   1.919   5.935  0.00  0.00    +0.040 A 
ATOM     25  C   LIG    1        5.165   1.333   4.996  0.00  0.00    +0.010 A 
ATOM     26  C   LIG    1        4.470   0.162   5.302  0.00  0.00    +0.140 A 
ATOM     27  O   LIG    1        3.792   0.651   2.673  0.00  0.00    -0.490 OA
ENDBRANCH  16  17
ENDBRANCH   1  16
TORSDOF 2
