REMARK  Name = ZINCnE000001Q0Ob.1
REMARK                            x       y       z     vdW  Elec       q    Type
REMARK                         _______ _______ _______ _____ _____    ______ ____
ROOT
ATOM      1  N   LIG    1       -4.818   1.709   0.060  0.00  0.00    -0.680 NA
ATOM      2  C   LIG    1       -5.159   0.405   0.057  0.00  0.00    +0.460 C 
ATOM      3  O   LIG    1       -4.297  -0.448   0.043  0.00  0.00    -0.570 OA
ENDROOT
BRANCH   1  10
ATOM      4  C   LIG    1        2.476   3.913  -0.001  0.00  0.00    +0.080 C 
ATOM      5  C   LIG    1        1.170   3.160   0.007  0.00  0.00    -0.140 A 
ATOM      6  C   LIG    1        1.169   1.774   0.000  0.00  0.00    +0.020 A 
ATOM      7  C   LIG    1       -0.013   1.076   0.008  0.00  0.00    +0.010 A 
ATOM      8  C   LIG    1       -1.246   1.760   0.018  0.00  0.00    +0.150 A 
ATOM      9  N   LIG    1       -2.494   1.250   0.034  0.00  0.00    -0.560 NA
ATOM     10  C   LIG    1       -3.482   2.075   0.048  0.00  0.00    +0.400 A 
ATOM     11  S   LIG    1       -2.896   3.733   0.050  0.00  0.00    -0.030 S 
ATOM     12  C   LIG    1       -1.231   3.158   0.031  0.00  0.00    -0.210 A 
ATOM     13  C   LIG    1       -0.022   3.850   0.022  0.00  0.00    +0.060 A 
ENDBRANCH   1  10
BRANCH   2  14
ATOM     14  C   LIG    1       -6.613   0.006   0.069  0.00  0.00    +0.250 C 
ATOM     15  C   LIG    1       -7.283   0.560   1.328  0.00  0.00    +0.040 C 
BRANCH  14  16
ATOM     16  N   LIG    1       -6.718  -1.455   0.063  0.00  0.00    -0.700 N 
ATOM     17  H   LIG    1       -5.990  -1.996   0.408  0.00  0.00    +0.400 HD
ATOM     18  C   LIG    1       -7.827  -2.049  -0.422  0.00  0.00    +0.590 C 
ATOM     19  O   LIG    1       -8.740  -1.371  -0.855  0.00  0.00    -0.540 OA
BRANCH  18  20
ATOM     20  C   LIG    1       -7.932  -3.511  -0.428  0.00  0.00    -0.260 A 
ATOM     21  C   LIG    1       -9.000  -4.226  -0.892  0.00  0.00    +0.090 A 
ATOM     22  C   LIG    1       -8.834  -5.586  -0.779  0.00  0.00    -0.010 A 
ATOM     23  C   LIG    1       -7.670  -5.973  -0.242  0.00  0.00    -0.070 A 
ATOM     24  S   LIG    1       -6.702  -4.625   0.152  0.00  0.00    +0.210 S 
ENDBRANCH  18  20
ENDBRANCH  14  16
ENDBRANCH   2  14
TORSDOF 4
