REMARK  Name = ZINCqH0000008Jmc.0
REMARK                            x       y       z     vdW  Elec       q    Type
REMARK                         _______ _______ _______ _____ _____    ______ ____
ROOT
ATOM      1  C   LIG    1        3.733  -5.156  -3.283  0.00  0.00    +0.030 C 
ATOM      2  C   LIG    1        4.787  -4.062  -3.101  0.00  0.00    +0.210 C 
ATOM      3  C   LIG    1        6.184  -4.645  -3.345  0.00  0.00    +0.220 C 
ATOM      4  O   LIG    1        6.493  -5.577  -2.306  0.00  0.00    -0.360 OA
ATOM      5  C   LIG    1        6.552  -4.998  -1.000  0.00  0.00    +0.200 C 
ATOM      6  C   LIG    1        5.180  -4.431  -0.636  0.00  0.00    +0.270 C 
ATOM      7  N   LIG    1        4.734  -3.546  -1.724  0.00  0.00    -0.610 N 
ATOM      8  C   LIG    1        4.295  -2.298  -1.468  0.00  0.00    +0.520 C 
ATOM      9  O   LIG    1        3.936  -1.582  -2.378  0.00  0.00    -0.510 OA
ENDROOT
BRANCH   5  10
ATOM     10  C   LIG    1        6.944  -6.054   0.001  0.00  0.00    -0.080 A 
ATOM     11  C   LIG    1        6.504  -7.355  -0.158  0.00  0.00    +0.060 A 
ATOM     12  C   LIG    1        6.867  -8.325   0.757  0.00  0.00    +0.030 A 
ATOM     13  C   LIG    1        7.661  -7.993   1.838  0.00  0.00    +0.040 A 
ATOM     14  C   LIG    1        8.097  -6.690   2.002  0.00  0.00    -0.040 A 
ATOM     15 CL   LIG    1        9.094  -6.271   3.360  0.00  0.00    -0.060 Cl
ATOM     16  C   LIG    1        7.738  -5.720   1.082  0.00  0.00    +0.030 A 
ENDBRANCH   5  10
BRANCH   8  17
ATOM     17  C   LIG    1        4.249  -1.792  -0.049  0.00  0.00    +0.160 C 
BRANCH  17  18
ATOM     18  C   LIG    1        3.724  -0.380  -0.036  0.00  0.00    +0.120 A 
ATOM     19  C   LIG    1        2.393  -0.006  -0.021  0.00  0.00    -0.180 A 
ATOM     20  C   LIG    1        1.165  -0.702  -0.013  0.00  0.00    +0.080 A 
ATOM     21  C   LIG    1        0.002  -0.004   0.002  0.00  0.00    -0.030 A 
ATOM     22  C   LIG    1       -0.017   1.393   0.010  0.00  0.00    +0.050 A 
ATOM     23  C   LIG    1        1.126   2.123   0.003  0.00  0.00    +0.030 A 
ATOM     24  C   LIG    1        2.374   1.465  -0.013  0.00  0.00    +0.110 A 
ATOM     25  N   LIG    1        3.634   1.862  -0.023  0.00  0.00    -0.300 NA
ATOM     26  N   LIG    1        4.465   0.737  -0.037  0.00  0.00    -0.420 N 
ATOM     27  H   LIG    1        5.435   0.761  -0.046  0.00  0.00    +0.440 HD
ENDBRANCH  17  18
ENDBRANCH   8  17
TORSDOF 3
