REMARK  Name = ZINCrg00000IYbjr.0
REMARK                            x       y       z     vdW  Elec       q    Type
REMARK                         _______ _______ _______ _____ _____    ______ ____
ROOT
ATOM      1  N   LIG    1       -4.759  -0.315  -0.731  0.00  0.00    -0.600 N 
ATOM      2  C   LIG    1       -4.831   0.342   0.583  0.00  0.00    +0.320 C 
ATOM      3  C   LIG    1       -3.892   1.553   0.574  0.00  0.00    +0.190 C 
ATOM      4  N   LIG    1       -2.547   1.123   0.167  0.00  0.00    -0.510 NA
ATOM      5  C   LIG    1       -2.548   0.598  -1.205  0.00  0.00    +0.180 C 
ATOM      6  C   LIG    1       -3.432  -0.653  -1.269  0.00  0.00    +0.300 C 
ENDROOT
BRANCH   1  11
ATOM      7  C   LIG    1       -4.583  -3.329  -5.380  0.00  0.00    +0.200 C 
ATOM      8  C   LIG    1       -5.340  -2.549  -4.336  0.00  0.00    +0.270 A 
ATOM      9  N   LIG    1       -4.800  -1.957  -3.295  0.00  0.00    -0.340 NA
ATOM     10  N   LIG    1       -5.840  -1.346  -2.587  0.00  0.00    -0.310 N 
ATOM     11  C   LIG    1       -5.910  -0.607  -1.443  0.00  0.00    +0.420 A 
ATOM     12  C   LIG    1       -7.121  -0.154  -1.008  0.00  0.00    +0.100 A 
ATOM     13  N   LIG    1       -8.236  -0.425  -1.680  0.00  0.00    -0.370 NA
ATOM     14  C   LIG    1       -8.213  -1.138  -2.783  0.00  0.00    +0.260 A 
ATOM     15  C   LIG    1       -6.991  -1.629  -3.273  0.00  0.00    +0.280 A 
ATOM     16  N   LIG    1       -6.651  -2.356  -4.330  0.00  0.00    -0.530 NA
ENDBRANCH   1  11
BRANCH   4  17
ATOM     17  C   LIG    1       -1.579   2.218   0.310  0.00  0.00    +0.300 C 
BRANCH  17  18
ATOM     18  C   LIG    1       -0.183   1.682   0.123  0.00  0.00    +0.440 A 
ATOM     19  N   LIG    1       -0.025   0.410  -0.124  0.00  0.00    -0.550 NA
ATOM     20  C   LIG    1        1.198  -0.116  -0.305  0.00  0.00    +0.550 A 
ATOM     21  C   LIG    1        2.339   0.726  -0.225  0.00  0.00    -0.330 A 
ATOM     22  C   LIG    1        2.160   2.074   0.037  0.00  0.00    +0.160 A 
ATOM     23  C   LIG    1        3.358   2.781   0.087  0.00  0.00    -0.010 A 
ATOM     24  C   LIG    1        4.461   2.068  -0.120  0.00  0.00    +0.010 A 
ATOM     25  S   LIG    1        4.054   0.383  -0.406  0.00  0.00    +0.240 S 
ATOM     26  O   LIG    1        1.327  -1.309  -0.535  0.00  0.00    -0.490 OA
ATOM     27  N   LIG    1        0.853   2.529   0.210  0.00  0.00    -0.600 N 
ATOM     28  H   LIG    1        0.692   3.468   0.395  0.00  0.00    +0.420 HD
ENDBRANCH  17  18
ENDBRANCH   4  17
TORSDOF 3
