REMARK  Name = ZINCrD0000073pK3.0
REMARK                            x       y       z     vdW  Elec       q    Type
REMARK                         _______ _______ _______ _____ _____    ______ ____
ROOT
ATOM      1  N   LIG    1       -2.347   4.618   8.243  0.00  0.00    -0.730 N 
ATOM      2  H   LIG    1       -2.254   3.707   8.563  0.00  0.00    +0.400 HD
ATOM      3  C   LIG    1       -2.178   4.893   6.934  0.00  0.00    +0.520 C 
ATOM      4  O   LIG    1       -2.294   6.032   6.534  0.00  0.00    -0.510 OA
ENDROOT
BRANCH   1   5
ATOM      5  C   LIG    1       -2.670   5.695   9.181  0.00  0.00    +0.270 C 
BRANCH   5   6
ATOM      6  C   LIG    1       -2.807   5.119  10.592  0.00  0.00    +0.070 C 
BRANCH   6  10
ATOM      7  C   LIG    1       -3.751   8.261  13.331  0.00  0.00    +0.130 A 
ATOM      8  C   LIG    1       -4.769   7.564  12.695  0.00  0.00    -0.020 A 
ATOM      9  C   LIG    1       -4.461   6.548  11.810  0.00  0.00    +0.060 A 
ATOM     10  C   LIG    1       -3.140   6.227  11.558  0.00  0.00    -0.120 A 
ATOM     11  C   LIG    1       -2.124   6.916  12.194  0.00  0.00    +0.060 A 
ATOM     12  C   LIG    1       -2.427   7.936  13.075  0.00  0.00    -0.080 A 
BRANCH   7  14
ATOM     13  C   LIG    1       -2.953   9.934  14.819  0.00  0.00    +0.250 C 
ATOM     14  O   LIG    1       -4.051   9.259  14.202  0.00  0.00    -0.320 OA
ENDBRANCH   7  14
ENDBRANCH   6  10
ENDBRANCH   5   6
ENDBRANCH   1   5
BRANCH   3  15
ATOM     15  C   LIG    1       -1.845   3.785   5.968  0.00  0.00    +0.250 C 
BRANCH  15  16
ATOM     16  O   LIG    1       -1.715   4.332   4.630  0.00  0.00    -0.330 OA
BRANCH  16  17
ATOM     17  C   LIG    1       -1.417   3.466   3.641  0.00  0.00    +0.530 C 
ATOM     18  O   LIG    1       -1.270   2.285   3.891  0.00  0.00    -0.500 OA
BRANCH  17  19
ATOM     19  C   LIG    1       -1.270   3.949   2.260  0.00  0.00    -0.150 A 
ATOM     20  C   LIG    1       -1.419   5.252   1.909  0.00  0.00    +0.000 A 
ATOM     21  S   LIG    1       -1.181   5.458   0.235  0.00  0.00    +0.210 S 
ATOM     22  C   LIG    1       -0.869   3.748  -0.014  0.00  0.00    -0.210 A 
ATOM     23  C   LIG    1       -0.551   3.107  -1.351  0.00  0.00    +0.120 C 
ATOM     24  C   LIG    1       -0.756   1.594  -1.231  0.00  0.00    -0.010 C 
ATOM     25  C   LIG    1       -0.204   0.901  -2.479  0.00  0.00    +0.030 C 
ATOM     26  C   LIG    1       -0.013   1.086   0.008  0.00  0.00    +0.020 C 
ATOM     27  C   LIG    1       -0.731   1.581   1.265  0.00  0.00    +0.120 C 
ATOM     28  C   LIG    1       -0.951   3.080   1.145  0.00  0.00    -0.050 A 
ENDBRANCH  17  19
ENDBRANCH  16  17
ENDBRANCH  15  16
ENDBRANCH   3  15
TORSDOF 8
