REMARK  Name = ZINCrD000000Aty4.0
REMARK                            x       y       z     vdW  Elec       q    Type
REMARK                         _______ _______ _______ _____ _____    ______ ____
ROOT
ATOM      1  O   LIG    1       -1.329   6.341  -0.220  0.00  0.00    -0.430 OA
ATOM      2  C   LIG    1       -0.167   6.679  -0.139  0.00  0.00    +0.420 C 
ENDROOT
BRANCH   2   3
ATOM      3  C   LIG    1        0.891   5.660  -0.054  0.00  0.00    -0.140 A 
ATOM      4  C   LIG    1        2.232   6.046   0.040  0.00  0.00    +0.040 A 
ATOM      5  C   LIG    1        3.221   5.087   0.119  0.00  0.00    +0.040 A 
ATOM      6  C   LIG    1        2.892   3.744   0.112  0.00  0.00    +0.010 A 
ATOM      7  C   LIG    1        1.563   3.349   0.013  0.00  0.00    +0.150 A 
ATOM      8  C   LIG    1        0.561   4.302  -0.067  0.00  0.00    +0.070 A 
BRANCH   7   9
ATOM      9  N   LIG    1        1.237   1.988   0.001  0.00  0.00    -0.560 N 
ATOM     10  C   LIG    1        2.223   0.901  -0.040  0.00  0.00    +0.260 C 
ATOM     11  C   LIG    1        1.455  -0.367   0.396  0.00  0.00    +0.060 C 
ATOM     12  C   LIG    1        0.002  -0.004   0.011  0.00  0.00    +0.070 C 
ATOM     13  C   LIG    1       -0.018   1.508   0.025  0.00  0.00    +0.510 C 
ATOM     14  O   LIG    1       -1.022   2.189   0.048  0.00  0.00    -0.500 OA
ENDBRANCH   7   9
ENDBRANCH   2   3
BRANCH   2  15
ATOM     15  C   LIG    1        0.194   8.142  -0.125  0.00  0.00    +0.100 C 
BRANCH  15  16
ATOM     16  S   LIG    1       -1.315   9.136  -0.242  0.00  0.00    +0.070 S 
BRANCH  16  17
ATOM     17  C   LIG    1       -0.618  10.754  -0.205  0.00  0.00    +0.150 A 
ATOM     18  N   LIG    1        0.657  11.054  -0.116  0.00  0.00    -0.290 NA
ATOM     19  N   LIG    1        0.808  12.330  -0.115  0.00  0.00    -0.280 NA
ATOM     20  C   LIG    1       -0.351  12.919  -0.203  0.00  0.00    +0.400 A 
ATOM     21  N   LIG    1       -1.304  11.937  -0.269  0.00  0.00    -0.420 N 
BRANCH  21  22
ATOM     22  C   LIG    1       -2.691  12.107  -0.378  0.00  0.00    +0.100 A 
ATOM     23  C   LIG    1       -3.402  11.420  -1.353  0.00  0.00    +0.030 A 
ATOM     24  C   LIG    1       -4.770  11.586  -1.453  0.00  0.00    +0.040 A 
ATOM     25  C   LIG    1       -5.429  12.443  -0.592  0.00  0.00    +0.030 A 
ATOM     26  C   LIG    1       -4.723  13.133   0.376  0.00  0.00    +0.040 A 
ATOM     27  C   LIG    1       -3.356  12.967   0.485  0.00  0.00    +0.020 A 
ENDBRANCH  21  22
ENDBRANCH  16  17
ENDBRANCH  15  16
ENDBRANCH   2  15
TORSDOF 6
