REMARK  Name = ZINCkj00000dDW05.0
REMARK                            x       y       z     vdW  Elec       q    Type
REMARK                         _______ _______ _______ _____ _____    ______ ____
ROOT
ATOM      1  N   LIG    1        1.433  -4.190  -0.212  0.00  0.00    -0.490 N 
ATOM      2  H   LIG    1        0.706  -4.549  -0.812  0.00  0.00    +0.430 HD
ATOM      3  H   LIG    1        1.043  -3.500   0.413  0.00  0.00    +0.440 HD
ENDROOT
BRANCH   1   4
ATOM      4  C   LIG    1        2.483  -3.570  -1.032  0.00  0.00    +0.150 C 
ATOM      5  C   LIG    1        2.946  -4.562  -2.101  0.00  0.00    +0.110 C 
BRANCH   4   6
ATOM      6  C   LIG    1        1.928  -2.314  -1.707  0.00  0.00    +0.380 C 
BRANCH   6  10
ATOM      7  C   LIG    1        1.745   1.961   0.901  0.00  0.00    +0.130 C 
ATOM      8  C   LIG    1        1.511   0.541   0.454  0.00  0.00    -0.220 A 
ATOM      9  C   LIG    1        2.047  -0.047  -0.640  0.00  0.00    +0.260 A 
ATOM     10  N   LIG    1        1.595  -1.318  -0.686  0.00  0.00    -0.400 N 
ATOM     11  N   LIG    1        0.746  -1.514   0.411  0.00  0.00    -0.350 NA
ATOM     12  C   LIG    1        0.697  -0.399   1.094  0.00  0.00    +0.300 A 
ENDBRANCH   6  10
ENDBRANCH   4   6
ENDBRANCH   1   4
BRANCH   1  13
ATOM     13  C   LIG    1        2.010  -5.290   0.572  0.00  0.00    +0.220 C 
BRANCH  13  14
ATOM     14  C   LIG    1        1.010  -5.752   1.600  0.00  0.00    -0.150 A 
ATOM     15  C   LIG    1       -0.330  -5.837   1.272  0.00  0.00    +0.020 A 
ATOM     16  C   LIG    1       -1.247  -6.265   2.213  0.00  0.00    +0.040 A 
ATOM     17  C   LIG    1       -0.825  -6.600   3.487  0.00  0.00    +0.060 A 
ATOM     18  C   LIG    1        0.514  -6.510   3.817  0.00  0.00    +0.030 A 
ATOM     19  C   LIG    1        1.431  -6.086   2.874  0.00  0.00    +0.050 A 
ENDBRANCH  13  14
BRANCH  13  20
ATOM     20  C   LIG    1        2.352  -6.435  -0.346  0.00  0.00    +0.520 C 
ATOM     21  O   LIG    1        1.641  -6.684  -1.296  0.00  0.00    -0.520 OA
ATOM     22  N   LIG    1        3.449  -7.183  -0.111  0.00  0.00    -0.830 N 
ATOM     23  H   LIG    1        3.669  -7.920  -0.702  0.00  0.00    +0.420 HD
ATOM     24  H   LIG    1        4.018  -6.983   0.649  0.00  0.00    +0.410 HD
ENDBRANCH  13  20
ENDBRANCH   1  13
TORSDOF 6
