REMARK  Name = ZINCbw0000001N99.0
REMARK                            x       y       z     vdW  Elec       q    Type
REMARK                         _______ _______ _______ _____ _____    ______ ____
ROOT
ATOM      1  C   LIG    1        3.670   2.011  -0.023  0.00  0.00    +0.130 A 
ATOM      2  C   LIG    1        2.388   1.451  -0.013  0.00  0.00    -0.240 A 
ATOM      3  C   LIG    1        1.131   2.112   0.003  0.00  0.00    +0.140 A 
ATOM      4  C   LIG    1       -0.017   1.392   0.010  0.00  0.00    -0.130 A 
ATOM      5  C   LIG    1        0.002  -0.004   0.002  0.00  0.00    +0.090 A 
ATOM      6  C   LIG    1        1.163  -0.697  -0.013  0.00  0.00    +0.030 A 
ATOM      7 BR   LIG    1       -1.678   2.296   0.022  0.00  0.00    -0.050 Br
ATOM      8  C   LIG    1        2.412  -0.007  -0.022  0.00  0.00    +0.190 A 
ATOM      9  N   LIG    1        3.626  -0.538  -0.036  0.00  0.00    -0.510 NA
ATOM     10  S   LIG    1        4.774   0.699  -0.041  0.00  0.00    +0.320 S 
ENDROOT
BRANCH   1  11
ATOM     11  N   LIG    1        3.985   3.361  -0.019  0.00  0.00    -0.800 N 
ATOM     12  H   LIG    1        3.278   4.024  -0.009  0.00  0.00    +0.410 HD
ATOM     13  H   LIG    1        4.914   3.642  -0.027  0.00  0.00    +0.420 HD
ENDBRANCH   1  11
TORSDOF 1
