REMARK  Name = ZINCpe00000bcWo5.0
REMARK                            x       y       z     vdW  Elec       q    Type
REMARK                         _______ _______ _______ _____ _____    ______ ____
ROOT
ATOM      1  C   LIG    1        4.840   6.035   3.657  0.00  0.00    -0.080 A 
ATOM      2  C   LIG    1        4.663   4.718   3.270  0.00  0.00    +0.030 A 
ATOM      3  C   LIG    1        3.401   4.248   2.970  0.00  0.00    +0.080 A 
ATOM      4  C   LIG    1        2.302   5.104   3.058  0.00  0.00    -0.120 A 
ATOM      5  C   LIG    1        2.488   6.432   3.445  0.00  0.00    +0.040 A 
ATOM      6  C   LIG    1        3.755   6.888   3.746  0.00  0.00    +0.030 A 
ENDROOT
BRANCH   4   7
ATOM      7  C   LIG    1        0.947   4.607   2.738  0.00  0.00    +0.570 C 
ATOM      8  N   LIG    1        0.046   5.429   2.164  0.00  0.00    -0.600 N 
ATOM      9  C   LIG    1        0.424   6.784   1.730  0.00  0.00    +0.240 C 
ATOM     10  C   LIG    1       -0.593   7.777   2.304  0.00  0.00    +0.210 C 
ATOM     11  O   LIG    1       -1.913   7.348   1.964  0.00  0.00    -0.370 OA
ATOM     12  C   LIG    1       -2.276   6.080   2.516  0.00  0.00    +0.220 C 
ATOM     13  C   LIG    1       -1.346   4.999   1.953  0.00  0.00    +0.220 C 
ATOM     14  O   LIG    1        0.645   3.458   2.992  0.00  0.00    -0.530 OA
BRANCH  13  15
ATOM     15  C   LIG    1       -1.592   3.676   2.681  0.00  0.00    +0.110 C 
BRANCH  15  16
ATOM     16  C   LIG    1       -1.026   2.542   1.866  0.00  0.00    +0.500 C 
ATOM     17  O   LIG    1       -0.482   2.768   0.812  0.00  0.00    -0.530 OA
BRANCH  16  18
ATOM     18  O   LIG    1       -1.127   1.280   2.312  0.00  0.00    -0.360 OA
ATOM     19  C   LIG    1       -0.560   0.237   1.476  0.00  0.00    +0.260 C 
ENDBRANCH  16  18
ENDBRANCH  15  16
ENDBRANCH  13  15
ENDBRANCH   4   7
BRANCH   1  20
ATOM     20  C   LIG    1        6.221   6.541   3.983  0.00  0.00    +0.320 C 
BRANCH  20  22
ATOM     21  C   LIG    1        8.094   7.579   2.820  0.00  0.00    +0.540 C 
ATOM     22  N   LIG    1        6.847   7.069   2.768  0.00  0.00    -0.720 N 
ATOM     23  H   LIG    1        6.365   7.052   1.927  0.00  0.00    +0.400 HD
ATOM     24  O   LIG    1        8.699   7.601   3.874  0.00  0.00    -0.540 OA
BRANCH  21  26
ATOM     25  C   LIG    1        9.952   8.613   1.651  0.00  0.00    +0.150 C 
ATOM     26  C   LIG    1        8.722   8.110   1.600  0.00  0.00    -0.090 C 
ENDBRANCH  21  26
ENDBRANCH  20  22
ENDBRANCH   1  20
TORSDOF 7
