REMARK  Name = ZINCpe000000UwLp.0
REMARK                            x       y       z     vdW  Elec       q    Type
REMARK                         _______ _______ _______ _____ _____    ______ ____
ROOT
ATOM      1  C   LIG    1        0.840   3.913  -1.452  0.00  0.00    +0.570 C 
ATOM      2  N   LIG    1        1.456   2.743  -1.188  0.00  0.00    -0.720 N 
ATOM      3  H   LIG    1        2.010   2.323  -1.864  0.00  0.00    +0.400 HD
ATOM      4  O   LIG    1        0.146   4.439  -0.604  0.00  0.00    -0.510 OA
ENDROOT
BRANCH   2   5
ATOM      5  C   LIG    1        1.288   2.106   0.121  0.00  0.00    +0.280 C 
ATOM      6  C   LIG    1        2.497   1.213   0.410  0.00  0.00    +0.040 C 
ATOM      7  C   LIG    1        2.426  -0.012  -0.509  0.00  0.00    +0.030 C 
ATOM      8  C   LIG    1        1.228  -0.867  -0.096  0.00  0.00    +0.270 C 
ATOM      9  N   LIG    1        0.026  -0.048  -0.002  0.00  0.00    -0.540 N 
ATOM     10  C   LIG    1        0.033   1.280   0.117  0.00  0.00    +0.500 C 
ATOM     11  O   LIG    1       -1.031   1.853   0.222  0.00  0.00    -0.500 OA
BRANCH   9  12
ATOM     12  C   LIG    1       -1.210  -0.694  -0.040  0.00  0.00    +0.290 A 
ATOM     13  C   LIG    1       -1.905  -1.163   1.033  0.00  0.00    -0.100 A 
ATOM     14  C   LIG    1       -3.087  -1.738   0.558  0.00  0.00    +0.240 A 
ATOM     15  N   LIG    1       -3.106  -1.623  -0.745  0.00  0.00    -0.280 NA
ATOM     16  N   LIG    1       -1.938  -0.963  -1.147  0.00  0.00    -0.370 N 
ATOM     17  C   LIG    1       -1.568  -0.627  -2.525  0.00  0.00    +0.350 C 
ENDBRANCH   9  12
ENDBRANCH   2   5
BRANCH   1  21
ATOM     18  C   LIG    1        1.366   5.681  -5.221  0.00  0.00    +0.420 A 
ATOM     19  C   LIG    1        0.559   6.332  -4.290  0.00  0.00    -0.100 A 
ATOM     20  C   LIG    1        0.369   5.769  -3.057  0.00  0.00    +0.180 A 
ATOM     21  C   LIG    1        1.009   4.554  -2.769  0.00  0.00    -0.260 A 
ATOM     22  C   LIG    1        1.804   3.958  -3.750  0.00  0.00    +0.340 A 
ATOM     23  N   LIG    1        1.956   4.530  -4.926  0.00  0.00    -0.550 NA
BRANCH  18  25
ATOM     24  C   LIG    1        1.000   7.566  -6.772  0.00  0.00    +0.290 C 
ATOM     25  N   LIG    1        1.555   6.244  -6.472  0.00  0.00    -0.610 N 
ATOM     26  C   LIG    1        2.311   5.518  -7.495  0.00  0.00    +0.290 C 
ENDBRANCH  18  25
ENDBRANCH   1  21
TORSDOF 4
