REMARK  Name = ZINCvU0000000GrX.0
REMARK                            x       y       z     vdW  Elec       q    Type
REMARK                         _______ _______ _______ _____ _____    ______ ____
ROOT
ATOM      1  C   LIG    1        0.406  12.193   0.058  0.00  0.00    -0.090 C 
ATOM      2  C   LIG    1        1.521  11.432   0.044  0.00  0.00    +0.130 C 
ENDROOT
BRANCH   1   8
ATOM      3  C   LIG    1       -0.632  15.881   0.084  0.00  0.00    +0.260 C 
ATOM      4  C   LIG    1       -2.116  16.304   0.071  0.00  0.00    +0.050 C 
ATOM      5  C   LIG    1       -2.829  15.056  -0.513  0.00  0.00    +0.040 C 
ATOM      6  C   LIG    1       -1.982  13.905   0.081  0.00  0.00    +0.250 C 
ATOM      7  N   LIG    1       -0.598  14.411   0.077  0.00  0.00    -0.610 N 
ATOM      8  C   LIG    1        0.516  13.651   0.063  0.00  0.00    +0.560 C 
ATOM      9  O   LIG    1        1.613  14.179   0.055  0.00  0.00    -0.530 OA
BRANCH   3  13
ATOM     10  C   LIG    1        1.273  17.363   3.610  0.00  0.00    +0.130 A 
ATOM     11  C   LIG    1        1.443  18.020   2.400  0.00  0.00    -0.020 A 
ATOM     12  C   LIG    1        0.826  17.538   1.261  0.00  0.00    +0.070 A 
ATOM     13  C   LIG    1        0.040  16.403   1.327  0.00  0.00    -0.120 A 
ATOM     14  C   LIG    1       -0.137  15.750   2.533  0.00  0.00    +0.060 A 
ATOM     15  C   LIG    1        0.483  16.224   3.673  0.00  0.00    -0.080 A 
BRANCH  10  17
ATOM     16  C   LIG    1        1.659  17.108   5.942  0.00  0.00    +0.240 C 
ATOM     17  O   LIG    1        1.879  17.834   4.731  0.00  0.00    -0.320 OA
ENDBRANCH  10  17
ENDBRANCH   3  13
ENDBRANCH   1   8
BRANCH   2  18
ATOM     18  C   LIG    1        1.411   9.966   0.038  0.00  0.00    -0.120 A 
ATOM     19  C   LIG    1        2.566   9.175   0.024  0.00  0.00    +0.090 A 
ATOM     20  C   LIG    1        2.457   7.803   0.019  0.00  0.00    -0.010 A 
ATOM     21  C   LIG    1        1.203   7.203   0.027  0.00  0.00    +0.150 A 
ATOM     22  C   LIG    1        0.053   7.984   0.036  0.00  0.00    -0.080 A 
ATOM     23  C   LIG    1        0.151   9.357   0.047  0.00  0.00    +0.070 A 
BRANCH  21  24
ATOM     24  O   LIG    1        1.102   5.849   0.022  0.00  0.00    -0.310 OA
BRANCH  24  25
ATOM     25  C   LIG    1       -0.217   5.298   0.031  0.00  0.00    +0.290 C 
BRANCH  25  26
ATOM     26  C   LIG    1       -0.132   3.793   0.023  0.00  0.00    +0.120 A 
ATOM     27  C   LIG    1        1.106   3.179   0.008  0.00  0.00    -0.010 A 
ATOM     28  C   LIG    1        1.173   1.794   0.001  0.00  0.00    +0.070 A 
ATOM     29  C   LIG    1       -0.013   1.076   0.008  0.00  0.00    -0.030 A 
ATOM     30  C   LIG    1       -1.214   1.759   0.017  0.00  0.00    +0.270 A 
ATOM     31  N   LIG    1       -1.240   3.078   0.029  0.00  0.00    -0.480 NA
ENDBRANCH  25  26
ENDBRANCH  24  25
ENDBRANCH  21  24
ENDBRANCH   2  18
TORSDOF 7
