REMARK  Name = ZINCpk00000y6wo6.0
REMARK                            x       y       z     vdW  Elec       q    Type
REMARK                         _______ _______ _______ _____ _____    ______ ____
ROOT
ATOM      1  N   LIG    1        1.974   2.113   1.360  0.00  0.00    -0.690 N 
ATOM      2  H   LIG    1        2.403   1.383   1.835  0.00  0.00    +0.410 HD
ENDROOT
BRANCH   1   6
ATOM      3  C   LIG    1        0.442   6.643   1.137  0.00  0.00    +0.180 C 
ATOM      4  C   LIG    1        1.113   5.537   1.910  0.00  0.00    +0.410 A 
ATOM      5  N   LIG    1        1.254   4.356   1.333  0.00  0.00    -0.600 NA
ATOM      6  C   LIG    1        1.834   3.345   1.969  0.00  0.00    +0.520 A 
ATOM      7  C   LIG    1        2.307   3.560   3.278  0.00  0.00    -0.340 A 
ATOM      8  C   LIG    1        2.960   2.762   4.242  0.00  0.00    +0.300 A 
ATOM      9  N   LIG    1        3.170   3.486   5.304  0.00  0.00    -0.250 NA
ATOM     10  N   LIG    1        2.673   4.779   5.099  0.00  0.00    -0.380 N 
ATOM     11  C   LIG    1        2.722   5.881   6.064  0.00  0.00    +0.370 C 
ATOM     12  C   LIG    1        2.137   4.837   3.847  0.00  0.00    +0.370 A 
ATOM     13  N   LIG    1        1.538   5.786   3.129  0.00  0.00    -0.570 NA
ENDBRANCH   1   6
BRANCH   1  14
ATOM     14  C   LIG    1        1.475   1.908  -0.002  0.00  0.00    +0.280 C 
ATOM     15  C   LIG    1       -0.018   1.509   0.010  0.00  0.00    +0.060 C 
ATOM     16  C   LIG    1        0.002  -0.004   0.002  0.00  0.00    +0.520 C 
ATOM     17  N   LIG    1        1.217  -0.448  -0.365  0.00  0.00    -0.620 N 
ATOM     18  C   LIG    1        1.583  -1.863  -0.469  0.00  0.00    +0.300 C 
ATOM     19  O   LIG    1       -0.940  -0.713   0.285  0.00  0.00    -0.520 OA
ATOM     20  C   LIG    1        2.128   0.667  -0.649  0.00  0.00    +0.280 C 
BRANCH  20  21
ATOM     21  C   LIG    1        2.263   0.864  -2.137  0.00  0.00    -0.160 A 
ATOM     22  C   LIG    1        3.488   1.200  -2.692  0.00  0.00    +0.080 A 
ATOM     23  C   LIG    1        3.566   1.366  -4.067  0.00  0.00    -0.030 A 
ATOM     24  C   LIG    1        2.426   1.205  -4.830  0.00  0.00    +0.270 A 
ATOM     25  N   LIG    1        1.276   0.890  -4.267  0.00  0.00    -0.480 NA
ATOM     26  C   LIG    1        1.165   0.718  -2.965  0.00  0.00    +0.270 A 
ENDBRANCH  20  21
ENDBRANCH   1  14
TORSDOF 3
