REMARK  Name = ZINCpk00000kfpcv.0
REMARK                            x       y       z     vdW  Elec       q    Type
REMARK                         _______ _______ _______ _____ _____    ______ ____
ROOT
ATOM      1  C   LIG    1       -0.078   2.261  -2.138  0.00  0.00    +0.500 C 
ATOM      2  N   LIG    1       -0.729   1.575  -1.178  0.00  0.00    -0.610 N 
ATOM      3  C   LIG    1       -0.013   1.086   0.008  0.00  0.00    +0.280 C 
ATOM      4  C   LIG    1       -0.736   1.583   1.264  0.00  0.00    +0.030 C 
ATOM      5  C   LIG    1       -2.208   1.161   1.197  0.00  0.00    +0.070 C 
ATOM      6  C   LIG    1       -2.869   1.797  -0.028  0.00  0.00    +0.030 C 
ATOM      7  C   LIG    1       -2.168   1.303  -1.297  0.00  0.00    +0.280 C 
ATOM      8  O   LIG    1        1.110   2.480  -2.029  0.00  0.00    -0.520 OA
ENDROOT
BRANCH   5   9
ATOM      9  C   LIG    1       -2.918   1.619   2.445  0.00  0.00    +0.100 A 
ATOM     10  C   LIG    1       -3.125   0.882   3.561  0.00  0.00    -0.120 A 
ATOM     11  C   LIG    1       -3.817   1.677   4.480  0.00  0.00    +0.080 A 
ATOM     12  N   LIG    1       -4.018   2.850   3.935  0.00  0.00    -0.290 NA
ATOM     13  C   LIG    1       -4.255   1.257   5.859  0.00  0.00    +0.150 C 
ATOM     14  N   LIG    1       -3.455   2.839   2.652  0.00  0.00    -0.470 N 
ATOM     15  H   LIG    1       -3.454   3.578   2.024  0.00  0.00    +0.440 HD
ENDBRANCH   5   9
BRANCH   1  16
ATOM     16  C   LIG    1       -0.827   2.757  -3.349  0.00  0.00    +0.310 C 
BRANCH  16  22
ATOM     17  C   LIG    1        1.709   3.520  -6.109  0.00  0.00    +0.180 C 
ATOM     18  C   LIG    1        2.954   3.904  -5.305  0.00  0.00    +0.050 C 
ATOM     19  C   LIG    1        2.740   5.219  -4.578  0.00  0.00    +0.020 C 
ATOM     20  C   LIG    1        1.692   5.151  -3.483  0.00  0.00    +0.010 C 
ATOM     21  C   LIG    1        0.296   4.917  -4.077  0.00  0.00    +0.290 C 
ATOM     22  N   LIG    1        0.097   3.467  -4.237  0.00  0.00    -0.580 N 
ATOM     23  C   LIG    1        0.748   2.797  -5.189  0.00  0.00    +0.510 C 
ATOM     24  O   LIG    1        0.569   1.604  -5.319  0.00  0.00    -0.540 OA
BRANCH  17  26
ATOM     25  C   LIG    1        0.377   4.496  -7.846  0.00  0.00    +0.200 C 
ATOM     26  O   LIG    1        1.087   4.699  -6.622  0.00  0.00    -0.370 OA
ENDBRANCH  17  26
ENDBRANCH  16  22
ENDBRANCH   1  16
TORSDOF 4
