REMARK  Name = ZINCpk00000kfpcv.1
REMARK                            x       y       z     vdW  Elec       q    Type
REMARK                         _______ _______ _______ _____ _____    ______ ____
ROOT
ATOM      1  C   LIG    1        1.365   2.303   8.136  0.00  0.00    +0.500 C 
ATOM      2  N   LIG    1        0.417   2.635   7.238  0.00  0.00    -0.610 N 
ATOM      3  C   LIG    1       -0.807   1.833   7.110  0.00  0.00    +0.280 C 
ATOM      4  C   LIG    1       -0.974   1.418   5.645  0.00  0.00    +0.030 C 
ATOM      5  C   LIG    1       -0.944   2.666   4.759  0.00  0.00    +0.080 C 
ATOM      6  C   LIG    1        0.406   3.369   4.911  0.00  0.00    +0.030 C 
ATOM      7  C   LIG    1        0.588   3.807   6.368  0.00  0.00    +0.280 C 
ATOM      8  O   LIG    1        1.212   1.334   8.849  0.00  0.00    -0.530 OA
ENDROOT
BRANCH   5   9
ATOM      9  C   LIG    1       -1.142   2.264   3.320  0.00  0.00    +0.090 A 
ATOM     10  N   LIG    1       -2.281   2.253   2.676  0.00  0.00    -0.290 NA
ATOM     11  N   LIG    1       -2.039   1.824   1.365  0.00  0.00    -0.480 N 
ATOM     12  H   LIG    1       -2.703   1.724   0.665  0.00  0.00    +0.440 HD
ATOM     13  C   LIG    1       -0.718   1.572   1.248  0.00  0.00    +0.090 A 
ATOM     14  C   LIG    1       -0.013   1.086   0.008  0.00  0.00    +0.140 C 
ATOM     15  C   LIG    1       -0.140   1.839   2.442  0.00  0.00    -0.120 A 
ENDBRANCH   5   9
BRANCH   1  16
ATOM     16  C   LIG    1        2.615   3.136   8.256  0.00  0.00    +0.310 C 
BRANCH  16  22
ATOM     17  C   LIG    1        5.286   1.059  10.039  0.00  0.00    +0.180 C 
ATOM     18  C   LIG    1        4.441   0.142  10.927  0.00  0.00    +0.050 C 
ATOM     19  C   LIG    1        3.752   0.938  12.020  0.00  0.00    +0.020 C 
ATOM     20  C   LIG    1        2.699   1.902  11.506  0.00  0.00    +0.010 C 
ATOM     21  C   LIG    1        3.344   3.030  10.687  0.00  0.00    +0.290 C 
ATOM     22  N   LIG    1        3.481   2.573   9.295  0.00  0.00    -0.580 N 
ATOM     23  C   LIG    1        4.391   1.653   8.972  0.00  0.00    +0.510 C 
ATOM     24  O   LIG    1        4.502   1.291   7.820  0.00  0.00    -0.540 OA
BRANCH  17  26
ATOM     25  C   LIG    1        7.100   2.598  10.331  0.00  0.00    +0.200 C 
ATOM     26  O   LIG    1        5.853   2.107  10.827  0.00  0.00    -0.370 OA
ENDBRANCH  17  26
ENDBRANCH  16  22
ENDBRANCH   1  16
TORSDOF 4
