REMARK  Name = ZINCvU00000005QU.0
REMARK                            x       y       z     vdW  Elec       q    Type
REMARK                         _______ _______ _______ _____ _____    ______ ____
ROOT
ATOM      1  C   LIG    1       -2.487   1.217   4.349  0.00  0.00    +0.130 C 
ATOM      2  C   LIG    1       -3.465   0.290   4.297  0.00  0.00    +0.070 C 
ENDROOT
BRANCH   2   3
ATOM      3  C   LIG    1       -4.153  -0.117   5.523  0.00  0.00    +0.290 A 
ATOM      4  N   LIG    1       -5.116  -1.008   5.587  0.00  0.00    -0.470 NA
ATOM      5  C   LIG    1       -5.512  -1.129   6.880  0.00  0.00    +0.030 A 
ATOM      6  C   LIG    1       -6.476  -1.909   7.520  0.00  0.00    +0.090 A 
ATOM      7  C   LIG    1       -6.644  -1.802   8.894  0.00  0.00    -0.040 A 
ATOM      8  C   LIG    1       -5.853  -0.916   9.631  0.00  0.00    +0.070 A 
ATOM      9  C   LIG    1       -4.901  -0.145   9.002  0.00  0.00    +0.050 A 
ATOM     10  C   LIG    1       -4.722  -0.242   7.631  0.00  0.00    +0.010 A 
ATOM     11  O   LIG    1       -3.888   0.363   6.755  0.00  0.00    -0.210 OA
BRANCH   7  12
ATOM     12  C   LIG    1       -7.667  -2.628   9.582  0.00  0.00    -0.050 A 
ATOM     13  C   LIG    1       -8.463  -3.508   8.850  0.00  0.00    +0.020 A 
ATOM     14  C   LIG    1       -9.409  -4.278   9.495  0.00  0.00    +0.010 A 
ATOM     15  C   LIG    1       -9.576  -4.170  10.864  0.00  0.00    +0.000 A 
ATOM     16  C   LIG    1       -8.793  -3.295  11.594  0.00  0.00    +0.010 A 
ATOM     17  C   LIG    1       -7.840  -2.524  10.960  0.00  0.00    +0.020 A 
ENDBRANCH   7  12
ENDBRANCH   2   3
BRANCH   1  24
ATOM     18  C   LIG    1       -2.014   4.204   3.392  0.00  0.00    +0.170 C 
ATOM     19  C   LIG    1       -1.577   2.951   2.677  0.00  0.00    +0.120 A 
ATOM     20  N   LIG    1       -0.931   2.902   1.544  0.00  0.00    -0.270 NA
ATOM     21  N   LIG    1       -0.707   1.562   1.207  0.00  0.00    -0.350 N 
ATOM     22  C   LIG    1       -1.242   0.785   2.168  0.00  0.00    +0.140 A 
ATOM     23 CL   LIG    1       -1.234  -0.950   2.210  0.00  0.00    +0.020 Cl
ATOM     24  C   LIG    1       -1.795   1.626   3.116  0.00  0.00    -0.200 A 
BRANCH  21  25
ATOM     25  C   LIG    1       -0.013   1.086   0.008  0.00  0.00    +0.300 C 
ATOM     26  C   LIG    1        1.429   1.623  -0.003  0.00  0.00    +0.090 C 
ATOM     27  C   LIG    1        1.986   1.371  -1.428  0.00  0.00    -0.290 C 
ATOM     28  S   LIG    1        0.574   1.842  -2.497  0.00  0.00    +2.400 S 
ATOM     29  O   LIG    1        0.424   0.880  -3.531  0.00  0.00    -0.920 OA
ATOM     30  O   LIG    1        0.668   3.223  -2.820  0.00  0.00    -0.920 OA
ATOM     31  C   LIG    1       -0.742   1.601  -1.249  0.00  0.00    -0.310 C 
ENDBRANCH  21  25
ENDBRANCH   1  24
TORSDOF 4
