REMARK  Name = ZINCkj00000zufAf.1
REMARK                            x       y       z     vdW  Elec       q    Type
REMARK                         _______ _______ _______ _____ _____    ______ ____
ROOT
ATOM      1  C   LIG    1       -4.299   0.447   2.435  0.00  0.00    +0.170 C 
ATOM      2  C   LIG    1       -2.813   0.613   2.107  0.00  0.00    +0.200 C 
ATOM      3  N   LIG    1       -2.016   0.337   3.311  0.00  0.00    -0.530 NA
ATOM      4  C   LIG    1       -2.273  -1.022   3.807  0.00  0.00    +0.220 C 
ATOM      5  C   LIG    1       -3.763  -1.175   4.120  0.00  0.00    +0.270 C 
ATOM      6  N   LIG    1       -4.547  -0.922   2.904  0.00  0.00    -0.380 N 
ATOM      7  H   LIG    1       -4.276  -1.578   2.187  0.00  0.00    +0.430 HD
ENDROOT
BRANCH   1   9
ATOM      8  C   LIG    1       -4.570   2.868   2.991  0.00  0.00    +0.060 C 
ATOM      9  C   LIG    1       -4.694   1.441   3.529  0.00  0.00    +0.040 C 
ENDBRANCH   1   9
BRANCH   3  10
ATOM     10  C   LIG    1       -0.585   0.542   3.052  0.00  0.00    +0.230 C 
BRANCH  10  11
ATOM     11  C   LIG    1       -0.369   1.931   2.449  0.00  0.00    +0.190 C 
BRANCH  11  12
ATOM     12  O   LIG    1       -0.756   2.927   3.397  0.00  0.00    -0.360 OA
BRANCH  12  13
ATOM     13  C   LIG    1       -0.593   4.268   2.931  0.00  0.00    +0.210 C 
BRANCH  13  14
ATOM     14  C   LIG    1       -1.035   5.245   4.022  0.00  0.00    +0.460 C 
ATOM     15  F   LIG    1       -2.381   5.020   4.332  0.00  0.00    -0.180 F 
ATOM     16  F   LIG    1       -0.876   6.558   3.565  0.00  0.00    -0.170 F 
ATOM     17  F   LIG    1       -0.254   5.051   5.166  0.00  0.00    -0.170 F 
ENDBRANCH  13  14
ENDBRANCH  12  13
ENDBRANCH  11  12
ENDBRANCH  10  11
ENDBRANCH   3  10
BRANCH   6  18
ATOM     18  C   LIG    1       -5.976  -1.087   3.201  0.00  0.00    +0.280 C 
BRANCH  18  19
ATOM     19  C   LIG    1       -6.783  -0.966   1.907  0.00  0.00    +0.160 C 
ATOM     20  C   LIG    1       -8.276  -1.078   2.224  0.00  0.00    +0.050 C 
BRANCH  19  21
ATOM     21  O   LIG    1       -6.406  -2.013   1.010  0.00  0.00    -0.580 OA
ATOM     22  H   LIG    1       -6.879  -1.998   0.167  0.00  0.00    +0.410 HD
ENDBRANCH  19  21
ENDBRANCH  18  19
ENDBRANCH   6  18
TORSDOF 9
