REMARK  Name = ZINCkj00000zufAf.0
REMARK                            x       y       z     vdW  Elec       q    Type
REMARK                         _______ _______ _______ _____ _____    ______ ____
ROOT
ATOM      1  C   LIG    1        0.104  -0.010  -0.070  0.00  0.00    +0.180 C 
ATOM      2  C   LIG    1        0.117   1.517   0.020  0.00  0.00    +0.220 C 
ATOM      3  N   LIG    1        1.506   1.988   0.107  0.00  0.00    -0.530 NA
ATOM      4  C   LIG    1        2.180   1.410   1.278  0.00  0.00    +0.210 C 
ATOM      5  C   LIG    1        2.151  -0.116   1.178  0.00  0.00    +0.260 C 
ATOM      6  N   LIG    1        0.757  -0.576   1.118  0.00  0.00    -0.380 N 
ATOM      7  H   LIG    1        0.267  -0.274   1.947  0.00  0.00    +0.430 HD
ENDROOT
BRANCH   1   9
ATOM      8  C   LIG    1       -1.995   0.012  -1.425  0.00  0.00    +0.060 C 
ATOM      9  C   LIG    1       -1.342  -0.505  -0.141  0.00  0.00    +0.030 C 
ENDBRANCH   1   9
BRANCH   3  10
ATOM     10  C   LIG    1        1.563   3.456   0.138  0.00  0.00    +0.230 C 
BRANCH  10  11
ATOM     11  C   LIG    1        2.986   3.904   0.478  0.00  0.00    +0.180 C 
BRANCH  11  12
ATOM     12  O   LIG    1        3.873   3.513  -0.572  0.00  0.00    -0.360 OA
BRANCH  12  13
ATOM     13  C   LIG    1        5.234   3.885  -0.352  0.00  0.00    +0.220 C 
BRANCH  13  14
ATOM     14  C   LIG    1        6.088   3.419  -1.534  0.00  0.00    +0.460 C 
ATOM     15  F   LIG    1        5.998   2.028  -1.653  0.00  0.00    -0.180 F 
ATOM     16  F   LIG    1        7.421   3.783  -1.318  0.00  0.00    -0.170 F 
ATOM     17  F   LIG    1        5.624   4.019  -2.709  0.00  0.00    -0.170 F 
ENDBRANCH  13  14
ENDBRANCH  12  13
ENDBRANCH  11  12
ENDBRANCH  10  11
ENDBRANCH   3  10
BRANCH   6  18
ATOM     18  C   LIG    1        0.728  -2.043   1.040  0.00  0.00    +0.270 C 
BRANCH  18  19
ATOM     19  C   LIG    1        1.285  -2.633   2.337  0.00  0.00    +0.160 C 
ATOM     20  C   LIG    1        1.372  -4.155   2.208  0.00  0.00    +0.050 C 
BRANCH  19  21
ATOM     21  O   LIG    1        0.421  -2.296   3.424  0.00  0.00    -0.570 OA
ATOM     22  H   LIG    1        0.713  -2.638   4.280  0.00  0.00    +0.410 HD
ENDBRANCH  19  21
ENDBRANCH  18  19
ENDBRANCH   6  18
TORSDOF 9
