REMARK  Name = ZINCpe000000Wo3O.0
REMARK                            x       y       z     vdW  Elec       q    Type
REMARK                         _______ _______ _______ _____ _____    ______ ____
ROOT
ATOM      1  C   LIG    1        0.505  -0.023  -3.282  0.00  0.00    +0.230 A 
ATOM      2  C   LIG    1        1.301  -0.221  -4.401  0.00  0.00    -0.080 A 
ATOM      3  C   LIG    1        1.687  -1.499  -4.755  0.00  0.00    +0.120 A 
ATOM      4  C   LIG    1        1.285  -2.580  -3.994  0.00  0.00    -0.120 A 
ATOM      5  C   LIG    1        0.495  -2.386  -2.875  0.00  0.00    +0.180 A 
ATOM      6  C   LIG    1        0.107  -1.110  -2.516  0.00  0.00    -0.710 A 
ENDROOT
BRANCH   6   7
ATOM      7  S   LIG    1       -0.899  -0.863  -1.091  0.00  0.00    +2.700 S 
ATOM      8  O   LIG    1       -1.962  -0.010  -1.492  0.00  0.00    -0.940 OA
ATOM      9  O   LIG    1       -1.106  -2.147  -0.518  0.00  0.00    -0.960 OA
BRANCH   7  10
ATOM     10  N   LIG    1        0.002  -0.004   0.002  0.00  0.00    -1.000 NA
ATOM     11  C   LIG    1       -0.018   1.467   0.010  0.00  0.00    +0.280 C 
ATOM     12  C   LIG    1        1.430   1.970  -0.001  0.00  0.00    +0.210 C 
ATOM     13  O   LIG    1        2.156   1.340   1.057  0.00  0.00    -0.380 OA
ATOM     14  C   LIG    1        2.252  -0.082   0.934  0.00  0.00    +0.210 C 
ATOM     15  C   LIG    1        0.847  -0.690   0.993  0.00  0.00    +0.280 C 
ENDBRANCH   7  10
ENDBRANCH   6   7
BRANCH   1  17
ATOM     16  C   LIG    1        0.566   2.303  -3.768  0.00  0.00    +0.250 C 
ATOM     17  O   LIG    1        0.119   1.232  -2.934  0.00  0.00    -0.310 OA
ENDBRANCH   1  17
BRANCH   4  18
ATOM     18  C   LIG    1        1.707  -3.974  -4.384  0.00  0.00    +0.130 C 
BRANCH  18  19
ATOM     19  C   LIG    1        0.681  -4.567  -5.314  0.00  0.00    +0.530 C 
ATOM     20  N   LIG    1        0.849  -5.814  -5.796  0.00  0.00    -0.620 N 
ATOM     21  C   LIG    1        1.985  -6.700  -5.502  0.00  0.00    +0.240 C 
ATOM     22  C   LIG    1        1.762  -8.009  -6.289  0.00  0.00    +0.030 C 
ATOM     23  C   LIG    1        0.808  -7.567  -7.430  0.00  0.00    +0.040 C 
ATOM     24  C   LIG    1       -0.071  -6.514  -6.710  0.00  0.00    +0.250 C 
ATOM     25  O   LIG    1       -0.297  -3.922  -5.630  0.00  0.00    -0.530 OA
ENDBRANCH  18  19
ENDBRANCH   4  18
TORSDOF 5
