REMARK  Name = ZINCrH00000tj1jl.0
REMARK                            x       y       z     vdW  Elec       q    Type
REMARK                         _______ _______ _______ _____ _____    ______ ____
ROOT
ATOM      1  N   LIG    1       -4.221  -7.519   0.004  0.00  0.00    -0.670 N 
ATOM      2  H   LIG    1       -5.138  -7.213   0.085  0.00  0.00    +0.420 HD
ATOM      3  C   LIG    1       -3.211  -6.627   0.002  0.00  0.00    +0.520 C 
ATOM      4  O   LIG    1       -2.061  -7.013  -0.016  0.00  0.00    -0.510 OA
ENDROOT
BRANCH   1   8
ATOM      5  C   LIG    1       -3.406 -11.590  -0.341  0.00  0.00    -0.140 A 
ATOM      6  C   LIG    1       -2.530 -10.757   0.360  0.00  0.00    +0.130 A 
ATOM      7  C   LIG    1       -2.800  -9.411   0.468  0.00  0.00    +0.030 A 
ATOM      8  C   LIG    1       -3.948  -8.882  -0.112  0.00  0.00    +0.210 A 
ATOM      9  C   LIG    1       -4.824  -9.709  -0.811  0.00  0.00    -0.140 A 
ATOM     10 BR   LIG    1       -6.380  -8.982  -1.603  0.00  0.00    -0.030 Br
ATOM     11  C   LIG    1       -4.557 -11.055  -0.927  0.00  0.00    +0.150 A 
BRANCH   5  12
ATOM     12  C   LIG    1       -3.117 -13.031  -0.463  0.00  0.00    +0.510 C 
ATOM     13  O   LIG    1       -3.879 -13.755  -1.073  0.00  0.00    -0.500 OA
BRANCH  12  14
ATOM     14  O   LIG    1       -2.007 -13.546   0.102  0.00  0.00    -0.350 OA
BRANCH  14  16
ATOM     15  C   LIG    1       -0.487 -15.369   0.646  0.00  0.00    +0.070 C 
ATOM     16  C   LIG    1       -1.786 -14.972  -0.058  0.00  0.00    +0.200 C 
ENDBRANCH  14  16
ENDBRANCH  12  14
ENDBRANCH   5  12
ENDBRANCH   1   8
BRANCH   3  17
ATOM     17  C   LIG    1       -3.509  -5.150   0.024  0.00  0.00    +0.080 C 
BRANCH  17  18
ATOM     18  C   LIG    1       -2.197  -4.364   0.017  0.00  0.00    +0.040 C 
BRANCH  18  19
ATOM     19  C   LIG    1       -2.500  -2.865   0.039  0.00  0.00    +0.260 C 
BRANCH  19  20
ATOM     20  N   LIG    1       -1.243  -2.112   0.033  0.00  0.00    -0.730 N 
ATOM     21  H   LIG    1       -0.395  -2.584   0.017  0.00  0.00    +0.400 HD
ATOM     22  C   LIG    1       -1.264  -0.765   0.049  0.00  0.00    +0.560 C 
ATOM     23  O   LIG    1       -2.326  -0.174   0.069  0.00  0.00    -0.530 OA
BRANCH  22  24
ATOM     24  C   LIG    1        0.004  -0.005   0.043  0.00  0.00    -0.140 A 
ATOM     25  C   LIG    1       -0.014   1.390   0.060  0.00  0.00    +0.080 A 
ATOM     26  C   LIG    1        1.173   2.093   0.055  0.00  0.00    +0.000 A 
ATOM     27  C   LIG    1        2.380   1.417   0.033  0.00  0.00    +0.040 A 
ATOM     28  C   LIG    1        2.406   0.034   0.016  0.00  0.00    +0.000 A 
ATOM     29  C   LIG    1        1.226  -0.681   0.021  0.00  0.00    +0.040 A 
ENDBRANCH  22  24
ENDBRANCH  19  20
ENDBRANCH  18  19
ENDBRANCH  17  18
ENDBRANCH   3  17
TORSDOF 9
