REMARK  Name = ZINCpe00000MJK5a.0
REMARK                            x       y       z     vdW  Elec       q    Type
REMARK                         _______ _______ _______ _____ _____    ______ ____
ROOT
ATOM      1  C   LIG    1       -2.540   3.988  -0.572  0.00  0.00    +0.250 C 
ATOM      2  C   LIG    1       -3.703   3.524   0.311  0.00  0.00    -0.010 C 
ATOM      3  C   LIG    1       -3.482   4.026   1.740  0.00  0.00    +0.220 C 
ATOM      4  O   LIG    1       -2.228   3.542   2.225  0.00  0.00    -0.370 OA
ATOM      5  C   LIG    1       -1.098   3.982   1.467  0.00  0.00    +0.220 C 
ATOM      6  C   LIG    1       -1.225   3.478   0.027  0.00  0.00    +0.210 C 
ENDROOT
BRANCH   1   8
ATOM      7  C   LIG    1       -3.466   4.104  -2.822  0.00  0.00    +0.530 C 
ATOM      8  N   LIG    1       -2.705   3.448  -1.923  0.00  0.00    -0.730 N 
ATOM      9  H   LIG    1       -2.266   2.620  -2.172  0.00  0.00    +0.400 HD
ATOM     10  O   LIG    1       -4.014   5.140  -2.512  0.00  0.00    -0.530 OA
BRANCH   7  11
ATOM     11  C   LIG    1       -3.635   3.549  -4.213  0.00  0.00    +0.140 C 
BRANCH  11  17
ATOM     12  C   LIG    1       -5.898   4.255  -5.018  0.00  0.00    +0.090 A 
ATOM     13  C   LIG    1       -6.709   5.110  -5.757  0.00  0.00    -0.020 A 
ATOM     14  C   LIG    1       -6.107   6.134  -6.471  0.00  0.00    +0.010 A 
ATOM     15  C   LIG    1       -4.733   6.274  -6.423  0.00  0.00    +0.220 A 
ATOM     16  N   LIG    1       -3.993   5.449  -5.708  0.00  0.00    -0.440 NA
ATOM     17  C   LIG    1       -4.526   4.463  -5.014  0.00  0.00    +0.120 A 
BRANCH  12  19
ATOM     18  C   LIG    1       -7.862   3.088  -4.362  0.00  0.00    +0.240 C 
ATOM     19  O   LIG    1       -6.442   3.234  -4.305  0.00  0.00    -0.310 OA
ENDBRANCH  12  19
ENDBRANCH  11  17
ENDBRANCH   7  11
ENDBRANCH   1   8
BRANCH   6  20
ATOM     20  N   LIG    1       -1.219   2.013   0.019  0.00  0.00    -0.700 N 
ATOM     21  H   LIG    1       -2.057   1.525   0.020  0.00  0.00    +0.410 HD
BRANCH  20  22
ATOM     22  C   LIG    1       -0.016   1.326   0.009  0.00  0.00    +0.440 A 
ATOM     23  C   LIG    1        1.197   2.018   0.002  0.00  0.00    -0.160 A 
ATOM     24  C   LIG    1        2.369   1.287  -0.014  0.00  0.00    +0.350 A 
ATOM     25  N   LIG    1        2.305  -0.037  -0.021  0.00  0.00    -0.560 NA
ATOM     26  C   LIG    1        1.144  -0.661  -0.012  0.00  0.00    +0.540 A 
ATOM     27  N   LIG    1        0.002  -0.004   0.002  0.00  0.00    -0.580 NA
ENDBRANCH  20  22
ENDBRANCH   6  20
TORSDOF 6
