REMARK  Name = ZINCrg00000JAidR.0
REMARK                            x       y       z     vdW  Elec       q    Type
REMARK                         _______ _______ _______ _____ _____    ______ ____
ROOT
ATOM      1  C   LIG    1        4.113   4.475  -2.513  0.00  0.00    +0.170 C 
ATOM      2  C   LIG    1        3.070   3.427  -2.045  0.00  0.00    +0.080 C 
ATOM      3  C   LIG    1        3.983   2.300  -1.502  0.00  0.00    +0.220 C 
ATOM      4  N   LIG    1        5.142   2.277  -2.413  0.00  0.00    -0.600 N 
ATOM      5  C   LIG    1        5.950   1.221  -2.631  0.00  0.00    +0.550 C 
ATOM      6  O   LIG    1        5.696   0.149  -2.124  0.00  0.00    -0.500 OA
ATOM      7  C   LIG    1        5.267   3.601  -3.046  0.00  0.00    +0.250 C 
ENDROOT
BRANCH   3   8
ATOM      8  C   LIG    1        3.262   0.977  -1.538  0.00  0.00    +0.530 C 
ATOM      9  N   LIG    1        2.560   0.562  -0.465  0.00  0.00    -0.620 N 
ATOM     10  C   LIG    1        2.498   1.248   0.839  0.00  0.00    +0.250 C 
ATOM     11  C   LIG    1        1.163   0.781   1.470  0.00  0.00    +0.040 C 
ATOM     12  C   LIG    1        1.103  -0.700   1.010  0.00  0.00    +0.030 C 
ATOM     13  C   LIG    1        1.730  -0.649  -0.400  0.00  0.00    +0.250 C 
ATOM     14  O   LIG    1        3.314   0.285  -2.533  0.00  0.00    -0.510 OA
ENDBRANCH   3   8
BRANCH   5  15
ATOM     15  C   LIG    1        7.169   1.372  -3.504  0.00  0.00    +0.000 C 
ATOM     16  C   LIG    1        6.768   1.700  -4.961  0.00  0.00    +0.070 C 
ATOM     17  C   LIG    1        7.775   0.944  -5.801  0.00  0.00    +0.520 C 
ATOM     18  N   LIG    1        8.396   0.015  -5.054  0.00  0.00    -0.610 N 
ATOM     19  O   LIG    1        7.990   1.147  -6.978  0.00  0.00    -0.520 OA
ATOM     20  C   LIG    1        7.898   0.021  -3.674  0.00  0.00    +0.300 C 
BRANCH  18  21
ATOM     21  C   LIG    1        9.437  -0.886  -5.554  0.00  0.00    +0.240 C 
ATOM     22  C   LIG    1       10.606  -0.070  -6.142  0.00  0.00    +0.020 C 
ATOM     23  C   LIG    1       11.068  -0.896  -7.368  0.00  0.00    +0.020 C 
ATOM     24  C   LIG    1        9.732  -1.425  -7.947  0.00  0.00    +0.010 C 
ATOM     25  C   LIG    1        8.882  -1.748  -6.701  0.00  0.00    +0.010 C 
ENDBRANCH  18  21
ENDBRANCH   5  15
BRANCH   1  27
ATOM     26  C   LIG    1        4.108   6.619  -3.584  0.00  0.00    +0.220 C 
ATOM     27  O   LIG    1        3.576   5.293  -3.554  0.00  0.00    -0.370 OA
ENDBRANCH   1  27
TORSDOF 4
