REMARK  Name = ZINCrD00000iGRYc.0
REMARK                            x       y       z     vdW  Elec       q    Type
REMARK                         _______ _______ _______ _____ _____    ______ ____
ROOT
ATOM      1  C   LIG    1        5.191  -2.107   0.392  0.00  0.00    +0.240 A 
ATOM      2  N   LIG    1        3.944  -1.823   0.668  0.00  0.00    -0.290 NA
ATOM      3  N   LIG    1        3.614  -0.668  -0.059  0.00  0.00    -0.320 N 
ATOM      4  C   LIG    1        4.737  -0.319  -0.744  0.00  0.00    +0.350 A 
ATOM      5  N   LIG    1        5.672  -1.201  -0.455  0.00  0.00    -0.500 NA
ENDROOT
BRANCH   4   6
ATOM      6  C   LIG    1        4.881   0.842  -1.649  0.00  0.00    +0.110 A 
ATOM      7  N   LIG    1        3.906   1.716  -1.754  0.00  0.00    -0.190 NA
ATOM      8  N   LIG    1        3.984   2.742  -2.522  0.00  0.00    -0.340 N 
ATOM      9  C   LIG    1        5.072   2.980  -3.277  0.00  0.00    +0.480 A 
ATOM     10  C   LIG    1        6.165   2.086  -3.228  0.00  0.00    -0.030 A 
ATOM     11  O   LIG    1        5.115   3.962  -4.000  0.00  0.00    -0.520 OA
ATOM     12  C   LIG    1        2.857   3.675  -2.581  0.00  0.00    +0.380 C 
ATOM     13  C   LIG    1        6.068   1.005  -2.404  0.00  0.00    +0.000 A 
ATOM     14  C   LIG    1        7.194   0.008  -2.299  0.00  0.00    +0.150 C 
ENDBRANCH   4   6
BRANCH   3  15
ATOM     15  C   LIG    1        2.379  -0.006  -0.072  0.00  0.00    +0.130 A 
ATOM     16  C   LIG    1        1.825   0.409  -1.275  0.00  0.00    +0.080 A 
ATOM     17  C   LIG    1        0.608   1.062  -1.286  0.00  0.00    +0.010 A 
ATOM     18  C   LIG    1       -0.060   1.302  -0.097  0.00  0.00    +0.110 A 
ATOM     19  C   LIG    1        0.491   0.889   1.105  0.00  0.00    -0.110 A 
ATOM     20  C   LIG    1       -0.239   1.152   2.397  0.00  0.00    +0.120 C 
ATOM     21  F   LIG    1       -1.253   1.936  -0.110  0.00  0.00    -0.130 F 
ATOM     22  C   LIG    1        1.707   0.236   1.120  0.00  0.00    +0.070 A 
ENDBRANCH   3  15
BRANCH   1  23
ATOM     23  C   LIG    1        5.964  -3.273   0.952  0.00  0.00    +0.160 C 
BRANCH  23  24
ATOM     24  C   LIG    1        6.651  -2.853   2.253  0.00  0.00    -0.010 C 
ATOM     25  C   LIG    1        5.591  -2.527   3.307  0.00  0.00    +0.020 C 
BRANCH  24  27
ATOM     26  C   LIG    1        8.317  -3.533   3.986  0.00  0.00    +0.010 C 
ATOM     27  C   LIG    1        7.535  -3.996   2.755  0.00  0.00    +0.010 C 
ENDBRANCH  24  27
ENDBRANCH  23  24
ENDBRANCH   1  23
TORSDOF 5
