REMARK  Name = ZINCrH00000No50D.0
REMARK                            x       y       z     vdW  Elec       q    Type
REMARK                         _______ _______ _______ _____ _____    ______ ____
ROOT
ATOM      1  O   LIG    1        0.289   2.998   1.835  0.00  0.00    -0.500 OA
ATOM      2  C   LIG    1        0.678   1.936   2.272  0.00  0.00    +0.510 C 
ATOM      3  N   LIG    1       -0.140   0.865   2.269  0.00  0.00    -0.590 N 
ENDROOT
BRANCH   3   4
ATOM      4  C   LIG    1        0.314  -0.405   2.841  0.00  0.00    +0.220 C 
ATOM      5  C   LIG    1        1.540  -0.901   2.073  0.00  0.00    +0.020 C 
ATOM      6  C   LIG    1        1.171  -1.109   0.603  0.00  0.00    +0.020 C 
ATOM      7  C   LIG    1        0.051  -2.145   0.498  0.00  0.00    +0.020 C 
ATOM      8  C   LIG    1       -1.176  -1.649   1.267  0.00  0.00    +0.010 C 
ATOM      9  C   LIG    1       -0.806  -1.441   2.736  0.00  0.00    -0.060 C 
ATOM     10  C   LIG    1       -2.033  -0.948   3.508  0.00  0.00    +0.000 C 
ATOM     11  C   LIG    1       -1.675  -0.818   4.991  0.00  0.00    +0.210 C 
ATOM     12  O   LIG    1       -1.216  -2.080   5.481  0.00  0.00    -0.380 OA
ATOM     13  C   LIG    1       -0.042  -2.567   4.828  0.00  0.00    +0.210 C 
ATOM     14  C   LIG    1       -0.334  -2.767   3.338  0.00  0.00    +0.030 C 
ENDBRANCH   3   4
BRANCH   2  15
ATOM     15  C   LIG    1        2.077   1.814   2.820  0.00  0.00    +0.180 C 
ATOM     16 CL   LIG    1        2.816   3.453   2.950  0.00  0.00    -0.130 Cl
ENDBRANCH   2  15
BRANCH   3  17
ATOM     17  C   LIG    1       -1.483   0.971   1.694  0.00  0.00    +0.370 C 
BRANCH  17  18
ATOM     18  C   LIG    1       -1.376   1.270   0.221  0.00  0.00    +0.070 A 
ATOM     19  C   LIG    1       -1.135   0.371  -0.761  0.00  0.00    -0.110 A 
ATOM     20  C   LIG    1       -1.115   1.058  -1.979  0.00  0.00    +0.230 A 
ATOM     21  N   LIG    1       -1.338   2.325  -1.737  0.00  0.00    -0.270 NA
ATOM     22  N   LIG    1       -1.511   2.483  -0.356  0.00  0.00    -0.330 N 
BRANCH  22  23
ATOM     23  C   LIG    1       -1.786   3.743   0.340  0.00  0.00    +0.270 C 
ATOM     24  C   LIG    1       -0.755   4.865   0.202  0.00  0.00    +0.120 C 
ATOM     25  C   LIG    1       -2.101   4.970  -0.519  0.00  0.00    +0.200 C 
ATOM     26  F   LIG    1       -3.032   5.886  -0.019  0.00  0.00    -0.160 F 
ATOM     27  F   LIG    1       -2.103   4.802  -1.908  0.00  0.00    -0.140 F 
ENDBRANCH  22  23
ENDBRANCH  17  18
ENDBRANCH   3  17
TORSDOF 5
