REMARK  Name = ZINCqH0000008NUT.0
REMARK                            x       y       z     vdW  Elec       q    Type
REMARK                         _______ _______ _______ _____ _____    ______ ____
ROOT
ATOM      1  C   LIG    1        1.674   6.030   0.019  0.00  0.00    +0.260 C 
ENDROOT
BRANCH   1  12
ATOM      2  C   LIG    1        4.305   2.672  -1.281  0.00  0.00    +0.050 C 
ATOM      3  C   LIG    1        3.446   2.597  -0.017  0.00  0.00    +0.230 C 
ATOM      4  C   LIG    1        2.611   1.306  -0.016  0.00  0.00    +0.100 C 
ATOM      5  C   LIG    1        1.175   1.781   0.000  0.00  0.00    -0.130 A 
ATOM      6  C   LIG    1       -0.013   1.076   0.008  0.00  0.00    +0.060 A 
ATOM      7  C   LIG    1       -1.220   1.749   0.017  0.00  0.00    -0.010 A 
ATOM      8  C   LIG    1       -1.236   3.132   0.031  0.00  0.00    +0.050 A 
ATOM      9  C   LIG    1       -0.053   3.840   0.023  0.00  0.00    -0.030 A 
ATOM     10  C   LIG    1        1.169   3.167   0.008  0.00  0.00    +0.140 A 
ATOM     11  N   LIG    1        2.467   3.688  -0.002  0.00  0.00    -0.550 N 
ATOM     12  C   LIG    1        2.774   5.000   0.003  0.00  0.00    +0.530 C 
ATOM     13  O   LIG    1        3.934   5.352  -0.005  0.00  0.00    -0.490 OA
ENDBRANCH   1  12
BRANCH   1  14
ATOM     14  O   LIG    1        2.257   7.360   0.021  0.00  0.00    -0.330 OA
BRANCH  14  15
ATOM     15  C   LIG    1        1.406   8.398   0.035  0.00  0.00    +0.470 C 
ATOM     16  O   LIG    1        0.214   8.202   0.045  0.00  0.00    -0.500 OA
BRANCH  15  17
ATOM     17  C   LIG    1        1.938   9.808   0.038  0.00  0.00    -0.040 C 
ATOM     18  C   LIG    1        2.781  10.038  -1.217  0.00  0.00    +0.050 C 
ATOM     19  C   LIG    1        3.321  11.470  -1.214  0.00  0.00    +0.000 C 
ATOM     20  C   LIG    1        4.187  11.685   0.029  0.00  0.00    +0.030 C 
ATOM     21  C   LIG    1        3.344  11.455   1.285  0.00  0.00    +0.000 C 
ATOM     22  C   LIG    1        2.174  12.442   1.301  0.00  0.00    +0.020 C 
ATOM     23  C   LIG    1        1.308  12.226   0.058  0.00  0.00    +0.000 C 
ATOM     24  C   LIG    1        2.151  12.456  -1.197  0.00  0.00    +0.020 C 
ATOM     25  C   LIG    1        2.804  10.024   1.281  0.00  0.00    +0.050 C 
ATOM     26  C   LIG    1        0.768  10.794   0.055  0.00  0.00    +0.050 C 
ENDBRANCH  15  17
ENDBRANCH  14  15
ENDBRANCH   1  14
TORSDOF 4
