REMARK  Name = ZINCpk000000n2cN.0
REMARK                            x       y       z     vdW  Elec       q    Type
REMARK                         _______ _______ _______ _____ _____    ______ ____
ROOT
ATOM      1  N   LIG    1       -2.505   5.704  -3.140  0.00  0.00    -0.670 N 
ATOM      2  H   LIG    1       -2.928   5.210  -3.860  0.00  0.00    +0.420 HD
ATOM      3  C   LIG    1       -1.673   5.073  -2.289  0.00  0.00    +0.520 C 
ATOM      4  O   LIG    1       -1.226   5.663  -1.328  0.00  0.00    -0.500 OA
ENDROOT
BRANCH   1  10
ATOM      5  C   LIG    1       -2.769   7.911  -4.110  0.00  0.00    -0.200 A 
ATOM      6  C   LIG    1       -3.030   9.276  -3.942  0.00  0.00    +0.080 A 
ATOM      7  C   LIG    1       -3.259   9.780  -2.681  0.00  0.00    -0.020 A 
ATOM      8  C   LIG    1       -3.239   8.943  -1.577  0.00  0.00    +0.060 A 
ATOM      9  C   LIG    1       -2.990   7.593  -1.726  0.00  0.00    +0.010 A 
ATOM     10  C   LIG    1       -2.756   7.064  -2.988  0.00  0.00    +0.210 A 
BRANCH   5  12
ATOM     11  C   LIG    1       -2.420   8.294  -6.634  0.00  0.00    +0.080 C 
ATOM     12  C   LIG    1       -2.517   7.367  -5.449  0.00  0.00    +0.400 C 
ATOM     13  O   LIG    1       -2.387   6.170  -5.603  0.00  0.00    -0.470 OA
ENDBRANCH   5  12
ENDBRANCH   1  10
BRANCH   3  14
ATOM     14  C   LIG    1       -1.297   3.633  -2.530  0.00  0.00    +0.220 C 
BRANCH  14  15
ATOM     15  N   LIG    1       -0.284   3.220  -1.549  0.00  0.00    -0.520 NA
ATOM     16  C   LIG    1        0.979   3.940  -1.763  0.00  0.00    +0.190 C 
ATOM     17  C   LIG    1        1.980   3.542  -0.676  0.00  0.00    +0.240 C 
ATOM     18  N   LIG    1        2.192   2.088  -0.717  0.00  0.00    -0.460 N 
ATOM     19  C   LIG    1        0.929   1.369  -0.504  0.00  0.00    +0.230 C 
ATOM     20  C   LIG    1       -0.072   1.767  -1.591  0.00  0.00    +0.200 C 
BRANCH  18  21
ATOM     21  C   LIG    1        3.147   1.700   0.207  0.00  0.00    +0.490 A 
ATOM     22  N   LIG    1        3.724   2.619   0.965  0.00  0.00    -0.550 NA
ATOM     23  C   LIG    1        4.636   2.281   1.862  0.00  0.00    +0.340 A 
ATOM     24  C   LIG    1        4.993   0.948   1.994  0.00  0.00    -0.110 A 
ATOM     25  C   LIG    1        4.373   0.013   1.180  0.00  0.00    +0.340 A 
ATOM     26  N   LIG    1        3.465   0.417   0.308  0.00  0.00    -0.530 NA
ENDBRANCH  18  21
ENDBRANCH  14  15
ENDBRANCH   3  14
TORSDOF 5
