REMARK  Name = ZINCpe000000YO9A.0
REMARK                            x       y       z     vdW  Elec       q    Type
REMARK                         _______ _______ _______ _____ _____    ______ ____
ROOT
ATOM      1  C   LIG    1       -3.520  -5.273   3.079  0.00  0.00    +0.260 C 
ENDROOT
BRANCH   1   3
ATOM      2  C   LIG    1       -3.876  -7.441   4.132  0.00  0.00    +0.590 C 
ATOM      3  N   LIG    1       -3.984  -6.662   3.038  0.00  0.00    -0.710 N 
ATOM      4  H   LIG    1       -4.369  -7.021   2.223  0.00  0.00    +0.410 HD
ATOM      5  O   LIG    1       -3.394  -6.992   5.153  0.00  0.00    -0.540 OA
BRANCH   2  11
ATOM      6  C   LIG    1       -4.342  -9.622   5.258  0.00  0.00    +0.410 A 
ATOM      7  N   LIG    1       -4.770 -10.879   5.210  0.00  0.00    -0.500 NA
ATOM      8  C   LIG    1       -5.184 -11.391   4.066  0.00  0.00    +0.320 A 
ATOM      9  C   LIG    1       -5.181 -10.622   2.911  0.00  0.00    +0.160 A 
ATOM     10  N   LIG    1       -4.765  -9.372   2.945  0.00  0.00    -0.380 NA
ATOM     11  C   LIG    1       -4.344  -8.842   4.090  0.00  0.00    -0.050 A 
BRANCH   6  12
ATOM     12  N   LIG    1       -3.902  -9.083   6.453  0.00  0.00    -0.820 N 
ATOM     13  H   LIG    1       -3.588  -9.666   7.162  0.00  0.00    +0.400 HD
ATOM     14  H   LIG    1       -3.907  -8.122   6.582  0.00  0.00    +0.430 HD
ENDBRANCH   6  12
ENDBRANCH   2  11
ENDBRANCH   1   3
BRANCH   1  15
ATOM     15  C   LIG    1       -3.756  -4.616   1.718  0.00  0.00    +0.030 C 
BRANCH  15  16
ATOM     16  C   LIG    1       -3.271  -3.165   1.761  0.00  0.00    +0.030 C 
BRANCH  16  17
ATOM     17  C   LIG    1       -3.506  -2.508   0.400  0.00  0.00    +0.310 C 
BRANCH  17  18
ATOM     18  N   LIG    1       -3.042  -1.119   0.441  0.00  0.00    -0.580 N 
ATOM     19  C   LIG    1       -3.808  -0.071   0.795  0.00  0.00    +0.570 C 
ATOM     20  C   LIG    1       -2.990   1.158   0.715  0.00  0.00    -0.140 A 
ATOM     21  C   LIG    1       -3.235   2.500   0.956  0.00  0.00    +0.100 A 
ATOM     22  C   LIG    1       -2.218   3.426   0.780  0.00  0.00    +0.050 A 
ATOM     23  C   LIG    1       -0.963   3.019   0.367  0.00  0.00    +0.050 A 
ATOM     24  C   LIG    1       -0.704   1.680   0.122  0.00  0.00    +0.100 A 
ATOM     25  C   LIG    1       -1.711   0.743   0.293  0.00  0.00    -0.140 A 
ATOM     26  O   LIG    1       -4.975  -0.125   1.127  0.00  0.00    -0.460 OA
ATOM     27  C   LIG    1       -1.794  -0.724   0.131  0.00  0.00    +0.570 C 
ATOM     28  O   LIG    1       -0.888  -1.451  -0.224  0.00  0.00    -0.460 OA
ENDBRANCH  17  18
ENDBRANCH  16  17
ENDBRANCH  15  16
ENDBRANCH   1  15
TORSDOF 7
