REMARK  Name = ZINCtV00000L6kwN.0
REMARK                            x       y       z     vdW  Elec       q    Type
REMARK                         _______ _______ _______ _____ _____    ______ ____
ROOT
ATOM      1  C   LIG    1        0.987   0.090  -4.423  0.00  0.00    +0.160 A 
ATOM      2  C   LIG    1        1.091  -0.086  -3.050  0.00  0.00    +0.160 A 
ATOM      3  C   LIG    1        2.327  -0.017  -2.438  0.00  0.00    -0.660 A 
ATOM      4  C   LIG    1        3.462   0.216  -3.191  0.00  0.00    +0.130 A 
ATOM      5  C   LIG    1        3.364   0.386  -4.560  0.00  0.00    +0.050 A 
ATOM      6  C   LIG    1        2.130   0.323  -5.179  0.00  0.00    -0.020 A 
ATOM      7 CL   LIG    1        2.007   0.537  -6.897  0.00  0.00    -0.050 Cl
ENDROOT
BRANCH   1  10
ATOM      8  O   LIG    1       -1.069  -1.295  -3.452  0.00  0.00    -0.540 OA
ATOM      9  C   LIG    1       -1.272  -0.655  -4.466  0.00  0.00    +0.710 C 
ATOM     10  N   LIG    1       -0.265   0.026  -5.047  0.00  0.00    -0.670 N 
ATOM     11  H   LIG    1       -0.407   0.471  -5.896  0.00  0.00    +0.410 HD
ATOM     12  N   LIG    1       -2.506  -0.626  -5.008  0.00  0.00    -0.670 N 
ATOM     13  H   LIG    1       -2.656  -0.164  -5.848  0.00  0.00    +0.410 HD
BRANCH  12  14
ATOM     14  C   LIG    1       -3.571  -1.262  -4.359  0.00  0.00    +0.170 A 
ATOM     15  C   LIG    1       -3.329  -2.337  -3.515  0.00  0.00    +0.040 A 
ATOM     16  C   LIG    1       -4.382  -2.963  -2.876  0.00  0.00    +0.050 A 
ATOM     17  C   LIG    1       -5.676  -2.520  -3.077  0.00  0.00    +0.010 A 
ATOM     18  C   LIG    1       -5.922  -1.450  -3.918  0.00  0.00    +0.050 A 
ATOM     19  C   LIG    1       -4.872  -0.816  -4.555  0.00  0.00    -0.070 A 
ATOM     20 CL   LIG    1       -5.180   0.532  -5.605  0.00  0.00    -0.070 Cl
ENDBRANCH  12  14
ENDBRANCH   1  10
BRANCH   3  21
ATOM     21  S   LIG    1        2.458  -0.232  -0.694  0.00  0.00    +2.690 S 
ATOM     22  O   LIG    1        1.312  -0.972  -0.294  0.00  0.00    -0.930 OA
ATOM     23  O   LIG    1        3.788  -0.663  -0.441  0.00  0.00    -0.940 OA
BRANCH  21  24
ATOM     24  N   LIG    1        2.312   1.265  -0.002  0.00  0.00    -1.050 N 
ATOM     25  H   LIG    1        3.033   1.622   0.539  0.00  0.00    +0.430 HD
BRANCH  24  26
ATOM     26  C   LIG    1        1.149   2.015  -0.199  0.00  0.00    +0.160 A 
ATOM     27  C   LIG    1       -0.084   1.381  -0.277  0.00  0.00    +0.010 A 
ATOM     28  C   LIG    1       -1.230   2.125  -0.476  0.00  0.00    +0.060 A 
ATOM     29  C   LIG    1       -1.154   3.501  -0.588  0.00  0.00    +0.020 A 
ATOM     30  C   LIG    1        0.072   4.137  -0.512  0.00  0.00    +0.050 A 
ATOM     31  C   LIG    1        1.224   3.399  -0.318  0.00  0.00    -0.060 A 
ATOM     32 CL   LIG    1        2.763   4.197  -0.221  0.00  0.00    -0.060 Cl
ENDBRANCH  24  26
ENDBRANCH  21  24
ENDBRANCH   3  21
TORSDOF 5
