REMARK  Name = ZINCpk000000of7I.0
REMARK                            x       y       z     vdW  Elec       q    Type
REMARK                         _______ _______ _______ _____ _____    ______ ____
ROOT
ATOM      1  N   LIG    1       -1.940   4.883  -1.997  0.00  0.00    -0.520 NA
ATOM      2  C   LIG    1       -3.112   4.233  -2.598  0.00  0.00    +0.180 C 
ATOM      3  C   LIG    1       -4.300   4.337  -1.635  0.00  0.00    +0.300 C 
ATOM      4  N   LIG    1       -4.488   5.751  -1.277  0.00  0.00    -0.610 N 
ATOM      5  C   LIG    1       -3.322   6.508  -0.796  0.00  0.00    +0.290 C 
ATOM      6  C   LIG    1       -5.697   6.337  -1.387  0.00  0.00    +0.560 C 
ATOM      7  O   LIG    1       -6.626   5.727  -1.877  0.00  0.00    -0.540 OA
ATOM      8  C   LIG    1       -2.173   6.318  -1.792  0.00  0.00    +0.170 C 
ENDROOT
BRANCH   6   9
ATOM      9  C   LIG    1       -5.892   7.724  -0.911  0.00  0.00    -0.080 A 
ATOM     10  C   LIG    1       -5.178   8.192   0.193  0.00  0.00    -0.030 A 
ATOM     11  C   LIG    1       -5.358   9.488   0.632  0.00  0.00    +0.050 A 
ATOM     12  C   LIG    1       -6.251  10.323  -0.012  0.00  0.00    -0.050 A 
ATOM     13  C   LIG    1       -6.971   9.865  -1.109  0.00  0.00    +0.210 A 
ATOM     14  C   LIG    1       -6.794   8.566  -1.561  0.00  0.00    -0.010 A 
BRANCH  13  15
ATOM     15  N   LIG    1       -7.874  10.712  -1.756  0.00  0.00    -0.640 N 
ATOM     16  C   LIG    1       -8.061  12.085  -1.278  0.00  0.00    +0.280 C 
ATOM     17  C   LIG    1       -8.633  10.229  -2.912  0.00  0.00    +0.280 C 
ENDBRANCH  13  15
ENDBRANCH   6   9
BRANCH   1  18
ATOM     18  C   LIG    1       -0.737   4.656  -2.810  0.00  0.00    +0.210 C 
BRANCH  18  21
ATOM     19  N   LIG    1        0.683   2.744  -3.478  0.00  0.00    -0.730 N 
ATOM     20  H   LIG    1        1.230   3.367  -3.982  0.00  0.00    +0.400 HD
ATOM     21  C   LIG    1       -0.390   3.190  -2.795  0.00  0.00    +0.510 C 
ATOM     22  O   LIG    1       -1.077   2.410  -2.169  0.00  0.00    -0.520 OA
BRANCH  19  23
ATOM     23  C   LIG    1        1.021   1.319  -3.463  0.00  0.00    +0.260 C 
BRANCH  23  24
ATOM     24  C   LIG    1        2.269   1.082  -4.316  0.00  0.00    +0.010 C 
BRANCH  24  26
ATOM     25  C   LIG    1        3.870  -0.644  -5.153  0.00  0.00    +0.010 C 
ATOM     26  C   LIG    1        2.621  -0.407  -4.301  0.00  0.00    +0.020 C 
ENDBRANCH  24  26
ENDBRANCH  23  24
ENDBRANCH  19  23
ENDBRANCH  18  21
ENDBRANCH   1  18
TORSDOF 7
