REMARK  Name = ZINCqH000000589R.0
REMARK                            x       y       z     vdW  Elec       q    Type
REMARK                         _______ _______ _______ _____ _____    ______ ____
ROOT
ATOM      1  N   LIG    1       -2.457   3.838   0.046  0.00  0.00    -0.660 N 
ATOM      2  H   LIG    1       -3.292   3.350  -0.031  0.00  0.00    +0.420 HD
ATOM      3  C   LIG    1       -2.469   5.181   0.155  0.00  0.00    +0.710 C 
ATOM      4  N   LIG    1       -3.641   5.837   0.272  0.00  0.00    -0.610 N 
ATOM      5  O   LIG    1       -1.424   5.802   0.149  0.00  0.00    -0.570 OA
ENDROOT
BRANCH   1  11
ATOM      6  C   LIG    1       -1.143   1.896  -0.567  0.00  0.00    +0.050 A 
ATOM      7  C   LIG    1        0.064   1.215  -0.560  0.00  0.00    -0.010 A 
ATOM      8  C   LIG    1        1.174   1.780   0.041  0.00  0.00    -0.020 A 
ATOM      9  C   LIG    1        1.082   3.022   0.641  0.00  0.00    +0.020 A 
ATOM     10  C   LIG    1       -0.120   3.706   0.644  0.00  0.00    +0.020 A 
ATOM     11  C   LIG    1       -1.237   3.147   0.044  0.00  0.00    +0.200 A 
BRANCH   6  13
ATOM     12  C   LIG    1       -2.019   1.083  -2.607  0.00  0.00    +0.200 C 
ATOM     13  N   LIG    1       -2.266   1.329  -1.179  0.00  0.00    -0.510 N 
ATOM     14  C   LIG    1       -2.671   0.094  -0.495  0.00  0.00    +0.200 C 
ENDBRANCH   6  13
ENDBRANCH   1  11
BRANCH   4  15
ATOM     15  C   LIG    1       -4.901   5.090   0.280  0.00  0.00    +0.390 C 
BRANCH  15  16
ATOM     16  C   LIG    1       -5.257   4.719   1.696  0.00  0.00    +0.050 A 
ATOM     17  N   LIG    1       -4.830   3.666   2.344  0.00  0.00    -0.270 NA
ATOM     18  N   LIG    1       -5.386   3.687   3.629  0.00  0.00    -0.470 N 
ATOM     19  H   LIG    1       -5.239   3.028   4.326  0.00  0.00    +0.440 HD
ATOM     20  C   LIG    1       -6.167   4.783   3.726  0.00  0.00    +0.240 A 
ATOM     21  C   LIG    1       -6.105   5.439   2.544  0.00  0.00    -0.110 A 
ENDBRANCH  15  16
ENDBRANCH   4  15
BRANCH   4  22
ATOM     22  C   LIG    1       -3.655   7.297   0.390  0.00  0.00    +0.360 C 
BRANCH  22  23
ATOM     23  C   LIG    1       -3.736   7.912  -0.983  0.00  0.00    -0.110 A 
ATOM     24  C   LIG    1       -2.578   8.216  -1.674  0.00  0.00    +0.040 A 
ATOM     25  C   LIG    1       -2.652   8.775  -2.936  0.00  0.00    +0.000 A 
ATOM     26  C   LIG    1       -3.885   9.040  -3.503  0.00  0.00    +0.000 A 
ATOM     27  C   LIG    1       -5.043   8.742  -2.809  0.00  0.00    -0.010 A 
ATOM     28  C   LIG    1       -4.969   8.178  -1.550  0.00  0.00    +0.010 A 
ENDBRANCH  22  23
ENDBRANCH   4  22
TORSDOF 6
