REMARK  Name = ZINCvU00000008BA.0
REMARK                            x       y       z     vdW  Elec       q    Type
REMARK                         _______ _______ _______ _____ _____    ______ ____
ROOT
ATOM      1  P   LIG    1       -3.086   6.046   1.047  0.00  0.00    +2.700 P 
ATOM      2  C   LIG    1       -2.082   7.549   0.808  0.00  0.00    -0.940 A 
ATOM      3  C   LIG    1       -0.694   7.410   0.676  0.00  0.00    +0.360 A 
ATOM      4  N   LIG    1       -0.208   8.665   0.520  0.00  0.00    -0.280 N 
ATOM      5  N   LIG    1       -1.294   9.557   0.552  0.00  0.00    -0.290 NA
ATOM      6  N   LIG    1       -0.101   6.196   0.715  0.00  0.00    -0.550 NA
ATOM      7  C   LIG    1       -0.715   5.045   0.694  0.00  0.00    +0.540 C 
ATOM      8  C   LIG    1       -2.407   8.873   0.726  0.00  0.00    +0.180 A 
ATOM      9  C   LIG    1       -3.796   9.450   0.816  0.00  0.00    +0.180 C 
ATOM     10  O   LIG    1       -4.311   6.097   0.219  0.00  0.00    -1.030 OA
ATOM     11  N   LIG    1       -2.072   4.831   0.520  0.00  0.00    -1.000 N 
ATOM     12  C   LIG    1       -2.587   3.603  -0.089  0.00  0.00    +0.340 C 
ENDROOT
BRANCH   4  13
ATOM     13  C   LIG    1        1.138   9.012   0.356  0.00  0.00    +0.130 A 
ATOM     14  C   LIG    1        2.127   8.297   1.018  0.00  0.00    +0.030 A 
ATOM     15  C   LIG    1        3.455   8.639   0.850  0.00  0.00    +0.040 A 
ATOM     16  C   LIG    1        3.799   9.700   0.032  0.00  0.00    +0.020 A 
ATOM     17  C   LIG    1        2.816  10.417  -0.625  0.00  0.00    +0.030 A 
ATOM     18  C   LIG    1        1.487  10.077  -0.465  0.00  0.00    +0.030 A 
ENDBRANCH   4  13
BRANCH   7  19
ATOM     19  C   LIG    1        0.121   3.852   0.867  0.00  0.00    -0.230 A 
ATOM     20  C   LIG    1        1.486   3.841   0.919  0.00  0.00    +0.120 A 
ATOM     21  C   LIG    1        2.014   2.581   1.087  0.00  0.00    +0.000 A 
ATOM     22  C   LIG    1        1.114   1.596   1.171  0.00  0.00    -0.060 A 
ATOM     23  S   LIG    1       -0.473   2.205   1.033  0.00  0.00    +0.240 S 
ENDBRANCH   7  19
BRANCH   1  24
ATOM     24  N   LIG    1       -3.465   5.847   2.630  0.00  0.00    -1.120 N 
ATOM     25  H   LIG    1       -3.132   6.473   3.291  0.00  0.00    +0.420 HD
BRANCH  24  32
ATOM     26  C   LIG    1       -3.779   5.362   5.416  0.00  0.00    +0.090 C 
ATOM     27  C   LIG    1       -4.450   4.502   4.376  0.00  0.00    -0.130 A 
ATOM     28  C   LIG    1       -5.249   3.445   4.764  0.00  0.00    +0.050 A 
ATOM     29  C   LIG    1       -5.861   2.652   3.810  0.00  0.00    -0.020 A 
ATOM     30  C   LIG    1       -5.679   2.918   2.465  0.00  0.00    +0.050 A 
ATOM     31  C   LIG    1       -4.885   3.977   2.071  0.00  0.00    -0.050 A 
ATOM     32  C   LIG    1       -4.269   4.775   3.026  0.00  0.00    +0.180 A 
ENDBRANCH  24  32
ENDBRANCH   1  24
TORSDOF 4
