REMARK  Name = ZINCnE000001Fphk.0
REMARK                            x       y       z     vdW  Elec       q    Type
REMARK                         _______ _______ _______ _____ _____    ______ ____
ROOT
ATOM      1  C   LIG    1       -1.183  -2.066  -0.100  0.00  0.00    +0.540 C 
ATOM      2  N   LIG    1       -1.201  -0.723   0.009  0.00  0.00    -0.660 N 
ATOM      3  H   LIG    1       -2.045  -0.255   0.100  0.00  0.00    +0.420 HD
ATOM      4  O   LIG    1       -0.126  -2.660  -0.113  0.00  0.00    -0.500 OA
ENDROOT
BRANCH   2   5
ATOM      5  C   LIG    1        0.001  -0.003  -0.009  0.00  0.00    +0.130 A 
ATOM      6  C   LIG    1        1.122  -0.536  -0.629  0.00  0.00    +0.060 A 
ATOM      7  C   LIG    1        2.306   0.176  -0.646  0.00  0.00    -0.100 A 
ATOM      8  C   LIG    1        2.378   1.419  -0.046  0.00  0.00    +0.020 A 
ATOM      9  C   LIG    1        1.265   1.957   0.573  0.00  0.00    -0.050 A 
ATOM     10  C   LIG    1        3.523  -0.405  -1.321  0.00  0.00    +0.090 C 
ATOM     11  C   LIG    1        0.074   1.250   0.595  0.00  0.00    +0.090 A 
BRANCH  11  12
ATOM     12  O   LIG    1       -1.022   1.780   1.200  0.00  0.00    -0.320 OA
ATOM     13  C   LIG    1       -0.874   3.069   1.798  0.00  0.00    +0.230 C 
ENDBRANCH  11  12
ENDBRANCH   2   5
BRANCH   1  14
ATOM     14  C   LIG    1       -2.478  -2.830  -0.206  0.00  0.00    +0.100 C 
BRANCH  14  15
ATOM     15  S   LIG    1       -2.124  -4.604  -0.339  0.00  0.00    +0.030 S 
BRANCH  15  20
ATOM     16  N   LIG    1       -6.817  -7.691  -0.750  0.00  0.00    -0.640 NA
ATOM     17  C   LIG    1       -5.875  -6.785  -0.644  0.00  0.00    +0.340 A 
ATOM     18  N   LIG    1       -6.024  -5.433  -0.538  0.00  0.00    -0.510 NA
ATOM     19  N   LIG    1       -4.865  -4.697  -0.439  0.00  0.00    -0.250 NA
ATOM     20  C   LIG    1       -3.730  -5.322  -0.451  0.00  0.00    -0.080 A 
ATOM     21  S   LIG    1       -4.120  -7.043  -0.612  0.00  0.00    -0.100 S 
BRANCH  16  22
ATOM     22  C   LIG    1       -8.225  -7.285  -0.764  0.00  0.00    +0.170 C 
BRANCH  22  24
ATOM     23  C   LIG    1      -10.309  -7.197  -2.140  0.00  0.00    +0.000 C 
ATOM     24  C   LIG    1       -8.838  -7.621  -2.125  0.00  0.00    -0.010 C 
ENDBRANCH  22  24
ENDBRANCH  16  22
ENDBRANCH  15  20
ENDBRANCH  14  15
ENDBRANCH   1  14
TORSDOF 7
