REMARK  Name = ZINCtV00000L6jtn.0
REMARK                            x       y       z     vdW  Elec       q    Type
REMARK                         _______ _______ _______ _____ _____    ______ ____
ROOT
ATOM      1  C   LIG    1        0.038  -0.004  -0.105  0.00  0.00    +0.110 C 
ATOM      2  C   LIG    1        0.030   1.503  -0.138  0.00  0.00    -0.000 A 
ATOM      3  C   LIG    1       -1.159   2.191  -0.015  0.00  0.00    -0.010 A 
ATOM      4  C   LIG    1       -1.168   3.577  -0.042  0.00  0.00    +0.080 A 
ATOM      5  C   LIG    1        0.005   4.284  -0.199  0.00  0.00    -0.110 A 
ATOM      6  C   LIG    1        1.214   3.607  -0.329  0.00  0.00    +0.170 A 
ATOM      7  N   LIG    1        2.515   4.053  -0.497  0.00  0.00    -0.490 N 
ATOM      8  C   LIG    1        3.384   2.985  -0.577  0.00  0.00    +0.320 A 
ATOM      9  N   LIG    1        4.693   2.924  -0.735  0.00  0.00    -0.460 NA
ATOM     10  C   LIG    1        5.305   1.737  -0.782  0.00  0.00    +0.130 A 
ATOM     11  C   LIG    1        6.699   1.651  -0.950  0.00  0.00    +0.040 A 
ATOM     12  C   LIG    1        7.300   0.431  -0.996  0.00  0.00    +0.050 A 
ATOM     13  C   LIG    1        6.554  -0.741  -0.879  0.00  0.00    +0.030 A 
ATOM     14  C   LIG    1        5.204  -0.699  -0.716  0.00  0.00    +0.070 A 
ATOM     15  C   LIG    1        4.546   0.544  -0.663  0.00  0.00    +0.060 A 
ATOM     16  N   LIG    1        3.222   0.612  -0.504  0.00  0.00    -0.390 NA
ATOM     17  C   LIG    1        2.629   1.790  -0.459  0.00  0.00    +0.110 A 
ATOM     18  C   LIG    1       -0.022   5.790  -0.230  0.00  0.00    +0.100 C 
ATOM     19  C   LIG    1        1.222   2.205  -0.298  0.00  0.00    -0.100 A 
ENDROOT
BRANCH   7  20
ATOM     20  C   LIG    1        2.912   5.461  -0.577  0.00  0.00    +0.330 C 
BRANCH  20  21
ATOM     21  C   LIG    1        3.219   5.985   0.828  0.00  0.00    +0.180 C 
BRANCH  21  22
ATOM     22  O   LIG    1        3.606   7.359   0.750  0.00  0.00    -0.310 OA
BRANCH  22  23
ATOM     23  C   LIG    1        3.915   7.980   1.918  0.00  0.00    +0.140 A 
ATOM     24  C   LIG    1        3.841   7.284   3.116  0.00  0.00    -0.070 A 
ATOM     25  C   LIG    1        4.159   7.916   4.302  0.00  0.00    +0.070 A 
ATOM     26  C   LIG    1        4.542   9.245   4.297  0.00  0.00    -0.070 A 
ATOM     27  C   LIG    1        4.612   9.943   3.104  0.00  0.00    +0.070 A 
ATOM     28 CL   LIG    1        4.936  10.039   5.790  0.00  0.00    -0.070 Cl
ATOM     29  C   LIG    1        4.299   9.313   1.916  0.00  0.00    +0.000 A 
ENDBRANCH  22  23
ENDBRANCH  21  22
ENDBRANCH  20  21
ENDBRANCH   7  20
TORSDOF 4
