REMARK  Name = ZINCAx0000000cGq.0
REMARK                            x       y       z     vdW  Elec       q    Type
REMARK                         _______ _______ _______ _____ _____    ______ ____
ROOT
ATOM      1  C   LIG    1        5.393   2.829  -7.197  0.00  0.00    +0.510 C 
ATOM      2  N   LIG    1        5.947   3.452  -8.256  0.00  0.00    -0.580 N 
ATOM      3  C   LIG    1        5.152   3.749  -9.457  0.00  0.00    +0.290 C 
ATOM      4  C   LIG    1        5.334   5.236  -9.800  0.00  0.00    +0.180 C 
ATOM      5  N   LIG    1        6.768   5.534  -9.916  0.00  0.00    -0.530 NA
ATOM      6  C   LIG    1        7.461   5.324  -8.637  0.00  0.00    +0.180 C 
ATOM      7  C   LIG    1        7.364   3.846  -8.244  0.00  0.00    +0.290 C 
ATOM      8  O   LIG    1        4.262   2.397  -7.270  0.00  0.00    -0.510 OA
ENDROOT
BRANCH   1  14
ATOM      9  C   LIG    1        5.141  -0.401  -3.408  0.00  0.00    -0.020 C 
ATOM     10  C   LIG    1        4.449  -0.176  -4.754  0.00  0.00    +0.020 C 
ATOM     11  C   LIG    1        4.339   1.329  -5.021  0.00  0.00    +0.270 C 
ATOM     12  N   LIG    1        5.678   1.925  -4.924  0.00  0.00    -0.570 N 
ATOM     13  C   LIG    1        6.468   1.694  -3.706  0.00  0.00    +0.270 C 
ATOM     14  C   LIG    1        6.173   2.671  -5.932  0.00  0.00    +0.510 C 
ATOM     15  O   LIG    1        7.252   3.214  -5.812  0.00  0.00    -0.510 OA
ATOM     16  C   LIG    1        6.553   0.185  -3.454  0.00  0.00    +0.020 C 
BRANCH   9  17
ATOM     17  C   LIG    1        5.221  -1.902  -3.121  0.00  0.00    +0.020 C 
BRANCH  17  18
ATOM     18  C   LIG    1        3.808  -2.465  -2.951  0.00  0.00    -0.010 C 
BRANCH  18  20
ATOM     19  C   LIG    1        2.477  -4.553  -2.618  0.00  0.00    +0.000 C 
ATOM     20  C   LIG    1        3.889  -3.966  -2.665  0.00  0.00    +0.200 C 
BRANCH  20  21
ATOM     21  O   LIG    1        4.534  -4.177  -1.407  0.00  0.00    -0.560 OA
ATOM     22  H   LIG    1        4.080  -3.767  -0.658  0.00  0.00    +0.370 HD
ENDBRANCH  20  21
ENDBRANCH  18  20
ENDBRANCH  17  18
ENDBRANCH   9  17
ENDBRANCH   1  14
BRANCH   5  23
ATOM     23  C   LIG    1        6.984   6.899 -10.414  0.00  0.00    +0.230 C 
BRANCH  23  24
ATOM     24  C   LIG    1        6.473   7.005 -11.827  0.00  0.00    -0.120 A 
ATOM     25  C   LIG    1        7.319   6.738 -12.888  0.00  0.00    +0.080 A 
ATOM     26  C   LIG    1        6.851   6.829 -14.185  0.00  0.00    -0.080 A 
ATOM     27  C   LIG    1        5.535   7.199 -14.423  0.00  0.00    +0.130 A 
ATOM     28  C   LIG    1        4.691   7.471 -13.357  0.00  0.00    -0.020 A 
ATOM     29  C   LIG    1        5.161   7.374 -12.062  0.00  0.00    +0.050 A 
BRANCH  27  30
ATOM     30  O   LIG    1        5.075   7.294 -15.698  0.00  0.00    -0.310 OA
BRANCH  30  31
ATOM     31  C   LIG    1        6.000   6.999 -16.746  0.00  0.00    +0.290 C 
BRANCH  31  32
ATOM     32  C   LIG    1        5.316   7.156 -18.079  0.00  0.00    +0.120 A 
ATOM     33  C   LIG    1        3.987   7.530 -18.125  0.00  0.00    -0.010 A 
ATOM     34  C   LIG    1        3.368   7.677 -19.357  0.00  0.00    +0.070 A 
ATOM     35  C   LIG    1        4.111   7.431 -20.502  0.00  0.00    -0.030 A 
ATOM     36  C   LIG    1        5.435   7.056 -20.378  0.00  0.00    +0.260 A 
ATOM     37  N   LIG    1        5.992   6.931 -19.189  0.00  0.00    -0.480 NA
ENDBRANCH  31  32
ENDBRANCH  30  31
ENDBRANCH  27  30
ENDBRANCH  23  24
ENDBRANCH   5  23
TORSDOF 10
