REMARK  Name = ZINCrg000000ohzi.0
REMARK                            x       y       z     vdW  Elec       q    Type
REMARK                         _______ _______ _______ _____ _____    ______ ____
ROOT
ATOM      1  N   LIG    1        5.465   3.477  -2.930  0.00  0.00    -0.720 N 
ATOM      2  H   LIG    1        4.929   3.138  -3.664  0.00  0.00    +0.410 HD
ATOM      3  C   LIG    1        5.100   3.225  -1.657  0.00  0.00    +0.710 C 
ATOM      4  N   LIG    1        3.991   2.502  -1.404  0.00  0.00    -0.740 N 
ATOM      5  H   LIG    1        3.455   2.163  -2.138  0.00  0.00    +0.400 HD
ATOM      6  O   LIG    1        5.772   3.650  -0.737  0.00  0.00    -0.590 OA
ENDROOT
BRANCH   1   9
ATOM      7  C   LIG    1        8.168   4.549  -4.675  0.00  0.00    +0.150 C 
ATOM      8  C   LIG    1        7.862   3.417  -3.681  0.00  0.00    +0.020 C 
ATOM      9  C   LIG    1        6.670   4.263  -3.205  0.00  0.00    +0.280 C 
ATOM     10  C   LIG    1        6.676   4.914  -4.598  0.00  0.00    +0.140 C 
BRANCH  10  11
ATOM     11  O   LIG    1        5.869   4.225  -5.555  0.00  0.00    -0.350 OA
ATOM     12  C   LIG    1        5.312   5.072  -6.563  0.00  0.00    +0.210 C 
ENDBRANCH  10  11
BRANCH   7  13
ATOM     13  O   LIG    1        8.579   4.085  -5.963  0.00  0.00    -0.360 OA
BRANCH  13  15
ATOM     14  C   LIG    1       10.285   3.783  -7.647  0.00  0.00    +0.040 C 
ATOM     15  C   LIG    1        9.959   4.317  -6.251  0.00  0.00    +0.150 C 
ENDBRANCH  13  15
ENDBRANCH   7  13
ENDBRANCH   1   9
BRANCH   4  16
ATOM     16  C   LIG    1        3.595   2.228  -0.020  0.00  0.00    +0.350 C 
BRANCH  16  17
ATOM     17  C   LIG    1        2.331   1.408  -0.013  0.00  0.00    -0.160 A 
ATOM     18  C   LIG    1        1.098   2.027   0.003  0.00  0.00    +0.310 A 
ATOM     19  N   LIG    1       -0.016   1.319   0.009  0.00  0.00    -0.490 NA
ATOM     20  C   LIG    1        0.002  -0.004   0.002  0.00  0.00    +0.300 A 
ATOM     21  C   LIG    1        1.211  -0.696  -0.014  0.00  0.00    +0.030 A 
ATOM     22  F   LIG    1        1.228  -2.047  -0.022  0.00  0.00    -0.120 F 
ATOM     23  C   LIG    1        2.396   0.020  -0.021  0.00  0.00    +0.090 A 
BRANCH  20  24
ATOM     24  N   LIG    1       -1.197  -0.710   0.010  0.00  0.00    -0.470 N 
ATOM     25  C   LIG    1       -1.276  -1.627  -1.137  0.00  0.00    +0.180 C 
ATOM     26  C   LIG    1       -2.580  -2.424  -1.057  0.00  0.00    +0.250 C 
ATOM     27  O   LIG    1       -3.686  -1.518  -1.011  0.00  0.00    -0.380 OA
ATOM     28  C   LIG    1       -3.641  -0.611   0.094  0.00  0.00    +0.230 C 
ATOM     29  C   LIG    1       -2.347   0.205   0.026  0.00  0.00    +0.190 C 
ENDBRANCH  20  24
ENDBRANCH  16  17
ENDBRANCH   4  16
TORSDOF 7
