REMARK  Name = ZINCrH00000No4O0.0
REMARK                            x       y       z     vdW  Elec       q    Type
REMARK                         _______ _______ _______ _____ _____    ______ ____
ROOT
ATOM      1  C   LIG    1       -0.013   1.086   0.008  0.00  0.00    +0.270 C 
ATOM      2  C   LIG    1       -0.779   1.607  -1.220  0.00  0.00    +0.010 C 
ATOM      3  C   LIG    1       -1.948   2.453  -0.680  0.00  0.00    +0.030 C 
ATOM      4  C   LIG    1       -2.204   1.903   0.744  0.00  0.00    +0.010 C 
ATOM      5  C   LIG    1       -2.661   3.077   1.635  0.00  0.00    +0.270 C 
ATOM      6  N   LIG    1       -1.410   3.705   2.179  0.00  0.00    -0.620 N 
ATOM      7  C   LIG    1       -0.240   2.999   1.629  0.00  0.00    +0.260 C 
ATOM      8  C   LIG    1       -1.368   4.751   3.029  0.00  0.00    +0.570 C 
ATOM      9  O   LIG    1       -0.294   5.188   3.404  0.00  0.00    -0.550 OA
ATOM     10  C   LIG    1       -0.755   1.593   1.255  0.00  0.00    +0.000 C 
ENDROOT
BRANCH   1  12
ATOM     11  C   LIG    1        2.322   0.943  -0.673  0.00  0.00    +0.650 C 
ATOM     12  N   LIG    1        1.358   1.603  -0.002  0.00  0.00    -0.710 N 
ATOM     13  H   LIG    1        1.571   2.421   0.473  0.00  0.00    +0.410 HD
ATOM     14  O   LIG    1        2.056  -0.082  -1.269  0.00  0.00    -0.570 OA
BRANCH  11  15
ATOM     15  O   LIG    1        3.582   1.419  -0.682  0.00  0.00    -0.360 OA
BRANCH  15  17
ATOM     16  C   LIG    1        4.150   0.573  -2.894  0.00  0.00    +0.040 C 
ATOM     17  C   LIG    1        4.569   0.656  -1.425  0.00  0.00    +0.140 C 
ATOM     18  C   LIG    1        4.667  -0.755  -0.842  0.00  0.00    +0.040 C 
ATOM     19  C   LIG    1        5.931   1.346  -1.321  0.00  0.00    +0.080 C 
ENDBRANCH  15  17
ENDBRANCH  11  15
ENDBRANCH   1  12
BRANCH   8  20
ATOM     20  C   LIG    1       -2.568   5.340   3.484  0.00  0.00    -0.070 C 
ATOM     21  C   LIG    1       -2.526   6.388   4.336  0.00  0.00    +0.080 C 
BRANCH  21  22
ATOM     22  S   LIG    1       -4.023   7.122   4.904  0.00  0.00    -0.070 S 
BRANCH  22  23
ATOM     23  C   LIG    1       -3.352   8.421   5.971  0.00  0.00    +0.190 C 
BRANCH  23  24
ATOM     24  C   LIG    1       -4.484   9.203   6.584  0.00  0.00    -0.020 A 
ATOM     25  C   LIG    1       -5.095   8.921   7.749  0.00  0.00    -0.030 A 
ATOM     26  C   LIG    1       -6.090   9.907   7.939  0.00  0.00    -0.070 A 
ATOM     27  C   LIG    1       -6.033  10.728   6.875  0.00  0.00    +0.190 A 
ATOM     28  O   LIG    1       -5.059  10.297   6.058  0.00  0.00    -0.170 OA
ENDBRANCH  23  24
ENDBRANCH  22  23
ENDBRANCH  21  22
ENDBRANCH   8  20
TORSDOF 7
