REMARK  Name = ZINCpe000000WoMZ.0
REMARK                            x       y       z     vdW  Elec       q    Type
REMARK                         _______ _______ _______ _____ _____    ______ ____
ROOT
ATOM      1  C   LIG    1        1.073   2.258  -2.476  0.00  0.00    +0.360 C 
ENDROOT
BRANCH   1   5
ATOM      2  C   LIG    1        3.050   2.980   1.251  0.00  0.00    +0.130 A 
ATOM      3  C   LIG    1        3.617   3.417   0.064  0.00  0.00    -0.060 A 
ATOM      4  C   LIG    1        2.976   3.182  -1.139  0.00  0.00    +0.100 A 
ATOM      5  C   LIG    1        1.768   2.512  -1.163  0.00  0.00    -0.160 A 
ATOM      6  C   LIG    1        1.193   2.071   0.021  0.00  0.00    +0.130 A 
ATOM      7  C   LIG    1        1.832   2.310   1.232  0.00  0.00    +0.040 A 
BRANCH   2   9
ATOM      8  C   LIG    1        4.926   3.910   2.377  0.00  0.00    +0.240 C 
ATOM      9  O   LIG    1        3.681   3.211   2.433  0.00  0.00    -0.300 OA
ENDBRANCH   2   9
BRANCH   6  10
ATOM     10  O   LIG    1        0.004   1.412  -0.004  0.00  0.00    -0.320 OA
ATOM     11  C   LIG    1        0.050  -0.001  -0.209  0.00  0.00    +0.230 C 
ENDBRANCH   6  10
BRANCH   7  12
ATOM     12  O   LIG    1        1.269   1.884   2.395  0.00  0.00    -0.310 OA
ATOM     13  C   LIG    1        1.696   0.615   2.896  0.00  0.00    +0.220 C 
ENDBRANCH   7  12
ENDBRANCH   1   5
BRANCH   1  14
ATOM     14  N   LIG    1        0.011   3.249  -2.666  0.00  0.00    -0.600 N 
ATOM     15  C   LIG    1        0.278   4.413  -3.289  0.00  0.00    +0.500 C 
ATOM     16  O   LIG    1        1.398   4.641  -3.693  0.00  0.00    -0.510 OA
ATOM     17  C   LIG    1       -1.343   2.973  -2.177  0.00  0.00    +0.300 C 
BRANCH  15  18
ATOM     18  C   LIG    1       -0.815   5.432  -3.484  0.00  0.00    +0.380 C 
BRANCH  18  19
ATOM     19  N   LIG    1       -0.275   6.601  -4.182  0.00  0.00    -0.360 N 
ATOM     20  C   LIG    1       -0.740   7.144  -5.324  0.00  0.00    +0.510 A 
ATOM     21  N   LIG    1        0.007   8.171  -5.625  0.00  0.00    -0.510 NA
ATOM     22  C   LIG    1        0.967   8.322  -4.699  0.00  0.00    +0.300 A 
ATOM     23  N   LIG    1        0.827   7.379  -3.789  0.00  0.00    -0.230 NA
BRANCH  22  24
ATOM     24  C   LIG    1        1.972   9.341  -4.696  0.00  0.00    +0.310 C 
ATOM     25  N   LIG    1        2.770  10.150  -4.694  0.00  0.00    -0.360 NA
ENDBRANCH  22  24
ENDBRANCH  18  19
ENDBRANCH  15  18
ENDBRANCH   1  14
TORSDOF 8
