REMARK  Name = ZINCAx0000000e8G.0
REMARK                            x       y       z     vdW  Elec       q    Type
REMARK                         _______ _______ _______ _____ _____    ______ ____
ROOT
ATOM      1  C   LIG    1       -1.435   3.580   2.442  0.00  0.00    +0.160 C 
ENDROOT
BRANCH   1   2
ATOM      2  C   LIG    1       -0.084   3.107   2.981  0.00  0.00    +0.020 C 
ATOM      3  C   LIG    1        0.879   2.452   1.995  0.00  0.00    -0.110 C 
ATOM      4  C   LIG    1        2.381   2.705   1.822  0.00  0.00    +0.040 C 
ATOM      5  C   LIG    1        2.042   3.267   0.430  0.00  0.00    -0.000 C 
ATOM      6  C   LIG    1        0.778   2.390   0.466  0.00  0.00    +0.080 C 
ATOM      7  C   LIG    1        0.166   1.603   3.036  0.00  0.00    -0.150 C 
ATOM      8  C   LIG    1       -0.838   0.463   2.827  0.00  0.00    +0.060 C 
ATOM      9  C   LIG    1       -0.611   0.104   4.306  0.00  0.00    +0.010 C 
ATOM     10  C   LIG    1        0.766   0.779   4.181  0.00  0.00    +0.060 C 
ENDBRANCH   1   2
BRANCH   1  11
ATOM     11  N   LIG    1       -1.584   3.147   1.046  0.00  0.00    -0.500 NA
ATOM     12  C   LIG    1       -1.486   1.685   0.935  0.00  0.00    +0.190 C 
ATOM     13  C   LIG    1       -1.469   1.289  -0.545  0.00  0.00    +0.290 C 
ATOM     14  N   LIG    1       -2.637   1.890  -1.207  0.00  0.00    -0.610 N 
ATOM     15  C   LIG    1       -2.874   3.330  -1.027  0.00  0.00    +0.290 C 
ATOM     16  C   LIG    1       -3.468   1.140  -1.957  0.00  0.00    +0.520 C 
ATOM     17  O   LIG    1       -3.258  -0.046  -2.094  0.00  0.00    -0.520 OA
ATOM     18  C   LIG    1       -2.841   3.646   0.472  0.00  0.00    +0.170 C 
BRANCH  16  19
ATOM     19  C   LIG    1       -4.659   1.776  -2.627  0.00  0.00    +0.200 C 
BRANCH  19  20
ATOM     20  O   LIG    1       -5.381   0.784  -3.359  0.00  0.00    -0.350 OA
BRANCH  20  21
ATOM     21  C   LIG    1       -6.535   1.285  -4.035  0.00  0.00    +0.130 C 
ATOM     22  C   LIG    1       -6.839   0.435  -5.290  0.00  0.00    +0.030 C 
ATOM     23  C   LIG    1       -8.245  -0.144  -5.019  0.00  0.00    +0.210 C 
ATOM     24  O   LIG    1       -8.848   0.772  -4.080  0.00  0.00    -0.370 OA
ATOM     25  C   LIG    1       -7.793   1.121  -3.153  0.00  0.00    +0.180 C 
ENDBRANCH  20  21
ENDBRANCH  19  20
ENDBRANCH  16  19
ENDBRANCH   1  11
BRANCH   1  27
ATOM     26  O   LIG    1       -1.153   5.752   1.564  0.00  0.00    -0.510 OA
ATOM     27  C   LIG    1       -1.506   5.084   2.512  0.00  0.00    +0.520 C 
ATOM     28  N   LIG    1       -1.961   5.686   3.629  0.00  0.00    -0.730 N 
ATOM     29  H   LIG    1       -2.310   5.152   4.360  0.00  0.00    +0.400 HD
BRANCH  28  30
ATOM     30  C   LIG    1       -1.928   7.146   3.739  0.00  0.00    +0.320 C 
BRANCH  30  31
ATOM     31  C   LIG    1       -2.490   7.562   5.074  0.00  0.00    -0.120 A 
ATOM     32  C   LIG    1       -3.842   7.819   5.205  0.00  0.00    +0.070 A 
ATOM     33  C   LIG    1       -4.359   8.195   6.431  0.00  0.00    -0.020 A 
ATOM     34  C   LIG    1       -3.520   8.326   7.524  0.00  0.00    +0.110 A 
ATOM     35  C   LIG    1       -2.165   8.074   7.390  0.00  0.00    -0.010 A 
ATOM     36  F   LIG    1       -4.023   8.700   8.721  0.00  0.00    -0.140 F 
ATOM     37  C   LIG    1       -1.651   7.692   6.165  0.00  0.00    +0.070 A 
ENDBRANCH  30  31
ENDBRANCH  28  30
ENDBRANCH   1  27
TORSDOF 8
