REMARK  Name = ZINCtV000002PI3E.0
REMARK                            x       y       z     vdW  Elec       q    Type
REMARK                         _______ _______ _______ _____ _____    ______ ____
ROOT
ATOM      1  C   LIG    1       -2.014  -3.130   9.947  0.00  0.00    -0.020 A 
ATOM      2  C   LIG    1       -0.896  -3.866  10.293  0.00  0.00    -0.040 A 
ATOM      3  C   LIG    1        0.211  -3.879   9.464  0.00  0.00    +0.050 A 
ATOM      4  C   LIG    1        0.200  -3.160   8.285  0.00  0.00    -0.080 A 
ATOM      5  C   LIG    1       -0.920  -2.415   7.937  0.00  0.00    +0.220 A 
ATOM      6  C   LIG    1       -2.030  -2.405   8.772  0.00  0.00    -0.070 A 
ENDROOT
BRANCH   5   7
ATOM      7  N   LIG    1       -0.932  -1.684   6.747  0.00  0.00    -0.740 N 
ATOM      8  H   LIG    1       -1.716  -1.167   6.503  0.00  0.00    +0.400 HD
BRANCH   7   9
ATOM      9  C   LIG    1        0.240  -1.696   5.868  0.00  0.00    +0.310 C 
BRANCH   9  10
ATOM     10  C   LIG    1       -0.029  -0.834   4.661  0.00  0.00    -0.110 A 
ATOM     11  C   LIG    1        0.293   0.510   4.687  0.00  0.00    +0.020 A 
ATOM     12  C   LIG    1        0.048   1.301   3.580  0.00  0.00    +0.000 A 
ATOM     13  C   LIG    1       -0.520   0.748   2.448  0.00  0.00    -0.060 A 
ATOM     14  C   LIG    1       -0.847  -0.595   2.424  0.00  0.00    +0.000 A 
ATOM     15  C   LIG    1       -0.597  -1.387   3.529  0.00  0.00    +0.020 A 
BRANCH  13  16
ATOM     16  C   LIG    1       -0.789   1.611   1.242  0.00  0.00    +0.020 C 
ATOM     17  C   LIG    1       -0.013   1.086   0.008  0.00  0.00    +0.020 C 
ATOM     18  C   LIG    1       -0.809   1.622  -1.200  0.00  0.00    -0.010 C 
ATOM     19  C   LIG    1       -2.243   1.875  -0.703  0.00  0.00    -0.010 C 
ATOM     20  C   LIG    1       -2.268   1.485   0.789  0.00  0.00    +0.020 C 
ENDBRANCH  13  16
ENDBRANCH   9  10
ENDBRANCH   7   9
ENDBRANCH   5   7
BRANCH   1  21
ATOM     21  C   LIG    1       -3.218  -3.119  10.854  0.00  0.00    -0.190 C 
BRANCH  21  23
ATOM     22  O   LIG    1       -4.822  -4.251   9.072  0.00  0.00    -0.820 OA
ATOM     23  S   LIG    1       -4.337  -4.469  10.390  0.00  0.00    +1.260 S 
BRANCH  23  24
ATOM     24  C   LIG    1       -5.701  -4.294  11.573  0.00  0.00    -0.190 C 
BRANCH  24  25
ATOM     25  C   LIG    1       -6.731  -5.363  11.314  0.00  0.00    -0.070 A 
ATOM     26  C   LIG    1       -7.773  -5.120  10.438  0.00  0.00    +0.010 A 
ATOM     27  C   LIG    1       -8.716  -6.103  10.197  0.00  0.00    +0.000 A 
ATOM     28  C   LIG    1       -8.622  -7.323  10.838  0.00  0.00    +0.000 A 
ATOM     29  C   LIG    1       -7.583  -7.564  11.718  0.00  0.00    +0.010 A 
ATOM     30  C   LIG    1       -6.638  -6.584  11.956  0.00  0.00    +0.010 A 
ENDBRANCH  24  25
ENDBRANCH  23  24
ENDBRANCH  21  23
ENDBRANCH   1  21
TORSDOF 8
