REMARK  Name = ZINCpk000000oK0v.0
REMARK                            x       y       z     vdW  Elec       q    Type
REMARK                         _______ _______ _______ _____ _____    ______ ____
ROOT
ATOM      1  C   LIG    1       -5.001  -0.423  -4.208  0.00  0.00    +0.520 C 
ATOM      2  N   LIG    1       -4.024  -1.089  -3.560  0.00  0.00    -0.610 N 
ATOM      3  C   LIG    1       -4.321  -2.328  -2.829  0.00  0.00    +0.290 C 
ATOM      4  C   LIG    1       -3.811  -2.187  -1.391  0.00  0.00    +0.050 C 
ATOM      5  C   LIG    1       -2.328  -1.812  -1.415  0.00  0.00    +0.140 C 
ATOM      6  C   LIG    1       -2.152  -0.467  -2.124  0.00  0.00    -0.010 C 
ATOM      7  C   LIG    1       -2.643  -0.588  -3.570  0.00  0.00    +0.280 C 
ATOM      8  O   LIG    1       -6.118  -0.891  -4.266  0.00  0.00    -0.510 OA
ENDROOT
BRANCH   1  14
ATOM      9  N   LIG    1       -5.655   1.133  -5.958  0.00  0.00    -0.510 NA
ATOM     10  C   LIG    1       -5.411   2.436  -6.593  0.00  0.00    +0.170 C 
ATOM     11  C   LIG    1       -5.544   3.542  -5.543  0.00  0.00    +0.220 C 
ATOM     12  O   LIG    1       -4.635   3.284  -4.470  0.00  0.00    -0.380 OA
ATOM     13  C   LIG    1       -4.844   2.024  -3.828  0.00  0.00    +0.250 C 
ATOM     14  C   LIG    1       -4.704   0.902  -4.861  0.00  0.00    +0.100 C 
BRANCH   9  16
ATOM     15  C   LIG    1       -6.832   0.100  -7.841  0.00  0.00    +0.040 C 
ATOM     16  C   LIG    1       -5.593   0.046  -6.945  0.00  0.00    +0.160 C 
ENDBRANCH   9  16
ENDBRANCH   1  14
BRANCH   5  17
ATOM     17  O   LIG    1       -1.593  -2.818  -2.115  0.00  0.00    -0.550 OA
ATOM     18  H   LIG    1       -0.643  -2.645  -2.168  0.00  0.00    +0.380 HD
ENDBRANCH   5  17
BRANCH   5  19
ATOM     19  C   LIG    1       -1.806  -1.704   0.019  0.00  0.00    +0.070 C 
BRANCH  19  20
ATOM     20  C   LIG    1       -0.381  -1.215  -0.000  0.00  0.00    -0.060 A 
ATOM     21  C   LIG    1        0.660  -2.123  -0.065  0.00  0.00    +0.000 A 
ATOM     22  C   LIG    1        1.968  -1.677  -0.084  0.00  0.00    +0.060 A 
ATOM     23  C   LIG    1        2.237  -0.322  -0.038  0.00  0.00    -0.020 A 
ATOM     24  C   LIG    1        1.196   0.588   0.028  0.00  0.00    +0.100 A 
ATOM     25  F   LIG    1        1.458   1.913   0.073  0.00  0.00    -0.140 F 
ATOM     26  C   LIG    1       -0.114   0.140   0.046  0.00  0.00    -0.010 A 
ENDBRANCH  19  20
ENDBRANCH   5  19
TORSDOF 5
