REMARK  Name = ZINCnE000008J2Hg.0
REMARK                            x       y       z     vdW  Elec       q    Type
REMARK                         _______ _______ _______ _____ _____    ______ ____
ROOT
ATOM      1  C   LIG    1        2.993   5.088   3.919  0.00  0.00    +0.080 C 
ATOM      2  C   LIG    1        2.503   6.112   2.928  0.00  0.00    -0.150 A 
ATOM      3  C   LIG    1        2.618   7.454   3.212  0.00  0.00    +0.100 A 
ATOM      4  C   LIG    1        2.163   8.403   2.293  0.00  0.00    -0.160 A 
ATOM      5  C   LIG    1        1.594   7.986   1.088  0.00  0.00    +0.090 A 
ATOM      6  C   LIG    1        1.488   6.642   0.807  0.00  0.00    -0.160 A 
ATOM      7  C   LIG    1        1.936   5.700   1.726  0.00  0.00    +0.320 A 
ENDROOT
BRANCH   4   8
ATOM      8  C   LIG    1        2.285   9.844   2.596  0.00  0.00    +0.270 A 
ATOM      9  N   LIG    1        2.796  10.371   3.684  0.00  0.00    -0.320 NA
ATOM     10  N   LIG    1        2.737  11.654   3.602  0.00  0.00    -0.290 NA
ATOM     11  C   LIG    1        2.189  11.994   2.469  0.00  0.00    +0.350 A 
ATOM     12  O   LIG    1        1.896  10.863   1.803  0.00  0.00    -0.230 OA
ENDBRANCH   4   8
BRANCH   7  13
ATOM     13  N   LIG    1        1.821   4.340   1.441  0.00  0.00    -1.060 NA
BRANCH  13  14
ATOM     14  S   LIG    1        1.146   3.848   0.011  0.00  0.00    +2.600 S 
ATOM     15  O   LIG    1       -0.221   4.230   0.061  0.00  0.00    -1.020 OA
ATOM     16  O   LIG    1        2.034   4.266  -1.017  0.00  0.00    -1.010 OA
BRANCH  14  17
ATOM     17  C   LIG    1        1.170   2.086   0.002  0.00  0.00    -0.620 A 
ATOM     18  C   LIG    1       -0.017   1.378   0.010  0.00  0.00    +0.130 A 
ATOM     19  C   LIG    1        0.002  -0.004   0.002  0.00  0.00    -0.010 A 
ATOM     20  C   LIG    1        1.208  -0.679  -0.013  0.00  0.00    +0.060 A 
ATOM     21  C   LIG    1        2.396   0.027  -0.020  0.00  0.00    +0.000 A 
ATOM     22  C   LIG    1        2.378   1.410  -0.013  0.00  0.00    +0.060 A 
ATOM     23 CL   LIG    1        3.870   2.298  -0.023  0.00  0.00    -0.030 Cl
ENDBRANCH  14  17
ENDBRANCH  13  14
ENDBRANCH   7  13
TORSDOF 4
