REMARK  Name = ZINCpe00000VS7o8.0
REMARK                            x       y       z     vdW  Elec       q    Type
REMARK                         _______ _______ _______ _____ _____    ______ ____
ROOT
ATOM      1  N   LIG    1       -5.896   2.970   0.044  0.00  0.00    -0.520 NA
ATOM      2  C   LIG    1       -5.752   3.797   1.250  0.00  0.00    +0.200 C 
ATOM      3  C   LIG    1       -6.738   4.966   1.185  0.00  0.00    +0.200 C 
ATOM      4  N   LIG    1       -8.107   4.443   1.068  0.00  0.00    -0.520 NA
ATOM      5  C   LIG    1       -8.250   3.616  -0.138  0.00  0.00    +0.190 C 
ATOM      6  C   LIG    1       -7.264   2.447  -0.072  0.00  0.00    +0.190 C 
ENDROOT
BRANCH   1   8
ATOM      7  C   LIG    1       -5.101   1.010   1.279  0.00  0.00    +0.030 C 
ATOM      8  C   LIG    1       -4.912   1.879   0.034  0.00  0.00    +0.190 C 
BRANCH   8   9
ATOM      9  C   LIG    1       -3.521   2.457   0.031  0.00  0.00    +0.510 C 
ATOM     10  N   LIG    1       -2.451   1.637   0.022  0.00  0.00    -0.630 N 
ATOM     11  H   LIG    1       -2.576   0.676   0.017  0.00  0.00    +0.420 HD
ATOM     12  O   LIG    1       -3.363   3.660   0.037  0.00  0.00    -0.480 OA
BRANCH  10  13
ATOM     13  C   LIG    1       -1.169   2.170   0.019  0.00  0.00    +0.060 A 
ATOM     14  C   LIG    1       -0.017   1.428   0.010  0.00  0.00    -0.120 A 
ATOM     15  C   LIG    1        1.176   2.244   0.003  0.00  0.00    +0.080 A 
ATOM     16  C   LIG    1        0.919   3.545   0.012  0.00  0.00    -0.110 A 
ATOM     17  S   LIG    1       -0.812   3.836   0.030  0.00  0.00    +0.320 S 
BRANCH  14  18
ATOM     18  C   LIG    1        0.002  -0.004   0.002  0.00  0.00    +0.270 C 
ATOM     19  N   LIG    1        0.018  -1.140  -0.004  0.00  0.00    -0.420 NA
ENDBRANCH  14  18
ENDBRANCH  10  13
ENDBRANCH   8   9
ENDBRANCH   1   8
BRANCH   4  20
ATOM     20  C   LIG    1       -9.090   5.534   1.079  0.00  0.00    +0.220 C 
BRANCH  20  21
ATOM     21  C   LIG    1       -9.080   6.207   2.427  0.00  0.00    +0.520 C 
ATOM     22  N   LIG    1       -9.907   7.243   2.670  0.00  0.00    -0.710 N 
ATOM     23  H   LIG    1      -10.509   7.556   1.976  0.00  0.00    +0.400 HD
ATOM     24  O   LIG    1       -8.328   5.815   3.295  0.00  0.00    -0.520 OA
BRANCH  22  25
ATOM     25  C   LIG    1       -9.898   7.896   3.981  0.00  0.00    +0.220 C 
ATOM     26  C   LIG    1      -11.250   8.233   4.612  0.00  0.00    +0.010 C 
ATOM     27  C   LIG    1      -10.369   9.351   4.048  0.00  0.00    +0.010 C 
ENDBRANCH  22  25
ENDBRANCH  20  21
ENDBRANCH   4  20
TORSDOF 7
