REMARK  Name = ZINCrg000000oLAm.0
REMARK                            x       y       z     vdW  Elec       q    Type
REMARK                         _______ _______ _______ _____ _____    ______ ____
ROOT
ATOM      1  N   LIG    1       -1.006  -5.045   0.023  0.00  0.00    -0.730 N 
ATOM      2  H   LIG    1       -0.439  -4.597  -0.623  0.00  0.00    +0.400 HD
ATOM      3  C   LIG    1       -1.182  -6.380  -0.046  0.00  0.00    +0.520 C 
ATOM      4  O   LIG    1       -1.892  -6.941   0.762  0.00  0.00    -0.510 OA
ENDROOT
BRANCH   3   5
ATOM      5  C   LIG    1       -0.496  -7.175  -1.127  0.00  0.00    +0.220 C 
ATOM      6  C   LIG    1       -1.440  -7.360  -2.341  0.00  0.00    +0.060 C 
ATOM      7  C   LIG    1       -0.860  -8.643  -2.993  0.00  0.00    +0.040 C 
ATOM      8  C   LIG    1       -0.409  -9.477  -1.775  0.00  0.00    +0.250 C 
ATOM      9  N   LIG    1       -0.214  -8.543  -0.656  0.00  0.00    -0.600 N 
ATOM     10  C   LIG    1        0.162  -8.883   0.593  0.00  0.00    +0.580 C 
ATOM     11  O   LIG    1        0.195  -8.039   1.468  0.00  0.00    -0.510 OA
BRANCH  10  12
ATOM     12  C   LIG    1        0.534 -10.280   0.899  0.00  0.00    -0.130 A 
ATOM     13  C   LIG    1        0.354 -11.280  -0.059  0.00  0.00    +0.030 A 
ATOM     14  C   LIG    1        0.707 -12.581   0.232  0.00  0.00    +0.000 A 
ATOM     15  C   LIG    1        1.228 -12.899   1.473  0.00  0.00    +0.030 A 
ATOM     16  C   LIG    1        1.405 -11.914   2.429  0.00  0.00    +0.000 A 
ATOM     17  C   LIG    1        1.061 -10.608   2.150  0.00  0.00    +0.070 A 
ENDBRANCH  10  12
ENDBRANCH   3   5
BRANCH   1  18
ATOM     18  C   LIG    1       -1.673  -4.272   1.074  0.00  0.00    +0.290 C 
BRANCH  18  22
ATOM     19  C   LIG    1        0.246  -1.198   1.479  0.00  0.00    +0.160 C 
ATOM     20  C   LIG    1       -0.955  -0.884   2.398  0.00  0.00    +0.030 C 
ATOM     21  C   LIG    1       -2.002  -1.958   2.027  0.00  0.00    +0.030 C 
ATOM     22  C   LIG    1       -1.309  -2.793   0.928  0.00  0.00    +0.140 C 
ATOM     23  O   LIG    1        0.104  -2.597   1.151  0.00  0.00    -0.340 OA
BRANCH  19  26
ATOM     24  C   LIG    1        3.135   0.517   3.315  0.00  0.00    +0.290 C 
ATOM     25  N   LIG    1        1.875   0.286   2.604  0.00  0.00    -0.620 N 
ATOM     26  C   LIG    1        1.542  -0.960   2.211  0.00  0.00    +0.520 C 
ATOM     27  O   LIG    1        2.285  -1.889   2.446  0.00  0.00    -0.510 OA
ATOM     28  C   LIG    1        0.980   1.409   2.315  0.00  0.00    +0.280 C 
ENDBRANCH  19  26
ENDBRANCH  18  22
ENDBRANCH   1  18
TORSDOF 5
