REMARK  Name = ZINCrD00000F5Llr.0
REMARK                            x       y       z     vdW  Elec       q    Type
REMARK                         _______ _______ _______ _____ _____    ______ ____
ROOT
ATOM      1  C   LIG    1        1.222   3.441   0.021  0.00  0.00    +0.150 C 
ATOM      2  C   LIG    1        1.240   2.091   0.012  0.00  0.00    -0.090 C 
ENDROOT
BRANCH   1   5
ATOM      3  C   LIG    1        3.658   6.294   0.031  0.00  0.00    +0.110 A 
ATOM      4  C   LIG    1        2.469   5.593   0.026  0.00  0.00    +0.000 A 
ATOM      5  C   LIG    1        2.485   4.193   0.021  0.00  0.00    -0.070 A 
ATOM      6  C   LIG    1        3.707   3.512   0.011  0.00  0.00    +0.050 A 
ATOM      7  C   LIG    1        4.890   4.220   0.011  0.00  0.00    -0.010 A 
ATOM      8  C   LIG    1        4.873   5.608   0.021  0.00  0.00    +0.090 A 
BRANCH   3  10
ATOM      9  C   LIG    1        2.367   8.291   0.051  0.00  0.00    +0.250 C 
ATOM     10  O   LIG    1        3.646   7.654   0.041  0.00  0.00    -0.300 OA
ENDBRANCH   3  10
BRANCH   8  11
ATOM     11  O   LIG    1        6.042   6.299   0.020  0.00  0.00    -0.310 OA
BRANCH  11  12
ATOM     12  C   LIG    1        7.248   5.534   0.009  0.00  0.00    +0.600 C 
ATOM     13  F   LIG    1        7.283   4.736  -1.139  0.00  0.00    -0.200 F 
ATOM     14  F   LIG    1        7.294   4.719   1.145  0.00  0.00    -0.200 F 
ENDBRANCH  11  12
ENDBRANCH   8  11
ENDBRANCH   1   5
BRANCH   2  15
ATOM     15  C   LIG    1       -0.016   1.343   0.012  0.00  0.00    +0.550 C 
ATOM     16  N   LIG    1        0.002  -0.004   0.002  0.00  0.00    -0.680 N 
ATOM     17  H   LIG    1        0.845  -0.477  -0.084  0.00  0.00    +0.420 HD
ATOM     18  O   LIG    1       -1.078   1.938   0.016  0.00  0.00    -0.510 OA
BRANCH  16  19
ATOM     19  C   LIG    1       -1.194  -0.720   0.115  0.00  0.00    +0.240 A 
ATOM     20  C   LIG    1       -2.294  -0.143   0.735  0.00  0.00    +0.000 A 
ATOM     21  C   LIG    1       -3.474  -0.853   0.845  0.00  0.00    +0.100 A 
ATOM     22  C   LIG    1       -3.560  -2.137   0.339  0.00  0.00    -0.020 A 
ATOM     23  C   LIG    1       -2.465  -2.715  -0.278  0.00  0.00    +0.150 A 
ATOM     24  C   LIG    1       -1.285  -2.008  -0.397  0.00  0.00    -0.690 A 
BRANCH  24  25
ATOM     25  S   LIG    1        0.107  -2.742  -1.191  0.00  0.00    +2.500 S 
ATOM     26  O   LIG    1       -0.342  -4.041  -1.554  0.00  0.00    -0.930 OA
ATOM     27  O   LIG    1        1.171  -2.567  -0.266  0.00  0.00    -0.940 OA
ATOM     28  C   LIG    1        0.373  -1.724  -2.669  0.00  0.00    -0.240 C 
ENDBRANCH  24  25
ENDBRANCH  16  19
ENDBRANCH   2  15
TORSDOF 7
