REMARK  Name = ZINCvU00000007Em.0
REMARK                            x       y       z     vdW  Elec       q    Type
REMARK                         _______ _______ _______ _____ _____    ______ ____
ROOT
ATOM      1  C   LIG    1        2.814  -0.691   1.981  0.00  0.00    -0.690 A 
ATOM      2  C   LIG    1        3.794  -1.642   2.173  0.00  0.00    +0.220 A 
ATOM      3  C   LIG    1        3.461  -2.883   2.720  0.00  0.00    -0.150 A 
ATOM      4  C   LIG    1        2.135  -3.156   3.059  0.00  0.00    +0.130 A 
ATOM      5  C   LIG    1        1.163  -2.199   2.858  0.00  0.00    +0.030 A 
ATOM      6  C   LIG    1        1.500  -0.968   2.320  0.00  0.00    +0.070 A 
ATOM      7 CL   LIG    1        0.271   0.232   2.069  0.00  0.00    -0.010 Cl
ENDROOT
BRANCH   3   8
ATOM      8  C   LIG    1        4.508  -3.904   2.934  0.00  0.00    +0.560 C 
ATOM      9  N   LIG    1        4.182  -5.103   3.457  0.00  0.00    -0.660 N 
ATOM     10  H   LIG    1        3.279  -5.266   3.770  0.00  0.00    +0.410 HD
ATOM     11  O   LIG    1        5.662  -3.663   2.637  0.00  0.00    -0.500 OA
BRANCH   9  12
ATOM     12  C   LIG    1        5.147  -6.110   3.549  0.00  0.00    +0.140 A 
ATOM     13  C   LIG    1        6.247  -6.101   2.701  0.00  0.00    +0.020 A 
ATOM     14  C   LIG    1        7.201  -7.095   2.798  0.00  0.00    +0.030 A 
ATOM     15  C   LIG    1        7.057  -8.105   3.731  0.00  0.00    -0.010 A 
ATOM     16  C   LIG    1        5.960  -8.120   4.574  0.00  0.00    +0.030 A 
ATOM     17  C   LIG    1        5.006  -7.126   4.486  0.00  0.00    -0.120 A 
ATOM     18  C   LIG    1        3.811  -7.144   5.405  0.00  0.00    +0.090 C 
ENDBRANCH   9  12
ENDBRANCH   3   8
BRANCH   1  19
ATOM     19  S   LIG    1        3.233   0.878   1.296  0.00  0.00    +2.680 S 
ATOM     20  O   LIG    1        2.509   1.847   2.042  0.00  0.00    -0.920 OA
ATOM     21  O   LIG    1        4.649   0.894   1.168  0.00  0.00    -0.930 OA
BRANCH  19  22
ATOM     22  N   LIG    1        2.624   0.920  -0.243  0.00  0.00    -0.940 N 
BRANCH  22  23
ATOM     23  C   LIG    1        1.395   1.538  -0.491  0.00  0.00    +0.140 A 
ATOM     24  C   LIG    1        0.235   0.777  -0.561  0.00  0.00    +0.050 A 
ATOM     25  C   LIG    1       -0.977   1.391  -0.813  0.00  0.00    +0.030 A 
ATOM     26  C   LIG    1       -1.038   2.761  -0.983  0.00  0.00    +0.050 A 
ATOM     27  C   LIG    1        0.115   3.522  -0.914  0.00  0.00    +0.030 A 
ATOM     28  C   LIG    1        1.331   2.915  -0.668  0.00  0.00    -0.010 A 
ATOM     29 CL   LIG    1        2.778   3.871  -0.580  0.00  0.00    -0.050 Cl
ENDBRANCH  22  23
BRANCH  22  30
ATOM     30  C   LIG    1        3.372   0.309  -1.344  0.00  0.00    +0.340 C 
BRANCH  30  32
ATOM     31  C   LIG    1        5.496   1.191  -2.164  0.00  0.00    +0.040 C 
ATOM     32  C   LIG    1        4.204   1.362  -2.030  0.00  0.00    -0.070 C 
ENDBRANCH  30  32
ENDBRANCH  22  30
ENDBRANCH  19  22
ENDBRANCH   1  19
TORSDOF 7
