REMARK  Name = ZINCpk00000KfLK3.0
REMARK                            x       y       z     vdW  Elec       q    Type
REMARK                         _______ _______ _______ _____ _____    ______ ____
ROOT
ATOM      1  O   LIG    1       -5.923   2.122  -1.006  0.00  0.00    -0.540 OA
ATOM      2  C   LIG    1       -5.328   2.261   0.042  0.00  0.00    +0.520 C 
ATOM      3  N   LIG    1       -4.019   2.583   0.037  0.00  0.00    -0.610 N 
ATOM      4  C   LIG    1       -3.299   2.768  -1.230  0.00  0.00    +0.290 C 
ATOM      5  C   LIG    1       -2.057   1.871  -1.227  0.00  0.00    +0.020 C 
ATOM      6  C   LIG    1       -1.222   2.168   0.020  0.00  0.00    +0.280 C 
ATOM      7  C   LIG    1       -2.044   1.858   1.273  0.00  0.00    +0.020 C 
ATOM      8  C   LIG    1       -3.286   2.755   1.298  0.00  0.00    +0.280 C 
ENDROOT
BRANCH   6   9
ATOM      9  N   LIG    1       -0.016   1.335   0.009  0.00  0.00    -0.630 N 
ATOM     10  C   LIG    1        1.366   1.837  -0.001  0.00  0.00    +0.250 C 
ATOM     11  C   LIG    1        2.224   0.557  -0.016  0.00  0.00    +0.250 C 
ATOM     12  N   LIG    1        1.234  -0.530  -0.013  0.00  0.00    -0.740 N 
ATOM     13  H   LIG    1        1.440  -1.478  -0.020  0.00  0.00    +0.430 HD
ATOM     14  C   LIG    1        0.002  -0.004   0.002  0.00  0.00    +0.700 C 
ATOM     15  O   LIG    1       -1.008  -0.681   0.008  0.00  0.00    -0.580 OA
ENDBRANCH   6   9
BRANCH   2  16
ATOM     16  C   LIG    1       -6.053   2.074   1.350  0.00  0.00    +0.040 C 
BRANCH  16  17
ATOM     17  C   LIG    1       -7.515   1.717   1.076  0.00  0.00    +0.340 C 
BRANCH  17  18
ATOM     18  N   LIG    1       -8.220   1.536   2.348  0.00  0.00    -0.490 N 
ATOM     19  C   LIG    1       -8.428   0.356   2.994  0.00  0.00    +0.470 A 
ATOM     20  N   LIG    1       -9.088   0.560   4.096  0.00  0.00    -0.500 NA
ATOM     21  C   LIG    1       -9.350   1.886   4.233  0.00  0.00    +0.040 A 
ATOM     22  C   LIG    1      -10.011   2.642   5.203  0.00  0.00    +0.070 A 
ATOM     23  C   LIG    1      -10.115   3.997   5.057  0.00  0.00    +0.000 A 
ATOM     24  C   LIG    1       -9.569   4.633   3.952  0.00  0.00    +0.030 A 
ATOM     25  C   LIG    1       -8.911   3.907   2.982  0.00  0.00    +0.010 A 
ATOM     26  C   LIG    1       -8.791   2.530   3.116  0.00  0.00    +0.050 A 
ENDBRANCH  17  18
ENDBRANCH  16  17
ENDBRANCH   2  16
TORSDOF 4
