REMARK  Name = ZINCbw0000000HcC.0
REMARK                            x       y       z     vdW  Elec       q    Type
REMARK                         _______ _______ _______ _____ _____    ______ ____
ROOT
ATOM      1  C   LIG    1       -0.019   3.749  -0.901  0.00  0.00    +0.000 C 
ATOM      2  C   LIG    1        1.165   2.792  -1.042  0.00  0.00    +0.040 C 
ATOM      3  C   LIG    1        1.117   1.753   0.084  0.00  0.00    +0.020 C 
ATOM      4  C   LIG    1       -0.237   1.078   0.058  0.00  0.00    +0.360 C 
ATOM      5  C   LIG    1       -1.472   1.950   0.040  0.00  0.00    +0.020 C 
ATOM      6  O   LIG    1       -0.328  -0.126   0.046  0.00  0.00    -0.460 OA
ATOM      7  C   LIG    1       -1.330   2.982  -1.078  0.00  0.00    +0.000 C 
ATOM      8  C   LIG    1       -2.506   3.960  -1.025  0.00  0.00    +0.030 C 
ENDROOT
BRANCH   1  10
ATOM      9  C   LIG    1        1.321   5.697  -1.709  0.00  0.00    +0.010 C 
ATOM     10  C   LIG    1        0.079   4.841  -1.968  0.00  0.00    -0.010 C 
ATOM     11  C   LIG    1        0.185   4.194  -3.351  0.00  0.00    +0.020 C 
ENDBRANCH   1  10
TORSDOF 1
