REMARK  Name = ZINCtV00000tRRk6.0
REMARK                            x       y       z     vdW  Elec       q    Type
REMARK                         _______ _______ _______ _____ _____    ______ ____
ROOT
ATOM      1  P   LIG    1        0.025  -0.667   1.469  0.00  0.00    +2.420 P 
ATOM      2  O   LIG    1       -1.044  -0.067   2.298  0.00  0.00    -1.010 OA
ENDROOT
BRANCH   1   3
ATOM      3  N   LIG    1        1.481  -0.390   2.171  0.00  0.00    -1.090 N 
ATOM      4  H   LIG    1        1.532   0.103   3.005  0.00  0.00    +0.430 HD
BRANCH   3   8
ATOM      5  C   LIG    1        4.964  -1.809   0.367  0.00  0.00    +0.070 A 
ATOM      6  C   LIG    1        3.733  -2.040  -0.224  0.00  0.00    +0.030 A 
ATOM      7  C   LIG    1        2.578  -1.571   0.374  0.00  0.00    -0.080 A 
ATOM      8  C   LIG    1        2.651  -0.865   1.567  0.00  0.00    +0.170 A 
ATOM      9  C   LIG    1        3.884  -0.626   2.159  0.00  0.00    -0.070 A 
ATOM     10  C   LIG    1        5.040  -1.102   1.563  0.00  0.00    +0.140 A 
BRANCH   5  12
ATOM     11  C   LIG    1        5.947  -2.989  -1.450  0.00  0.00    +0.240 C 
ATOM     12  O   LIG    1        6.099  -2.272  -0.223  0.00  0.00    -0.300 OA
ENDBRANCH   5  12
BRANCH  10  13
ATOM     13  O   LIG    1        6.248  -0.874   2.144  0.00  0.00    -0.300 OA
ATOM     14  C   LIG    1        6.251  -0.142   3.371  0.00  0.00    +0.250 C 
ENDBRANCH  10  13
ENDBRANCH   3   8
ENDBRANCH   1   3
BRANCH   1  15
ATOM     15  O   LIG    1       -0.218  -2.253   1.345  0.00  0.00    -0.640 OA
BRANCH  15  16
ATOM     16  C   LIG    1       -0.536  -2.857   2.521  0.00  0.00    +0.100 A 
ATOM     17  C   LIG    1        0.466  -3.366   3.333  0.00  0.00    +0.010 A 
ATOM     18  C   LIG    1        0.141  -3.976   4.530  0.00  0.00    +0.060 A 
ATOM     19  C   LIG    1       -1.184  -4.088   4.913  0.00  0.00    -0.030 A 
ATOM     20  C   LIG    1       -2.186  -3.585   4.101  0.00  0.00    +0.060 A 
ATOM     21 CL   LIG    1       -1.591  -4.860   6.413  0.00  0.00    -0.060 Cl
ATOM     22  C   LIG    1       -1.864  -2.971   2.906  0.00  0.00    +0.050 A 
ENDBRANCH  15  16
ENDBRANCH   1  15
BRANCH   1  23
ATOM     23  O   LIG    1        0.002  -0.004   0.002  0.00  0.00    -0.640 OA
BRANCH  23  24
ATOM     24  C   LIG    1       -0.016   1.355   0.009  0.00  0.00    +0.090 A 
ATOM     25  C   LIG    1       -1.226   2.033   0.019  0.00  0.00    +0.050 A 
ATOM     26  C   LIG    1       -1.243   3.414   0.031  0.00  0.00    +0.060 A 
ATOM     27  C   LIG    1       -0.054   4.122   0.024  0.00  0.00    -0.030 A 
ATOM     28  C   LIG    1        1.154   3.447   0.009  0.00  0.00    +0.060 A 
ATOM     29 CL   LIG    1       -0.077   5.857   0.032  0.00  0.00    -0.060 Cl
ATOM     30  C   LIG    1        1.175   2.066   0.002  0.00  0.00    +0.010 A 
ENDBRANCH  23  24
ENDBRANCH   1  23
TORSDOF 8
