REMARK  Name = ZINCqH0000002edN.0
REMARK                            x       y       z     vdW  Elec       q    Type
REMARK                         _______ _______ _______ _____ _____    ______ ____
ROOT
ATOM      1  C   LIG    1        5.502   3.114  -3.810  0.00  0.00    -0.140 A 
ATOM      2  C   LIG    1        5.311   1.792  -4.223  0.00  0.00    +0.100 A 
ATOM      3  C   LIG    1        4.503   0.954  -3.490  0.00  0.00    +0.020 A 
ATOM      4  C   LIG    1        3.875   1.421  -2.338  0.00  0.00    +0.180 A 
ATOM      5  C   LIG    1        4.058   2.739  -1.928  0.00  0.00    -0.010 A 
ATOM      6  C   LIG    1        4.870   3.580  -2.654  0.00  0.00    +0.060 A 
ENDROOT
BRANCH   1   9
ATOM      7  N   LIG    1        6.550   5.290  -4.195  0.00  0.00    -0.720 N 
ATOM      8  H   LIG    1        6.112   5.614  -3.393  0.00  0.00    +0.400 HD
ATOM      9  C   LIG    1        6.367   4.016  -4.594  0.00  0.00    +0.560 C 
ATOM     10  O   LIG    1        6.916   3.609  -5.600  0.00  0.00    -0.530 OA
BRANCH   7  11
ATOM     11  C   LIG    1        7.409   6.185  -4.974  0.00  0.00    +0.230 C 
BRANCH  11  13
ATOM     12  C   LIG    1        5.576   7.857  -5.274  0.00  0.00    +0.020 C 
ATOM     13  C   LIG    1        6.989   7.636  -4.729  0.00  0.00    +0.020 C 
ENDBRANCH  11  13
BRANCH  11  14
ATOM     14  C   LIG    1        8.865   5.996  -4.543  0.00  0.00    -0.010 C 
ATOM     15  C   LIG    1        9.324   4.581  -4.902  0.00  0.00    +0.020 C 
ENDBRANCH  11  14
ENDBRANCH   7  11
ENDBRANCH   1   9
BRANCH   4  16
ATOM     16  N   LIG    1        3.058   0.572  -1.600  0.00  0.00    -0.950 N 
ATOM     17  C   LIG    1        1.829   0.038  -2.193  0.00  0.00    +0.320 C 
BRANCH  16  18
ATOM     18  S   LIG    1        3.474   0.164  -0.050  0.00  0.00    +2.690 S 
ATOM     19  O   LIG    1        2.892  -1.108   0.200  0.00  0.00    -0.940 OA
ATOM     20  O   LIG    1        4.867   0.418   0.071  0.00  0.00    -0.940 OA
BRANCH  18  21
ATOM     21  C   LIG    1        2.665   1.302   1.024  0.00  0.00    -0.690 A 
ATOM     22  C   LIG    1        1.359   1.075   1.414  0.00  0.00    +0.130 A 
ATOM     23  C   LIG    1        0.722   1.970   2.253  0.00  0.00    -0.010 A 
ATOM     24  C   LIG    1        1.395   3.088   2.710  0.00  0.00    -0.030 A 
ATOM     25  C   LIG    1        2.702   3.315   2.320  0.00  0.00    -0.010 A 
ATOM     26  C   LIG    1        0.703   4.062   3.628  0.00  0.00    +0.090 C 
ATOM     27  C   LIG    1        3.337   2.422   1.477  0.00  0.00    +0.120 A 
ENDBRANCH  18  21
ENDBRANCH  16  18
ENDBRANCH   4  16
TORSDOF 7
