REMARK  Name = ZINCrH000004nIk0.0
REMARK                            x       y       z     vdW  Elec       q    Type
REMARK                         _______ _______ _______ _____ _____    ______ ____
ROOT
ATOM      1  C   LIG    1        2.736  -4.394  -0.052  0.00  0.00    +0.150 A 
ATOM      2  C   LIG    1        3.626  -3.343  -0.237  0.00  0.00    +0.020 A 
ATOM      3  C   LIG    1        3.169  -2.042  -0.232  0.00  0.00    +0.070 A 
ATOM      4  C   LIG    1        1.813  -1.782  -0.040  0.00  0.00    -0.030 A 
ATOM      5  C   LIG    1        0.923  -2.837   0.152  0.00  0.00    +0.050 A 
ATOM      6  C   LIG    1        1.383  -4.137   0.140  0.00  0.00    -0.010 A 
ENDROOT
BRANCH   4   7
ATOM      7  C   LIG    1        1.319  -0.383  -0.034  0.00  0.00    +0.100 A 
ATOM      8  C   LIG    1        0.025   0.005   0.142  0.00  0.00    +0.100 A 
ATOM      9  N   LIG    1        0.003   1.371   0.079  0.00  0.00    -0.360 N 
ATOM     10  C   LIG    1       -1.008   2.281   0.192  0.00  0.00    +0.210 A 
ATOM     11  C   LIG    1       -0.758   3.603   0.085  0.00  0.00    +0.010 A 
ATOM     12  C   LIG    1        0.552   4.061  -0.134  0.00  0.00    +0.040 A 
ATOM     13  C   LIG    1        1.570   3.166  -0.244  0.00  0.00    +0.070 A 
ATOM     14  C   LIG    1        1.292   1.788  -0.136  0.00  0.00    +0.230 A 
ATOM     15  N   LIG    1        2.070   0.717  -0.201  0.00  0.00    -0.480 NA
ENDBRANCH   4   7
BRANCH   1  17
ATOM     16  C   LIG    1        4.429  -5.996   0.422  0.00  0.00    +0.580 C 
ATOM     17  N   LIG    1        3.201  -5.713  -0.058  0.00  0.00    -0.650 N 
ATOM     18  H   LIG    1        2.641  -6.423  -0.407  0.00  0.00    +0.420 HD
ATOM     19  O   LIG    1        5.092  -5.123   0.947  0.00  0.00    -0.500 OA
BRANCH  16  23
ATOM     20  C   LIG    1        5.935  -9.908   0.088  0.00  0.00    +0.140 A 
ATOM     21  C   LIG    1        4.675  -9.548  -0.387  0.00  0.00    +0.190 A 
ATOM     22  N   LIG    1        4.234  -8.317  -0.261  0.00  0.00    -0.390 NA
ATOM     23  C   LIG    1        4.967  -7.367   0.309  0.00  0.00    -0.000 A 
ATOM     24  C   LIG    1        6.240  -7.654   0.809  0.00  0.00    +0.160 A 
ATOM     25  F   LIG    1        6.981  -6.687   1.393  0.00  0.00    -0.090 F 
ATOM     26  C   LIG    1        6.733  -8.945   0.697  0.00  0.00    +0.010 A 
BRANCH  20  28
ATOM     27  C   LIG    1        5.499 -12.114  -0.680  0.00  0.00    +0.270 C 
ATOM     28  O   LIG    1        6.378 -11.184  -0.043  0.00  0.00    -0.300 OA
ENDBRANCH  20  28
ENDBRANCH  16  23
ENDBRANCH   1  17
TORSDOF 4
