REMARK  Name = ZINC650000003W0v.1
REMARK                            x       y       z     vdW  Elec       q    Type
REMARK                         _______ _______ _______ _____ _____    ______ ____
ROOT
ATOM      1  C   LIG    1       -1.237   1.651   0.017  0.00  0.00    +0.320 C 
ATOM      2  C   LIG    1       -1.397   2.994   0.031  0.00  0.00    +0.160 C 
ATOM      3  N   LIG    1       -2.752   3.229   0.033  0.00  0.00    -0.490 N 
ATOM      4  H   LIG    1       -3.185   4.097   0.039  0.00  0.00    +0.470 HD
ATOM      5  C   LIG    1       -3.365   2.027   0.029  0.00  0.00    +0.570 C 
ATOM      6  N   LIG    1       -2.457   1.089   0.020  0.00  0.00    -0.510 N 
ATOM      7  H   LIG    1       -2.635   0.136   0.015  0.00  0.00    +0.460 HD
ENDROOT
BRANCH   1   8
ATOM      8  N   LIG    1       -0.011   0.966   0.007  0.00  0.00    -0.840 N 
ATOM      9  H   LIG    1        0.822   1.462   0.002  0.00  0.00    +0.430 HD
ATOM     10  H   LIG    1        0.002  -0.004   0.002  0.00  0.00    +0.420 HD
ENDBRANCH   1   8
TORSDOF 1
