REMARK  Name = ZINC650000003W0v.0
REMARK                            x       y       z     vdW  Elec       q    Type
REMARK                         _______ _______ _______ _____ _____    ______ ____
ROOT
ATOM      1  C   LIG    1        1.276  -0.432  -0.012  0.00  0.00    +0.280 A 
ATOM      2  C   LIG    1        2.079   0.655  -0.014  0.00  0.00    +0.030 A 
ATOM      3  N   LIG    1        1.255   1.755  -0.001  0.00  0.00    -0.560 N 
ATOM      4  H   LIG    1        1.535   2.684   0.002  0.00  0.00    +0.420 HD
ATOM      5  C   LIG    1       -0.016   1.302   0.009  0.00  0.00    +0.420 A 
ATOM      6  N   LIG    1        0.002  -0.004   0.002  0.00  0.00    -0.530 NA
ENDROOT
BRANCH   1   7
ATOM      7  N   LIG    1        1.697  -1.771  -0.023  0.00  0.00    -0.860 N 
ATOM      8  H   LIG    1        2.644  -1.982  -0.033  0.00  0.00    +0.400 HD
ATOM      9  H   LIG    1        1.042  -2.486  -0.021  0.00  0.00    +0.400 HD
ENDBRANCH   1   7
TORSDOF 1
