REMARK  Name = ZINCpe00000bRpix.1
REMARK                            x       y       z     vdW  Elec       q    Type
REMARK                         _______ _______ _______ _____ _____    ______ ____
ROOT
ATOM      1  C   LIG    1       -2.705   0.419  -1.258  0.00  0.00    +0.040 C 
ATOM      2  C   LIG    1       -2.522   1.247   0.015  0.00  0.00    +0.220 C 
ATOM      3  C   LIG    1       -3.562   2.386   0.058  0.00  0.00    +0.060 C 
ATOM      4  C   LIG    1       -2.755   3.574   0.645  0.00  0.00    -0.030 C 
ATOM      5  C   LIG    1       -1.356   3.336   0.026  0.00  0.00    +0.280 C 
ATOM      6  N   LIG    1       -1.191   1.871   0.018  0.00  0.00    -0.590 N 
ATOM      7  C   LIG    1       -0.014   1.214   0.009  0.00  0.00    +0.630 C 
ATOM      8  O   LIG    1        0.002  -0.004   0.002  0.00  0.00    -0.540 OA
ENDROOT
BRANCH   7   9
ATOM      9  C   LIG    1        1.242   1.962   0.001  0.00  0.00    +0.080 A 
ATOM     10  N   LIG    1        1.353   3.283   0.007  0.00  0.00    -0.400 NA
ATOM     11  C   LIG    1        2.628   3.626  -0.003  0.00  0.00    +0.180 A 
ATOM     12  C   LIG    1        3.387   2.458  -0.017  0.00  0.00    +0.030 A 
ATOM     13  C   LIG    1        4.768   2.204  -0.032  0.00  0.00    +0.070 A 
ATOM     14  C   LIG    1        5.207   0.913  -0.044  0.00  0.00    +0.030 A 
ATOM     15  C   LIG    1        4.275  -0.136  -0.041  0.00  0.00    +0.030 A 
ATOM     16  C   LIG    1        2.949   0.128  -0.026  0.00  0.00    +0.240 A 
ATOM     17  N   LIG    1        2.498   1.412  -0.009  0.00  0.00    -0.320 N 
ENDBRANCH   7   9
BRANCH   4  18
ATOM     18  C   LIG    1       -3.337   4.913   0.188  0.00  0.00    +0.280 C 
BRANCH  18  19
ATOM     19  N   LIG    1       -2.533   6.008   0.735  0.00  0.00    -0.730 N 
ATOM     20  H   LIG    1       -1.764   5.813   1.294  0.00  0.00    +0.400 HD
ATOM     21  C   LIG    1       -2.860   7.287   0.462  0.00  0.00    +0.510 C 
ATOM     22  O   LIG    1       -3.821   7.531  -0.237  0.00  0.00    -0.520 OA
BRANCH  21  23
ATOM     23  C   LIG    1       -2.032   8.413   1.025  0.00  0.00    +0.200 C 
BRANCH  23  24
ATOM     24  N   LIG    1       -2.591   9.699   0.586  0.00  0.00    -0.530 NA
ATOM     25  C   LIG    1       -2.459   9.861  -0.869  0.00  0.00    +0.200 C 
ATOM     26  C   LIG    1       -1.962  10.818   1.299  0.00  0.00    +0.190 C 
ENDBRANCH  23  24
ENDBRANCH  21  23
ENDBRANCH  18  19
ENDBRANCH   4  18
TORSDOF 5
