REMARK  Name = ZINCqH0000037Y8x.0
REMARK                            x       y       z     vdW  Elec       q    Type
REMARK                         _______ _______ _______ _____ _____    ______ ____
ROOT
ATOM      1  C   LIG    1        6.673   1.216   3.039  0.00  0.00    +0.520 C 
ATOM      2  N   LIG    1        5.800   1.616   2.093  0.00  0.00    -0.530 N 
ATOM      3  H   LIG    1        6.082   2.240   1.406  0.00  0.00    +0.430 HD
ATOM      4  O   LIG    1        6.321   0.436   3.898  0.00  0.00    -0.520 OA
ENDROOT
BRANCH   2   5
ATOM      5  N   LIG    1        4.486   1.131   2.103  0.00  0.00    -0.530 N 
ATOM      6  H   LIG    1        4.204   0.507   2.791  0.00  0.00    +0.430 HD
ATOM      7  C   LIG    1        3.613   1.531   1.157  0.00  0.00    +0.510 C 
ATOM      8  O   LIG    1        3.965   2.311   0.298  0.00  0.00    -0.540 OA
BRANCH   7   9
ATOM      9  C   LIG    1        2.199   1.009   1.168  0.00  0.00    +0.070 C 
BRANCH   9  10
ATOM     10  C   LIG    1        1.423   1.615  -0.003  0.00  0.00    +0.040 C 
BRANCH  10  11
ATOM     11  C   LIG    1       -0.013   1.086   0.008  0.00  0.00    -0.020 C 
ATOM     12  C   LIG    1       -0.729   1.579   1.267  0.00  0.00    +0.000 C 
ATOM     13  C   LIG    1       -2.164   1.050   1.278  0.00  0.00    +0.000 C 
ATOM     14  C   LIG    1       -2.904   1.556   0.038  0.00  0.00    +0.000 C 
ATOM     15  C   LIG    1       -2.188   1.063  -1.221  0.00  0.00    +0.000 C 
ATOM     16  C   LIG    1       -0.753   1.593  -1.232  0.00  0.00    +0.010 C 
ENDBRANCH  10  11
ENDBRANCH   9  10
ENDBRANCH   7   9
ENDBRANCH   2   5
BRANCH   1  17
ATOM     17  C   LIG    1        8.087   1.738   3.028  0.00  0.00    +0.180 C 
BRANCH  17  20
ATOM     18  C   LIG    1        9.170   0.685   6.343  0.00  0.00    +0.140 A 
ATOM     19  N   LIG    1        8.433   1.243   5.423  0.00  0.00    -0.430 NA
ATOM     20  C   LIG    1        8.851   1.141   4.182  0.00  0.00    +0.080 A 
ATOM     21  C   LIG    1        9.999   0.479   4.005  0.00  0.00    -0.050 A 
ATOM     22  S   LIG    1       10.575  -0.058   5.582  0.00  0.00    +0.140 S 
BRANCH  18  27
ATOM     23  C   LIG    1        6.862   1.520  10.714  0.00  0.00    +0.180 C 
ATOM     24  C   LIG    1        7.872   1.043   9.703  0.00  0.00    +0.010 A 
ATOM     25  C   LIG    1        8.991   0.343   9.979  0.00  0.00    -0.050 A 
ATOM     26  C   LIG    1        9.641   0.101   8.754  0.00  0.00    +0.000 A 
ATOM     27  C   LIG    1        8.879   0.681   7.785  0.00  0.00    +0.040 A 
ATOM     28  O   LIG    1        7.808   1.246   8.377  0.00  0.00    -0.150 OA
ENDBRANCH  18  27
ENDBRANCH  17  20
ENDBRANCH   1  17
TORSDOF 7
