REMARK  Name = ZINCpe00000gN0Co.0
REMARK                            x       y       z     vdW  Elec       q    Type
REMARK                         _______ _______ _______ _____ _____    ______ ____
ROOT
ATOM      1  N   LIG    1       -0.678   4.160   4.879  0.00  0.00    -0.530 NA
ATOM      2  C   LIG    1       -0.755   4.714   6.230  0.00  0.00    +0.160 C 
ATOM      3  C   LIG    1        0.153   5.851   6.474  0.00  0.00    +0.030 C 
ATOM      4  C   LIG    1       -0.215   7.027   5.535  0.00  0.00    +0.280 C 
ATOM      5  N   LIG    1        0.121   6.679   4.171  0.00  0.00    -0.570 N 
ATOM      6  C   LIG    1       -0.819   5.988   3.264  0.00  0.00    +0.270 C 
ATOM      7  C   LIG    1        1.345   7.001   3.708  0.00  0.00    +0.600 C 
ATOM      8  O   LIG    1        1.673   6.678   2.582  0.00  0.00    -0.540 OA
ATOM      9  C   LIG    1       -1.578   4.861   3.988  0.00  0.00    +0.170 C 
ENDROOT
BRANCH   7  10
ATOM     10  C   LIG    1        2.287   7.744   4.566  0.00  0.00    +0.030 A 
ATOM     11  C   LIG    1        3.498   8.243   4.182  0.00  0.00    +0.190 A 
ATOM     12  N   LIG    1        4.040   8.856   5.270  0.00  0.00    -0.400 N 
ATOM     13  C   LIG    1        5.220   9.519   5.463  0.00  0.00    +0.290 A 
ATOM     14  C   LIG    1        5.496  10.030   6.688  0.00  0.00    -0.030 A 
ATOM     15  C   LIG    1        4.567   9.866   7.726  0.00  0.00    +0.370 A 
ATOM     16  N   LIG    1        3.442   9.226   7.517  0.00  0.00    -0.430 NA
ATOM     17  C   LIG    1        3.154   8.714   6.309  0.00  0.00    +0.380 A 
ATOM     18  N   LIG    1        2.104   8.042   5.867  0.00  0.00    -0.440 NA
ENDBRANCH   7  10
BRANCH   1  19
ATOM     19  C   LIG    1       -0.959   2.718   4.884  0.00  0.00    +0.260 C 
BRANCH  19  23
ATOM     20  C   LIG    1        0.047   0.883   0.330  0.00  0.00    +0.360 C 
ATOM     21  N   LIG    1       -0.669   1.431   1.485  0.00  0.00    -0.380 N 
ATOM     22  C   LIG    1       -0.122   1.764   2.672  0.00  0.00    +0.250 A 
ATOM     23  C   LIG    1       -1.113   2.231   3.466  0.00  0.00    -0.240 A 
ATOM     24  C   LIG    1       -2.307   2.181   2.739  0.00  0.00    +0.230 A 
ATOM     25  N   LIG    1       -2.041   1.707   1.549  0.00  0.00    -0.290 NA
ENDBRANCH  19  23
ENDBRANCH   1  19
TORSDOF 3
