REMARK  Name = ZINCrH000004lzRd.1
REMARK                            x       y       z     vdW  Elec       q    Type
REMARK                         _______ _______ _______ _____ _____    ______ ____
ROOT
ATOM      1  C   LIG    1        5.987   1.049   0.440  0.00  0.00    +0.600 C 
ATOM      2  N   LIG    1        6.624   2.233   0.342  0.00  0.00    -0.720 N 
ATOM      3  H   LIG    1        6.146   3.057   0.522  0.00  0.00    +0.410 HD
ATOM      4  O   LIG    1        6.587   0.015   0.214  0.00  0.00    -0.500 OA
ENDROOT
BRANCH   1   6
ATOM      5  C   LIG    1        3.826  -0.122   0.949  0.00  0.00    -0.080 A 
ATOM      6  C   LIG    1        4.568   1.008   0.819  0.00  0.00    -0.010 A 
ATOM      7  O   LIG    1        3.805   2.087   1.091  0.00  0.00    -0.180 OA
ATOM      8  C   LIG    1        2.548   1.720   1.406  0.00  0.00    +0.070 A 
ATOM      9  C   LIG    1        1.407   2.432   1.757  0.00  0.00    +0.030 A 
ATOM     10  C   LIG    1        0.235   1.759   2.030  0.00  0.00    +0.060 A 
ATOM     11  C   LIG    1        0.179   0.374   1.959  0.00  0.00    +0.000 A 
ATOM     12  C   LIG    1        1.288  -0.347   1.616  0.00  0.00    +0.070 A 
ATOM     13  C   LIG    1        2.485   0.315   1.336  0.00  0.00    -0.130 A 
BRANCH   5  14
ATOM     14  C   LIG    1        4.290  -1.540   0.735  0.00  0.00    +0.260 C 
BRANCH  14  16
ATOM     15  C   LIG    1        4.498  -3.240  -0.941  0.00  0.00    +0.210 C 
ATOM     16  O   LIG    1        4.088  -1.907  -0.631  0.00  0.00    -0.380 OA
ENDBRANCH  14  16
ENDBRANCH   5  14
ENDBRANCH   1   6
BRANCH   2  17
ATOM     17  C   LIG    1        8.039   2.274  -0.036  0.00  0.00    +0.260 C 
BRANCH  17  18
ATOM     18  C   LIG    1        8.471   3.728  -0.238  0.00  0.00    +0.210 C 
BRANCH  18  19
ATOM     19  C   LIG    1        9.943   3.775  -0.558  0.00  0.00    -0.040 A 
ATOM     20  C   LIG    1       10.389   3.412  -1.815  0.00  0.00    +0.020 A 
ATOM     21  C   LIG    1       11.738   3.459  -2.112  0.00  0.00    +0.040 A 
ATOM     22  C   LIG    1       12.644   3.859  -1.148  0.00  0.00    -0.010 A 
ATOM     23  C   LIG    1       12.200   4.217   0.113  0.00  0.00    +0.100 A 
ATOM     24  F   LIG    1       13.084   4.609   1.056  0.00  0.00    -0.140 F 
ATOM     25  C   LIG    1       10.847   4.175   0.407  0.00  0.00    -0.020 A 
ENDBRANCH  18  19
BRANCH  18  26
ATOM     26  N   LIG    1        7.710   4.315  -1.349  0.00  0.00    -0.530 NA
ATOM     27  C   LIG    1        6.553   5.072  -0.851  0.00  0.00    +0.200 C 
ATOM     28  C   LIG    1        7.291   3.281  -2.305  0.00  0.00    +0.200 C 
ENDBRANCH  18  26
ENDBRANCH  17  18
ENDBRANCH   2  17
TORSDOF 7
