REMARK  Name = ZINCrH000004v7dV.0
REMARK                            x       y       z     vdW  Elec       q    Type
REMARK                         _______ _______ _______ _____ _____    ______ ____
ROOT
ATOM      1  O   LIG    1        5.354   3.455  -1.501  0.00  0.00    -0.510 OA
ATOM      2  C   LIG    1        5.011   3.997  -2.531  0.00  0.00    +0.530 C 
ATOM      3  N   LIG    1        3.719   3.962  -2.913  0.00  0.00    -0.670 N 
ATOM      4  H   LIG    1        3.430   4.461  -3.693  0.00  0.00    +0.410 HD
ENDROOT
BRANCH   2   5
ATOM      5  C   LIG    1        6.029   4.710  -3.382  0.00  0.00    +0.010 C 
ATOM      6  C   LIG    1        5.691   6.214  -3.507  0.00  0.00    +0.090 C 
ATOM      7  C   LIG    1        7.039   6.900  -3.488  0.00  0.00    +0.520 C 
ATOM      8  N   LIG    1        7.980   6.059  -3.026  0.00  0.00    -0.620 N 
ATOM      9  O   LIG    1        7.241   8.043  -3.840  0.00  0.00    -0.500 OA
ATOM     10  C   LIG    1        7.404   4.754  -2.679  0.00  0.00    +0.310 C 
BRANCH   8  11
ATOM     11  C   LIG    1        9.397   6.401  -2.886  0.00  0.00    +0.350 C 
BRANCH  11  12
ATOM     12  C   LIG    1        9.646   6.986  -1.494  0.00  0.00    +0.430 C 
ATOM     13  F   LIG    1        8.870   8.138  -1.327  0.00  0.00    -0.180 F 
ATOM     14  F   LIG    1       11.000   7.312  -1.361  0.00  0.00    -0.180 F 
ATOM     15  F   LIG    1        9.296   6.042  -0.522  0.00  0.00    -0.180 F 
ENDBRANCH  11  12
ENDBRANCH   8  11
ENDBRANCH   2   5
BRANCH   3  16
ATOM     16  C   LIG    1        2.793   3.204  -2.184  0.00  0.00    +0.110 A 
ATOM     17  C   LIG    1        3.193   2.028  -1.563  0.00  0.00    +0.060 A 
ATOM     18  C   LIG    1        2.281   1.281  -0.845  0.00  0.00    -0.020 A 
ATOM     19  C   LIG    1        0.962   1.706  -0.744  0.00  0.00    +0.170 A 
ATOM     20  C   LIG    1        0.561   2.879  -1.369  0.00  0.00    -0.020 A 
ATOM     21  C   LIG    1        1.475   3.629  -2.083  0.00  0.00    +0.020 A 
BRANCH  19  22
ATOM     22  N   LIG    1        0.038   0.949  -0.017  0.00  0.00    -0.690 N 
ATOM     23  H   LIG    1        0.149  -0.012   0.059  0.00  0.00    +0.410 HD
BRANCH  22  24
ATOM     24  C   LIG    1       -1.050   1.575   0.597  0.00  0.00    +0.180 A 
ATOM     25  C   LIG    1       -0.932   2.881   1.057  0.00  0.00    -0.030 A 
ATOM     26  C   LIG    1       -2.011   3.499   1.658  0.00  0.00    +0.030 A 
ATOM     27  C   LIG    1       -3.204   2.817   1.812  0.00  0.00    -0.030 A 
ATOM     28  C   LIG    1       -3.323   1.515   1.359  0.00  0.00    +0.030 A 
ATOM     29  C   LIG    1       -2.250   0.892   0.753  0.00  0.00    -0.050 A 
ENDBRANCH  22  24
ENDBRANCH  19  22
ENDBRANCH   3  16
TORSDOF 6
