REMARK  Name = ZINCvU00000006QH.0
REMARK                            x       y       z     vdW  Elec       q    Type
REMARK                         _______ _______ _______ _____ _____    ______ ____
ROOT
ATOM      1  C   LIG    1       -4.280   1.139  -0.010  0.00  0.00    +0.470 C 
ATOM      2  O   LIG    1       -4.615   0.429   0.909  0.00  0.00    -0.500 OA
ENDROOT
BRANCH   1   8
ATOM      3  C   LIG    1        0.068   1.408   2.398  0.00  0.00    +0.040 C 
ATOM      4  C   LIG    1       -0.708   1.864   1.161  0.00  0.00    -0.050 C 
ATOM      5  C   LIG    1        0.017   1.388  -0.100  0.00  0.00    +0.050 C 
ATOM      6  C   LIG    1       -0.759   1.844  -1.337  0.00  0.00    +0.140 C 
ATOM      7  C   LIG    1       -2.168   1.248  -1.304  0.00  0.00    +0.030 C 
ATOM      8  C   LIG    1       -2.893   1.725  -0.043  0.00  0.00    -0.030 C 
ATOM      9  C   LIG    1       -2.984   3.252  -0.054  0.00  0.00    +0.050 C 
ATOM     10  C   LIG    1       -1.575   3.847  -0.088  0.00  0.00    -0.050 C 
ATOM     11  C   LIG    1       -1.667   5.374  -0.098  0.00  0.00    +0.040 C 
ATOM     12  C   LIG    1       -0.850   3.371  -1.348  0.00  0.00    +0.020 C 
ATOM     13  C   LIG    1       -0.799   3.391   1.150  0.00  0.00    +0.040 C 
ATOM     14  C   LIG    1       -2.117   1.269   1.194  0.00  0.00    +0.070 C 
BRANCH   6  15
ATOM     15  O   LIG    1       -0.082   1.399  -2.514  0.00  0.00    -0.560 OA
ATOM     16  H   LIG    1       -0.518   1.653  -3.339  0.00  0.00    +0.380 HD
ENDBRANCH   6  15
ENDBRANCH   1   8
BRANCH   1  17
ATOM     17  O   LIG    1       -5.145   1.405  -1.002  0.00  0.00    -0.330 OA
BRANCH  17  18
ATOM     18  C   LIG    1       -6.465   0.806  -0.904  0.00  0.00    +0.210 C 
BRANCH  18  19
ATOM     19  C   LIG    1       -6.457  -0.540  -1.581  0.00  0.00    -0.110 A 
ATOM     20  C   LIG    1       -5.770  -0.713  -2.768  0.00  0.00    +0.040 A 
ATOM     21  C   LIG    1       -5.759  -1.949  -3.387  0.00  0.00    +0.010 A 
ATOM     22  C   LIG    1       -6.443  -3.010  -2.823  0.00  0.00    +0.020 A 
ATOM     23  C   LIG    1       -7.134  -2.836  -1.639  0.00  0.00    +0.010 A 
ATOM     24  C   LIG    1       -7.141  -1.601  -1.018  0.00  0.00    +0.040 A 
ENDBRANCH  18  19
BRANCH  18  25
ATOM     25  C   LIG    1       -7.473   1.701  -1.577  0.00  0.00    +0.410 C 
ATOM     26  O   LIG    1       -7.108   2.521  -2.393  0.00  0.00    -0.420 OA
BRANCH  25  27
ATOM     27  C   LIG    1       -8.902   1.580  -1.245  0.00  0.00    -0.160 A 
ATOM     28  C   LIG    1       -9.315   0.721  -0.222  0.00  0.00    +0.050 A 
ATOM     29  C   LIG    1      -10.655   0.616   0.086  0.00  0.00    +0.000 A 
ATOM     30  C   LIG    1      -11.591   1.351  -0.620  0.00  0.00    +0.050 A 
ATOM     31  C   LIG    1      -11.190   2.200  -1.638  0.00  0.00    +0.000 A 
ATOM     32  C   LIG    1       -9.854   2.319  -1.955  0.00  0.00    +0.080 A 
ENDBRANCH  25  27
ENDBRANCH  18  25
ENDBRANCH  17  18
ENDBRANCH   1  17
TORSDOF 7
