REMARK  Name = ZINCqH0000002eHN.0
REMARK                            x       y       z     vdW  Elec       q    Type
REMARK                         _______ _______ _______ _____ _____    ______ ____
ROOT
ATOM      1  N   LIG    1        1.040  -0.268  -0.757  0.00  0.00    -0.730 N 
ATOM      2  H   LIG    1        0.142  -0.633  -0.736  0.00  0.00    +0.400 HD
ATOM      3  C   LIG    1        1.226   1.054  -0.937  0.00  0.00    +0.700 C 
ATOM      4  N   LIG    1        0.164   1.869  -1.094  0.00  0.00    -0.670 N 
ATOM      5  H   LIG    1       -0.731   1.497  -1.136  0.00  0.00    +0.410 HD
ATOM      6  O   LIG    1        2.352   1.512  -0.963  0.00  0.00    -0.570 OA
ENDROOT
BRANCH   1   9
ATOM      7  C   LIG    1        2.965  -3.365   0.276  0.00  0.00    +0.170 C 
ATOM      8  C   LIG    1        1.772  -2.410   0.177  0.00  0.00    +0.000 C 
ATOM      9  C   LIG    1        2.195  -1.155  -0.592  0.00  0.00    +0.250 C 
ATOM     10  C   LIG    1        2.725  -1.567  -1.969  0.00  0.00    -0.020 C 
ATOM     11  C   LIG    1        3.881  -2.554  -1.787  0.00  0.00    +0.220 C 
ATOM     12  O   LIG    1        3.428  -3.683  -1.038  0.00  0.00    -0.370 OA
BRANCH   7  13
ATOM     13  C   LIG    1        2.534  -4.647   0.990  0.00  0.00    +0.000 C 
BRANCH  13  15
ATOM     14  C   LIG    1        3.299  -6.889   1.785  0.00  0.00    +0.010 C 
ATOM     15  C   LIG    1        3.749  -5.556   1.184  0.00  0.00    +0.010 C 
ENDBRANCH  13  15
BRANCH  13  16
ATOM     16  C   LIG    1        1.937  -4.295   2.354  0.00  0.00    +0.010 C 
ATOM     17  C   LIG    1        2.946  -3.471   3.155  0.00  0.00    +0.010 C 
ENDBRANCH  13  16
ENDBRANCH   7  13
ENDBRANCH   1   9
BRANCH   4  18
ATOM     18  C   LIG    1        0.352   3.254  -1.197  0.00  0.00    +0.110 A 
ATOM     19  C   LIG    1        1.480   3.768  -1.824  0.00  0.00    +0.090 A 
ATOM     20  C   LIG    1        1.623   5.147  -1.902  0.00  0.00    -0.030 A 
ATOM     21  C   LIG    1        0.649   5.960  -1.359  0.00  0.00    +0.260 A 
ATOM     22  N   LIG    1       -0.414   5.447  -0.768  0.00  0.00    -0.500 NA
ATOM     23  C   LIG    1       -0.595   4.140  -0.676  0.00  0.00    +0.270 A 
BRANCH  23  24
ATOM     24  N   LIG    1       -1.734   3.643  -0.050  0.00  0.00    -0.460 N 
ATOM     25  C   LIG    1       -1.388   2.970   1.228  0.00  0.00    +0.170 C 
ATOM     26  C   LIG    1       -2.730   2.967   2.002  0.00  0.00    +0.040 C 
ATOM     27  C   LIG    1       -3.349   4.333   1.627  0.00  0.00    +0.020 C 
ATOM     28  C   LIG    1       -2.662   4.737   0.309  0.00  0.00    +0.190 C 
ENDBRANCH  23  24
ENDBRANCH   4  18
TORSDOF 6
