REMARK  Name = ZINCpk00000iSpeh.0
REMARK                            x       y       z     vdW  Elec       q    Type
REMARK                         _______ _______ _______ _____ _____    ______ ____
ROOT
ATOM      1  C   LIG    1        3.720  -3.505  -1.187  0.00  0.00    +0.530 C 
ATOM      2  N   LIG    1        2.939  -2.850  -0.305  0.00  0.00    -0.610 N 
ATOM      3  C   LIG    1        3.433  -1.654   0.393  0.00  0.00    +0.280 C 
ATOM      4  C   LIG    1        2.594  -0.441  -0.032  0.00  0.00    +0.120 C 
ATOM      5  C   LIG    1        1.141  -0.828  -0.019  0.00  0.00    -0.130 A 
ATOM      6  C   LIG    1        0.676  -2.102  -0.013  0.00  0.00    -0.010 A 
ATOM      7  N   LIG    1       -0.665  -2.038  -0.003  0.00  0.00    -0.260 N 
ATOM      8  N   LIG    1       -1.048  -0.808   0.007  0.00  0.00    -0.230 NA
ATOM      9  C   LIG    1       -1.561  -3.197  -0.003  0.00  0.00    +0.370 C 
ATOM     10  C   LIG    1        0.002  -0.004   0.002  0.00  0.00    +0.000 A 
ATOM     11  C   LIG    1        1.569  -3.317  -0.019  0.00  0.00    +0.390 C 
ATOM     12  O   LIG    1        3.299  -4.490  -1.755  0.00  0.00    -0.530 OA
ENDROOT
BRANCH  10  13
ATOM     13  C   LIG    1       -0.018   1.472   0.010  0.00  0.00    +0.560 C 
ATOM     14  O   LIG    1        1.026   2.093   0.004  0.00  0.00    -0.490 OA
BRANCH  13  15
ATOM     15  O   LIG    1       -1.194   2.129   0.019  0.00  0.00    -0.340 OA
ATOM     16  C   LIG    1       -1.137   3.580   0.027  0.00  0.00    +0.290 C 
ENDBRANCH  13  15
ENDBRANCH  10  13
BRANCH   1  17
ATOM     17  C   LIG    1        5.117  -3.014  -1.466  0.00  0.00    +0.050 C 
BRANCH  17  18
ATOM     18  C   LIG    1        5.783  -3.928  -2.496  0.00  0.00    +0.130 C 
BRANCH  18  19
ATOM     19  C   LIG    1        7.201  -3.429  -2.780  0.00  0.00    +0.030 C 
ATOM     20  N   LIG    1        7.870  -2.606  -1.770  0.00  0.00    -0.120 NA
ATOM     21  N   LIG    1        7.453  -1.986  -2.759  0.00  0.00    -0.120 NA
BRANCH  19  22
ATOM     22  C   LIG    1        8.057  -4.309  -3.693  0.00  0.00    +0.120 C 
BRANCH  22  23
ATOM     23  C   LIG    1        9.435  -3.669  -3.872  0.00  0.00    +0.160 C 
BRANCH  23  25
ATOM     24  C   LIG    1       10.916  -5.191  -5.451  0.00  0.00    +0.030 C 
ATOM     25  C   LIG    1       10.259  -4.516  -4.750  0.00  0.00    -0.190 C 
ENDBRANCH  23  25
ENDBRANCH  22  23
ENDBRANCH  19  22
ENDBRANCH  18  19
ENDBRANCH  17  18
ENDBRANCH   1  17
TORSDOF 8
