REMARK  Name = ZINCrH000004rZDB.1
REMARK                            x       y       z     vdW  Elec       q    Type
REMARK                         _______ _______ _______ _____ _____    ______ ____
ROOT
ATOM      1  C   LIG    1       -1.334   2.103   0.209  0.00  0.00    +0.150 A 
ATOM      2  N   LIG    1       -1.478   3.411   0.242  0.00  0.00    -0.260 NA
ATOM      3  N   LIG    1       -2.821   3.709  -0.021  0.00  0.00    -0.300 N 
ATOM      4  C   LIG    1       -3.481   2.537  -0.213  0.00  0.00    +0.290 A 
ATOM      5  C   LIG    1       -2.588   1.532  -0.082  0.00  0.00    -0.280 A 
ENDROOT
BRANCH   1  12
ATOM      6  C   LIG    1        0.292   2.707   2.525  0.00  0.00    +0.090 C 
ATOM      7  C   LIG    1        0.722   1.646   1.545  0.00  0.00    -0.050 A 
ATOM      8  C   LIG    1        1.899   0.955   1.747  0.00  0.00    +0.010 A 
ATOM      9  C   LIG    1        2.295  -0.020   0.848  0.00  0.00    +0.040 A 
ATOM     10  C   LIG    1        1.514  -0.307  -0.256  0.00  0.00    +0.010 A 
ATOM     11  C   LIG    1        0.334   0.377  -0.467  0.00  0.00    +0.030 A 
ATOM     12  C   LIG    1       -0.070   1.359   0.434  0.00  0.00    -0.050 A 
ENDBRANCH   1  12
BRANCH   3  13
ATOM     13  C   LIG    1       -3.385   4.991  -0.075  0.00  0.00    +0.140 A 
ATOM     14  C   LIG    1       -4.737   5.145  -0.352  0.00  0.00    +0.000 A 
ATOM     15  C   LIG    1       -5.290   6.409  -0.401  0.00  0.00    +0.050 A 
ATOM     16  C   LIG    1       -4.498   7.521  -0.184  0.00  0.00    +0.010 A 
ATOM     17  C   LIG    1       -3.150   7.371   0.087  0.00  0.00    +0.050 A 
ATOM     18  C   LIG    1       -2.592   6.109   0.142  0.00  0.00    +0.030 A 
ENDBRANCH   3  13
BRANCH   5  19
ATOM     19  C   LIG    1       -2.883   0.061  -0.221  0.00  0.00    +0.340 C 
BRANCH  19  20
ATOM     20  N   LIG    1       -2.916  -0.559   1.110  0.00  0.00    -0.390 N 
ATOM     21  C   LIG    1       -4.066  -0.034   1.876  0.00  0.00    +0.240 C 
ATOM     22  C   LIG    1       -4.574  -1.239   2.706  0.00  0.00    +0.080 C 
ATOM     23  C   LIG    1       -4.368  -2.413   1.712  0.00  0.00    -0.070 C 
ATOM     24  C   LIG    1       -3.071  -2.019   0.974  0.00  0.00    +0.270 C 
ATOM     25  H   LIG    1       -2.059  -0.355   1.602  0.00  0.00    +0.420 HD
BRANCH  23  26
ATOM     26  C   LIG    1       -4.186  -3.712   2.453  0.00  0.00    +0.500 C 
ATOM     27  O   LIG    1       -3.147  -4.340   2.336  0.00  0.00    -0.680 OA
ATOM     28  O   LIG    1       -5.077  -4.136   3.169  0.00  0.00    -0.670 OA
ENDBRANCH  23  26
ENDBRANCH  19  20
ENDBRANCH   5  19
TORSDOF 5
