REMARK  Name = ZINCrH000004rZDB.0
REMARK                            x       y       z     vdW  Elec       q    Type
REMARK                         _______ _______ _______ _____ _____    ______ ____
ROOT
ATOM      1  C   LIG    1       -1.070  -0.705   0.122  0.00  0.00    +0.140 A 
ATOM      2  N   LIG    1       -2.230  -0.099   0.262  0.00  0.00    -0.260 NA
ATOM      3  N   LIG    1       -3.240  -1.066   0.177  0.00  0.00    -0.310 N 
ATOM      4  C   LIG    1       -2.649  -2.275  -0.010  0.00  0.00    +0.300 A 
ATOM      5  C   LIG    1       -1.313  -2.082  -0.047  0.00  0.00    -0.280 A 
ENDROOT
BRANCH   1  12
ATOM      6  C   LIG    1       -0.889   2.179   0.265  0.00  0.00    +0.110 C 
ATOM      7  C   LIG    1        0.360   1.337   0.217  0.00  0.00    -0.050 A 
ATOM      8  C   LIG    1        1.601   1.939   0.239  0.00  0.00    +0.020 A 
ATOM      9  C   LIG    1        2.748   1.167   0.190  0.00  0.00    +0.030 A 
ATOM     10  C   LIG    1        2.658  -0.211   0.119  0.00  0.00    +0.030 A 
ATOM     11  C   LIG    1        1.421  -0.824   0.096  0.00  0.00    -0.020 A 
ATOM     12  C   LIG    1        0.263  -0.052   0.146  0.00  0.00    -0.040 A 
ENDBRANCH   1  12
BRANCH   3  13
ATOM     13  C   LIG    1       -4.617  -0.829   0.273  0.00  0.00    +0.140 A 
ATOM     14  C   LIG    1       -5.514  -1.884   0.171  0.00  0.00    +0.000 A 
ATOM     15  C   LIG    1       -6.871  -1.647   0.271  0.00  0.00    +0.050 A 
ATOM     16  C   LIG    1       -7.338  -0.360   0.462  0.00  0.00    +0.010 A 
ATOM     17  C   LIG    1       -6.448   0.694   0.559  0.00  0.00    +0.050 A 
ATOM     18  C   LIG    1       -5.089   0.463   0.465  0.00  0.00    +0.030 A 
ENDBRANCH   3  13
BRANCH   5  19
ATOM     19  C   LIG    1       -0.267  -3.151  -0.237  0.00  0.00    +0.360 C 
BRANCH  19  20
ATOM     20  N   LIG    1        0.341  -3.010  -1.567  0.00  0.00    -0.400 N 
ATOM     21  C   LIG    1       -0.629  -3.394  -2.625  0.00  0.00    +0.250 C 
ATOM     22  C   LIG    1        0.248  -3.744  -3.847  0.00  0.00    +0.070 C 
ATOM     23  C   LIG    1        1.622  -4.125  -3.258  0.00  0.00    -0.080 C 
ATOM     24  C   LIG    1        1.460  -3.973  -1.731  0.00  0.00    +0.280 C 
ATOM     25  H   LIG    1        0.664  -2.065  -1.708  0.00  0.00    +0.420 HD
BRANCH  23  26
ATOM     26  C   LIG    1        1.965  -5.550  -3.609  0.00  0.00    +0.500 C 
ATOM     27  O   LIG    1        2.592  -6.237  -2.821  0.00  0.00    -0.680 OA
ATOM     28  O   LIG    1        1.615  -6.015  -4.680  0.00  0.00    -0.670 OA
ENDBRANCH  23  26
ENDBRANCH  19  20
ENDBRANCH   5  19
TORSDOF 5
