REMARK  Name = ZINCrH000004sFxE.0
REMARK                            x       y       z     vdW  Elec       q    Type
REMARK                         _______ _______ _______ _____ _____    ______ ____
ROOT
ATOM      1  N   LIG    1        3.415   7.212  -0.073  0.00  0.00    -0.730 N 
ATOM      2  H   LIG    1        3.540   6.701  -0.888  0.00  0.00    +0.400 HD
ATOM      3  C   LIG    1        4.173   8.301   0.163  0.00  0.00    +0.700 C 
ATOM      4  N   LIG    1        5.106   8.679  -0.734  0.00  0.00    -0.690 N 
ATOM      5  H   LIG    1        5.277   8.132  -1.516  0.00  0.00    +0.410 HD
ATOM      6  O   LIG    1        4.016   8.941   1.184  0.00  0.00    -0.570 OA
ENDROOT
BRANCH   4   7
ATOM      7  C   LIG    1        5.826   9.863  -0.537  0.00  0.00    +0.220 A 
ATOM      8  C   LIG    1        6.202  10.638  -1.626  0.00  0.00    +0.000 A 
ATOM      9  C   LIG    1        6.908  11.808  -1.427  0.00  0.00    +0.130 A 
ATOM     10  C   LIG    1        7.250  12.203  -0.147  0.00  0.00    -0.070 A 
ATOM     11  C   LIG    1        6.883  11.430   0.939  0.00  0.00    +0.130 A 
ATOM     12  C   LIG    1        6.171  10.261   0.748  0.00  0.00    +0.040 A 
BRANCH  10  13
ATOM     13  N   LIG    1        8.012  13.455   0.062  0.00  0.00    +0.030 N 
ATOM     14  O   LIG    1        8.336  14.137  -0.894  0.00  0.00    -0.160 OA
ATOM     15  O   LIG    1        8.314  13.803   1.189  0.00  0.00    -0.160 OA
ENDBRANCH  10  13
ENDBRANCH   4   7
BRANCH   1  16
ATOM     16  C   LIG    1        2.401   6.800   0.901  0.00  0.00    +0.380 C 
BRANCH  16  23
ATOM     17  C   LIG    1       -0.204   6.739  -0.901  0.00  0.00    +0.160 C 
ATOM     18  C   LIG    1        0.547   5.536  -0.393  0.00  0.00    +0.100 A 
ATOM     19  N   LIG    1        0.240   4.285  -0.624  0.00  0.00    -0.290 NA
ATOM     20  N   LIG    1        1.181   3.475   0.025  0.00  0.00    -0.320 N 
ATOM     21  C   LIG    1        2.068   4.285   0.646  0.00  0.00    +0.120 A 
ATOM     22  C   LIG    1        3.254   3.843   1.463  0.00  0.00    +0.160 C 
ATOM     23  C   LIG    1        1.698   5.564   0.403  0.00  0.00    -0.260 A 
BRANCH  20  24
ATOM     24  C   LIG    1        1.202   2.074   0.025  0.00  0.00    +0.150 A 
ATOM     25  C   LIG    1        0.011   1.360   0.033  0.00  0.00    +0.020 A 
ATOM     26  C   LIG    1        0.036  -0.021   0.033  0.00  0.00    +0.030 A 
ATOM     27  C   LIG    1        1.245  -0.693   0.025  0.00  0.00    +0.010 A 
ATOM     28  C   LIG    1        2.432   0.016   0.018  0.00  0.00    +0.030 A 
ATOM     29  C   LIG    1        2.414   1.397   0.018  0.00  0.00    +0.000 A 
ENDBRANCH  20  24
ENDBRANCH  16  23
ENDBRANCH   1  16
TORSDOF 5
