REMARK  Name = ZINCb80000003W6Y.0
REMARK                            x       y       z     vdW  Elec       q    Type
REMARK                         _______ _______ _______ _____ _____    ______ ____
ROOT
ATOM      1  O   LIG    1        0.002  -0.004   0.002  0.00  0.00    -0.560 OA
ATOM      2  C   LIG    1       -0.014   1.214   0.009  0.00  0.00    +0.650 A 
ATOM      3  N   LIG    1        1.064   2.030   0.003  0.00  0.00    -0.550 N 
ATOM      4  H   LIG    1        1.993   1.754  -0.007  0.00  0.00    +0.460 HD
ATOM      5  N   LIG    1        0.589   3.352   0.015  0.00  0.00    -0.270 NA
ATOM      6  C   LIG    1       -0.695   3.315   0.027  0.00  0.00    +0.280 A 
ATOM      7  C   LIG    1       -1.674   4.471   0.045  0.00  0.00    +0.170 C 
ATOM      8  C   LIG    1       -2.403   4.448   1.385  0.00  0.00    +0.040 C 
ATOM      9  C   LIG    1       -3.538   3.451   1.385  0.00  0.00    +0.010 C 
ATOM     10  C   LIG    1       -3.119   2.000   1.370  0.00  0.00    +0.020 C 
ATOM     11  C   LIG    1       -2.520   1.596   0.019  0.00  0.00    +0.320 C 
ATOM     12  N   LIG    1       -1.103   1.992   0.017  0.00  0.00    -0.560 N 
ENDROOT
TORSDOF 0
