REMARK  Name = ZINCrg00000SjSrR.0
REMARK                            x       y       z     vdW  Elec       q    Type
REMARK                         _______ _______ _______ _____ _____    ______ ____
ROOT
ATOM      1  C   LIG    1       -4.168  -3.460   1.541  0.00  0.00    +0.470 C 
ATOM      2  O   LIG    1       -4.804  -3.873   0.601  0.00  0.00    -0.500 OA
ENDROOT
BRANCH   1   3
ATOM      3  O   LIG    1       -3.129  -2.635   1.338  0.00  0.00    -0.350 OA
BRANCH   3   4
ATOM      4  C   LIG    1       -2.828  -2.280  -0.037  0.00  0.00    +0.340 C 
BRANCH   4   7
ATOM      5  C   LIG    1        0.633  -1.035  -0.189  0.00  0.00    +0.630 A 
ATOM      6  N   LIG    1       -0.418  -1.851  -0.161  0.00  0.00    -0.620 NA
ATOM      7  C   LIG    1       -1.639  -1.354  -0.068  0.00  0.00    +0.430 A 
ATOM      8  N   LIG    1       -1.821  -0.047   0.001  0.00  0.00    -0.620 NA
ATOM      9  C   LIG    1       -0.775   0.775  -0.032  0.00  0.00    +0.630 A 
ATOM     10  N   LIG    1        0.454   0.280  -0.124  0.00  0.00    -0.650 NA
BRANCH   5  12
ATOM     11  C   LIG    1        3.065  -0.657  -0.315  0.00  0.00    +0.310 C 
ATOM     12  N   LIG    1        1.908  -1.555  -0.285  0.00  0.00    -0.580 N 
ATOM     13  C   LIG    1        2.104  -3.005  -0.356  0.00  0.00    +0.310 C 
ENDBRANCH   5  12
BRANCH   9  14
ATOM     14  N   LIG    1       -0.966   2.140   0.036  0.00  0.00    -0.800 N 
ATOM     15  H   LIG    1       -1.864   2.502   0.100  0.00  0.00    +0.420 HD
ATOM     16  H   LIG    1       -0.202   2.739   0.016  0.00  0.00    +0.420 HD
ENDBRANCH   9  14
ENDBRANCH   4   7
ENDBRANCH   3   4
ENDBRANCH   1   3
BRANCH   1  17
ATOM     17  C   LIG    1       -4.540  -3.872   2.942  0.00  0.00    +0.120 C 
BRANCH  17  18
ATOM     18  C   LIG    1       -5.750  -4.808   2.894  0.00  0.00    +0.340 C 
BRANCH  18  19
ATOM     19  C   LIG    1       -6.198  -5.122   4.298  0.00  0.00    -0.090 A 
ATOM     20  C   LIG    1       -5.368  -4.845   5.367  0.00  0.00    +0.070 A 
ATOM     21  C   LIG    1       -5.779  -5.133   6.655  0.00  0.00    +0.010 A 
ATOM     22  C   LIG    1       -7.021  -5.699   6.875  0.00  0.00    +0.030 A 
ATOM     23  C   LIG    1       -7.852  -5.977   5.806  0.00  0.00    +0.010 A 
ATOM     24  C   LIG    1       -7.444  -5.683   4.517  0.00  0.00    -0.020 A 
ATOM     25 CL   LIG    1       -8.491  -6.025   3.175  0.00  0.00    -0.070 Cl
ENDBRANCH  18  19
BRANCH  18  26
ATOM     26  N   LIG    1       -5.379  -6.050   2.211  0.00  0.00    -0.730 N 
ATOM     27  H   LIG    1       -5.879  -6.343   1.433  0.00  0.00    +0.400 HD
ATOM     28  C   LIG    1       -4.343  -6.784   2.662  0.00  0.00    +0.710 C 
ATOM     29  O   LIG    1       -3.773  -6.465   3.688  0.00  0.00    -0.590 OA
ATOM     30  N   LIG    1       -3.938  -7.872   1.977  0.00  0.00    -0.870 N 
ATOM     31  H   LIG    1       -3.193  -8.400   2.302  0.00  0.00    +0.420 HD
ATOM     32  H   LIG    1       -4.393  -8.126   1.159  0.00  0.00    +0.400 HD
ENDBRANCH  18  26
ENDBRANCH  17  18
ENDBRANCH   1  17
TORSDOF 9
