REMARK  Name = ZINCqH0000007oXJ.1
REMARK                            x       y       z     vdW  Elec       q    Type
REMARK                         _______ _______ _______ _____ _____    ______ ____
ROOT
ATOM      1  C   LIG    1        2.452   3.935  -0.001  0.00  0.00    +0.230 C 
ENDROOT
BRANCH   1   5
ATOM      2  C   LIG    1       -1.391   2.087  -0.287  0.00  0.00    +0.130 A 
ATOM      3  C   LIG    1       -0.273   1.448  -0.802  0.00  0.00    -0.020 A 
ATOM      4  C   LIG    1        0.968   2.048  -0.710  0.00  0.00    +0.050 A 
ATOM      5  C   LIG    1        1.097   3.283  -0.100  0.00  0.00    -0.120 A 
ATOM      6  C   LIG    1       -0.015   3.920   0.418  0.00  0.00    +0.080 A 
ATOM      7  C   LIG    1       -1.259   3.324   0.328  0.00  0.00    -0.080 A 
BRANCH   2   9
ATOM      8  C   LIG    1       -3.720   2.218   0.170  0.00  0.00    +0.250 C 
ATOM      9  O   LIG    1       -2.614   1.502  -0.382  0.00  0.00    -0.320 OA
ENDBRANCH   2   9
ENDBRANCH   1   5
BRANCH   1  10
ATOM     10  N   LIG    1        2.344   5.170   0.787  0.00  0.00    -0.520 NA
ATOM     11  C   LIG    1        1.709   6.241   0.004  0.00  0.00    +0.150 C 
ATOM     12  C   LIG    1        1.563   7.488   0.880  0.00  0.00    +0.230 C 
ATOM     13  O   LIG    1        2.849   7.869   1.376  0.00  0.00    -0.380 OA
ATOM     14  C   LIG    1        3.495   6.850   2.144  0.00  0.00    +0.210 C 
ATOM     15  C   LIG    1        3.661   5.597   1.280  0.00  0.00    +0.160 C 
ENDBRANCH   1  10
BRANCH   1  16
ATOM     16  C   LIG    1        2.961   4.269  -1.405  0.00  0.00    +0.200 C 
BRANCH  16  17
ATOM     17  N   LIG    1        4.261   4.936  -1.307  0.00  0.00    -0.550 NA
ATOM     18  C   LIG    1        5.331   4.357  -1.785  0.00  0.00    +0.390 A 
ATOM     19  N   LIG    1        6.603   4.847  -1.776  0.00  0.00    -0.630 N 
ATOM     20  H   LIG    1        6.802   5.713  -1.387  0.00  0.00    +0.420 HD
ATOM     21  C   LIG    1        7.602   4.069  -2.336  0.00  0.00    +0.150 A 
ATOM     22  C   LIG    1        8.969   4.367  -2.434  0.00  0.00    +0.000 A 
ATOM     23  C   LIG    1        9.842   3.485  -3.029  0.00  0.00    +0.060 A 
ATOM     24  C   LIG    1        9.392   2.283  -3.545  0.00  0.00    +0.010 A 
ATOM     25  C   LIG    1        8.049   1.968  -3.459  0.00  0.00    +0.100 A 
ATOM     26  C   LIG    1        7.168   2.852  -2.862  0.00  0.00    -0.150 A 
ATOM     27  S   LIG    1        5.422   2.779  -2.584  0.00  0.00    -0.020 S 
ENDBRANCH  16  17
ENDBRANCH   1  16
TORSDOF 5
