REMARK  Name = ZINCrH00000No54E.0
REMARK                            x       y       z     vdW  Elec       q    Type
REMARK                         _______ _______ _______ _____ _____    ______ ____
ROOT
ATOM      1  C   LIG    1       -0.169   1.476  -0.322  0.00  0.00    +0.290 C 
ATOM      2  C   LIG    1       -0.171  -0.075  -0.389  0.00  0.00    +0.040 C 
ATOM      3  C   LIG    1        1.173  -0.358  -1.106  0.00  0.00    +0.260 C 
ATOM      4  N   LIG    1        2.103   0.660  -0.582  0.00  0.00    -0.580 N 
ATOM      5  C   LIG    1        3.446   0.555  -0.546  0.00  0.00    +0.580 C 
ATOM      6  O   LIG    1        4.118   1.484  -0.141  0.00  0.00    -0.530 OA
ATOM      7  C   LIG    1        1.320   1.808  -0.109  0.00  0.00    +0.080 C 
ATOM      8  C   LIG    1        1.766   2.615   1.108  0.00  0.00    +0.040 C 
ATOM      9  C   LIG    1        1.829   3.236  -0.290  0.00  0.00    +0.050 C 
ENDROOT
BRANCH   5  10
ATOM     10  C   LIG    1        4.103  -0.690  -0.999  0.00  0.00    -0.130 A 
ATOM     11  C   LIG    1        3.476  -1.512  -1.936  0.00  0.00    +0.040 A 
ATOM     12  C   LIG    1        4.096  -2.671  -2.353  0.00  0.00    +0.020 A 
ATOM     13  C   LIG    1        5.337  -3.024  -1.847  0.00  0.00    -0.070 A 
ATOM     14  C   LIG    1        6.207  -4.227  -2.142  0.00  0.00    +0.080 C 
ATOM     15  C   LIG    1        7.221  -4.289  -0.980  0.00  0.00    +0.030 C 
ATOM     16  C   LIG    1        7.296  -2.816  -0.527  0.00  0.00    +0.080 C 
ATOM     17  C   LIG    1        5.964  -2.212  -0.917  0.00  0.00    -0.100 A 
ATOM     18  C   LIG    1        5.354  -1.045  -0.497  0.00  0.00    +0.080 A 
ENDBRANCH   5  10
BRANCH   1  20
ATOM     19  C   LIG    1       -2.300   2.127   0.663  0.00  0.00    +0.550 C 
ATOM     20  N   LIG    1       -0.973   1.948   0.808  0.00  0.00    -0.720 N 
ATOM     21  H   LIG    1       -0.549   2.131   1.661  0.00  0.00    +0.400 HD
ATOM     22  O   LIG    1       -2.832   1.897  -0.407  0.00  0.00    -0.540 OA
BRANCH  19  24
ATOM     23  C   LIG    1       -4.431   2.676   1.687  0.00  0.00    -0.020 C 
ATOM     24  C   LIG    1       -3.107   2.600   1.798  0.00  0.00    -0.110 C 
ATOM     25  C   LIG    1       -5.093   2.407   0.360  0.00  0.00    +0.090 C 
BRANCH  23  26
ATOM     26  C   LIG    1       -5.268   3.031   2.889  0.00  0.00    +0.060 C 
BRANCH  26  28
ATOM     27  C   LIG    1       -6.398   4.896   4.109  0.00  0.00    +0.030 C 
ATOM     28  C   LIG    1       -5.548   4.536   2.889  0.00  0.00    +0.010 C 
ENDBRANCH  26  28
ENDBRANCH  23  26
ENDBRANCH  19  24
ENDBRANCH   1  20
TORSDOF 5
