REMARK  Name = ZINCvU00000007BA.0
REMARK                            x       y       z     vdW  Elec       q    Type
REMARK                         _______ _______ _______ _____ _____    ______ ____
ROOT
ATOM      1  C   LIG    1        3.451   5.620   1.448  0.00  0.00    +0.560 C 
ATOM      2  N   LIG    1        2.343   5.088   0.896  0.00  0.00    -0.720 N 
ATOM      3  H   LIG    1        1.472   5.469   1.092  0.00  0.00    +0.400 HD
ATOM      4  O   LIG    1        4.542   5.142   1.202  0.00  0.00    -0.510 OA
ENDROOT
BRANCH   1  10
ATOM      5  C   LIG    1        4.493   7.340   2.926  0.00  0.00    -0.050 A 
ATOM      6  C   LIG    1        4.375   8.435   3.774  0.00  0.00    -0.010 A 
ATOM      7  C   LIG    1        3.132   8.968   4.045  0.00  0.00    +0.060 A 
ATOM      8  C   LIG    1        1.994   8.419   3.477  0.00  0.00    +0.000 A 
ATOM      9  C   LIG    1        2.090   7.337   2.629  0.00  0.00    +0.070 A 
ATOM     10  C   LIG    1        3.341   6.781   2.349  0.00  0.00    -0.130 A 
BRANCH   5  11
ATOM     11  S   LIG    1        6.079   6.655   2.578  0.00  0.00    +0.050 S 
BRANCH  11  12
ATOM     12  C   LIG    1        7.199   7.709   3.542  0.00  0.00    +0.160 C 
BRANCH  12  17
ATOM     13  C   LIG    1       11.862   7.078   1.830  0.00  0.00    +0.210 C 
ATOM     14  C   LIG    1       10.592   6.967   2.633  0.00  0.00    +0.170 A 
ATOM     15  N   LIG    1       10.395   6.193   3.658  0.00  0.00    -0.380 NA
ATOM     16  O   LIG    1        9.268   6.337   4.083  0.00  0.00    +0.090 OA
ATOM     17  C   LIG    1        8.619   7.244   3.346  0.00  0.00    +0.200 A 
ATOM     18  N   LIG    1        9.452   7.647   2.417  0.00  0.00    -0.460 NA
ENDBRANCH  12  17
ENDBRANCH  11  12
ENDBRANCH   5  11
ENDBRANCH   1  10
BRANCH   2  19
ATOM     19  C   LIG    1        2.452   3.933   0.000  0.00  0.00    +0.280 C 
ATOM     20  C   LIG    1        2.750   4.417  -1.421  0.00  0.00    +0.040 C 
BRANCH  19  21
ATOM     21  C   LIG    1        1.155   3.167   0.009  0.00  0.00    -0.090 A 
ATOM     22  C   LIG    1        1.172   1.783   0.000  0.00  0.00    +0.030 A 
ATOM     23  C   LIG    1       -0.013   1.076   0.008  0.00  0.00    +0.030 A 
ATOM     24  C   LIG    1       -1.228   1.757   0.017  0.00  0.00    -0.040 A 
ATOM     25  C   LIG    1       -1.239   3.151   0.031  0.00  0.00    +0.020 A 
ATOM     26  C   LIG    1       -0.048   3.848   0.024  0.00  0.00    +0.010 A 
BRANCH  24  27
ATOM     27  C   LIG    1       -2.505   1.002   0.019  0.00  0.00    -0.050 A 
ATOM     28  C   LIG    1       -2.494  -0.391   0.005  0.00  0.00    +0.020 A 
ATOM     29  C   LIG    1       -3.685  -1.089   0.011  0.00  0.00    +0.010 A 
ATOM     30  C   LIG    1       -4.888  -0.407   0.021  0.00  0.00    +0.000 A 
ATOM     31  C   LIG    1       -4.905   0.976   0.030  0.00  0.00    +0.010 A 
ATOM     32  C   LIG    1       -3.720   1.683   0.028  0.00  0.00    +0.020 A 
ENDBRANCH  24  27
ENDBRANCH  19  21
ENDBRANCH   2  19
TORSDOF 7
