REMARK  Name = ZINCvU0000000I7g.0
REMARK                            x       y       z     vdW  Elec       q    Type
REMARK                         _______ _______ _______ _____ _____    ______ ____
ROOT
ATOM      1  C   LIG    1        3.152   3.248   3.844  0.00  0.00    +0.100 C 
ENDROOT
BRANCH   1   2
ATOM      2  C   LIG    1        3.998   4.474   3.614  0.00  0.00    +0.450 C 
ATOM      3  O   LIG    1        3.761   5.208   2.678  0.00  0.00    -0.460 OA
BRANCH   2   4
ATOM      4  C   LIG    1        5.106   4.780   4.522  0.00  0.00    -0.260 A 
ATOM      5  C   LIG    1        5.969   5.857   4.450  0.00  0.00    +0.110 A 
ATOM      6  N   LIG    1        6.839   5.766   5.471  0.00  0.00    -0.430 N 
ATOM      7  C   LIG    1        6.579   4.656   6.222  0.00  0.00    +0.030 A 
ATOM      8  C   LIG    1        7.348   4.230   7.446  0.00  0.00    +0.140 C 
ATOM      9  C   LIG    1        5.939   6.945   3.408  0.00  0.00    +0.150 C 
ATOM     10  C   LIG    1        5.524   4.008   5.700  0.00  0.00    -0.010 A 
BRANCH   6  11
ATOM     11  C   LIG    1        7.915   6.723   5.740  0.00  0.00    +0.310 C 
BRANCH  11  12
ATOM     12  C   LIG    1        7.397   7.827   6.664  0.00  0.00    +0.140 C 
ATOM     13  C   LIG    1        8.476   8.915   6.861  0.00  0.00    +0.010 C 
ATOM     14  C   LIG    1        8.319   9.336   8.339  0.00  0.00    +0.010 C 
ATOM     15  C   LIG    1        7.163   8.454   8.860  0.00  0.00    +0.200 C 
ATOM     16  O   LIG    1        7.155   7.303   7.987  0.00  0.00    -0.360 OA
ENDBRANCH  11  12
ENDBRANCH   6  11
ENDBRANCH   2   4
ENDBRANCH   1   2
BRANCH   1  17
ATOM     17  S   LIG    1        1.876   3.147   2.564  0.00  0.00    +0.060 S 
BRANCH  17  19
ATOM     18  N   LIG    1       -0.013   1.087   2.447  0.00  0.00    -0.450 N 
ATOM     19  C   LIG    1        1.060   1.667   3.062  0.00  0.00    +0.150 A 
ATOM     20  N   LIG    1        1.370   0.915   4.094  0.00  0.00    -0.290 NA
ATOM     21  N   LIG    1        0.570  -0.088   4.166  0.00  0.00    -0.260 NA
ATOM     22  C   LIG    1       -0.304  -0.035   3.188  0.00  0.00    +0.220 A 
BRANCH  22  23
ATOM     23  C   LIG    1       -1.392  -1.001   2.928  0.00  0.00    -0.010 A 
ATOM     24  C   LIG    1       -1.830  -1.852   3.944  0.00  0.00    +0.090 A 
ATOM     25  C   LIG    1       -2.850  -2.748   3.698  0.00  0.00    +0.030 A 
ATOM     26  C   LIG    1       -3.431  -2.811   2.442  0.00  0.00    -0.020 A 
ATOM     27  C   LIG    1       -2.997  -1.973   1.429  0.00  0.00    +0.030 A 
ATOM     28 CL   LIG    1       -4.710  -3.946   2.138  0.00  0.00    -0.060 Cl
ATOM     29  C   LIG    1       -1.982  -1.070   1.665  0.00  0.00    +0.030 A 
ENDBRANCH  22  23
BRANCH  18  31
ATOM     30  C   LIG    1       -0.016   1.019   0.002  0.00  0.00    +0.050 C 
ATOM     31  C   LIG    1       -0.712   1.564   1.251  0.00  0.00    +0.300 C 
ENDBRANCH  18  31
ENDBRANCH  17  19
ENDBRANCH   1  17
TORSDOF 8
