REMARK  Name = ZINCvU00000007Gu.0
REMARK                            x       y       z     vdW  Elec       q    Type
REMARK                         _______ _______ _______ _____ _____    ______ ____
ROOT
ATOM      1  C   LIG    1        3.026   4.086  -0.003  0.00  0.00    +0.110 C 
ENDROOT
BRANCH   1   4
ATOM      2  N   LIG    1        3.820   6.428   0.004  0.00  0.00    -0.720 N 
ATOM      3  H   LIG    1        2.892   6.710   0.014  0.00  0.00    +0.400 HD
ATOM      4  C   LIG    1        4.126   5.116  -0.007  0.00  0.00    +0.530 C 
ATOM      5  O   LIG    1        5.286   4.763  -0.020  0.00  0.00    -0.520 OA
BRANCH   2   7
ATOM      6  C   LIG    1        5.361   7.678   1.433  0.00  0.00    +0.040 C 
ATOM      7  C   LIG    1        4.889   7.429  -0.001  0.00  0.00    +0.290 C 
BRANCH   7   8
ATOM      8  C   LIG    1        4.370   8.716  -0.589  0.00  0.00    -0.090 A 
ATOM      9  C   LIG    1        3.095   9.150  -0.280  0.00  0.00    +0.040 A 
ATOM     10  C   LIG    1        2.614  10.330  -0.818  0.00  0.00    +0.050 A 
ATOM     11  C   LIG    1        3.410  11.080  -1.667  0.00  0.00    +0.040 A 
ATOM     12  O   LIG    1        3.181  12.257  -2.319  0.00  0.00    -0.310 OA
ATOM     13  C   LIG    1        4.182  12.327  -3.351  0.00  0.00    +0.430 C 
ATOM     14  O   LIG    1        5.271  11.546  -2.824  0.00  0.00    -0.310 OA
ATOM     15  C   LIG    1        4.696  10.643  -1.978  0.00  0.00    +0.040 A 
ATOM     16  C   LIG    1        5.173   9.463  -1.431  0.00  0.00    +0.050 A 
ENDBRANCH   7   8
ENDBRANCH   2   7
ENDBRANCH   1   4
BRANCH   1  17
ATOM     17  S   LIG    1        3.752   2.428  -0.019  0.00  0.00    +0.070 S 
BRANCH  17  18
ATOM     18  C   LIG    1        2.285   1.451  -0.011  0.00  0.00    +0.190 A 
ATOM     19  C   LIG    1        2.362   0.033  -0.020  0.00  0.00    -0.160 A 
ATOM     20  C   LIG    1        3.514  -0.843  -0.037  0.00  0.00    +0.070 A 
ATOM     21  C   LIG    1        3.222  -2.144  -0.042  0.00  0.00    -0.120 A 
ATOM     22  S   LIG    1        1.488  -2.406  -0.026  0.00  0.00    +0.200 S 
ATOM     23  C   LIG    1        1.158  -0.680  -0.013  0.00  0.00    +0.090 A 
ATOM     24  N   LIG    1        0.002  -0.004   0.002  0.00  0.00    -0.490 NA
ATOM     25  C   LIG    1       -0.016   1.309   0.009  0.00  0.00    +0.540 A 
ATOM     26  N   LIG    1        1.092   2.028   0.003  0.00  0.00    -0.530 NA
BRANCH  21  27
ATOM     27  C   LIG    1        4.230  -3.225  -0.058  0.00  0.00    -0.030 A 
ATOM     28  C   LIG    1        5.591  -2.915  -0.076  0.00  0.00    +0.030 A 
ATOM     29  C   LIG    1        6.526  -3.929  -0.086  0.00  0.00    +0.020 A 
ATOM     30  C   LIG    1        6.118  -5.251  -0.089  0.00  0.00    +0.020 A 
ATOM     31  C   LIG    1        4.770  -5.565  -0.078  0.00  0.00    +0.020 A 
ATOM     32  C   LIG    1        3.825  -4.561  -0.062  0.00  0.00    +0.010 A 
ENDBRANCH  21  27
ENDBRANCH  17  18
ENDBRANCH   1  17
TORSDOF 6
