REMARK  Name = ZINCvU0000000D14.0
REMARK                            x       y       z     vdW  Elec       q    Type
REMARK                         _______ _______ _______ _____ _____    ______ ____
ROOT
ATOM      1  C   LIG    1       -5.021   1.383  -0.162  0.00  0.00    +0.150 C 
ATOM      2  N   LIG    1       -3.806   1.800  -0.071  0.00  0.00    -0.230 NA
ATOM      3  N   LIG    1       -3.681   3.188  -0.046  0.00  0.00    -0.460 N 
ATOM      4  C   LIG    1       -5.021   3.788  -0.147  0.00  0.00    +0.260 C 
ATOM      5  C   LIG    1       -2.522   3.869   0.048  0.00  0.00    +0.590 C 
ATOM      6  O   LIG    1       -2.535   5.080   0.151  0.00  0.00    -0.480 OA
ATOM      7  C   LIG    1       -5.959   2.567  -0.227  0.00  0.00    +0.100 C 
ENDROOT
BRANCH   4   8
ATOM      8  C   LIG    1       -5.134   4.627  -1.393  0.00  0.00    -0.100 A 
ATOM      9  C   LIG    1       -4.536   4.207  -2.566  0.00  0.00    +0.010 A 
ATOM     10  C   LIG    1       -4.644   4.974  -3.711  0.00  0.00    +0.000 A 
ATOM     11  C   LIG    1       -5.342   6.167  -3.680  0.00  0.00    -0.080 A 
ATOM     12  C   LIG    1       -5.935   6.590  -2.506  0.00  0.00    +0.000 A 
ATOM     13  C   LIG    1       -5.455   7.006  -4.927  0.00  0.00    +0.090 C 
ATOM     14  C   LIG    1       -5.832   5.820  -1.362  0.00  0.00    +0.030 A 
ENDBRANCH   4   8
BRANCH   5  15
ATOM     15  C   LIG    1       -1.235   3.144   0.026  0.00  0.00    -0.140 A 
ATOM     16  C   LIG    1       -1.216   1.748   0.038  0.00  0.00    +0.110 A 
ATOM     17  C   LIG    1       -0.011   1.077   0.024  0.00  0.00    +0.010 A 
ATOM     18  C   LIG    1        1.178   1.783  -0.014  0.00  0.00    +0.060 A 
ATOM     19  C   LIG    1        1.168   3.166  -0.033  0.00  0.00    +0.010 A 
ATOM     20  C   LIG    1       -0.031   3.852  -0.013  0.00  0.00    +0.020 A 
ATOM     21 CL   LIG    1       -0.042   5.587  -0.035  0.00  0.00    -0.040 Cl
ENDBRANCH   5  15
BRANCH   1  26
ATOM     22  C   LIG    1       -7.169  -1.695  -0.348  0.00  0.00    +0.170 A 
ATOM     23  C   LIG    1       -6.211  -2.697  -0.280  0.00  0.00    -0.140 A 
ATOM     24  C   LIG    1       -4.867  -2.372  -0.174  0.00  0.00    +0.170 A 
ATOM     25  C   LIG    1       -4.474  -1.044  -0.135  0.00  0.00    -0.010 A 
ATOM     26  C   LIG    1       -5.434  -0.033  -0.203  0.00  0.00    +0.040 A 
ATOM     27  C   LIG    1       -6.787  -0.365  -0.304  0.00  0.00    -0.020 A 
BRANCH  22  29
ATOM     28  C   LIG    1       -8.809  -3.411  -0.485  0.00  0.00    +0.250 C 
ATOM     29  O   LIG    1       -8.485  -2.020  -0.451  0.00  0.00    -0.310 OA
ENDBRANCH  22  29
BRANCH  24  30
ATOM     30  O   LIG    1       -3.933  -3.357  -0.108  0.00  0.00    -0.310 OA
ATOM     31  C   LIG    1       -4.408  -4.705  -0.153  0.00  0.00    +0.240 C 
ENDBRANCH  24  30
ENDBRANCH   1  26
TORSDOF 5
