REMARK  Name = ZINC650000002rPT.0
REMARK                            x       y       z     vdW  Elec       q    Type
REMARK                         _______ _______ _______ _____ _____    ______ ____
ROOT
ATOM      1  C   LIG    1       -0.630   1.667   3.762  0.00  0.00    +0.010 C 
ATOM      2  C   LIG    1        0.011   1.072   2.506  0.00  0.00    +0.200 C 
ENDROOT
BRANCH   2   3
ATOM      3  O   LIG    1       -0.070  -0.353   2.560  0.00  0.00    -0.560 OA
ATOM      4  H   LIG    1       -0.973  -0.695   2.607  0.00  0.00    +0.380 HD
ENDBRANCH   2   3
BRANCH   2   5
ATOM      5  C   LIG    1       -0.729   1.579   1.267  0.00  0.00    +0.000 C 
BRANCH   5   6
ATOM      6  C   LIG    1       -0.013   1.086   0.008  0.00  0.00    +0.180 C 
BRANCH   6   7
ATOM      7  O   LIG    1       -0.704   1.559  -1.150  0.00  0.00    -0.580 OA
ATOM      8  H   LIG    1       -0.304   1.284  -1.986  0.00  0.00    +0.380 HD
ENDBRANCH   6   7
ENDBRANCH   5   6
ENDBRANCH   2   5
TORSDOF 4
