REMARK  Name = ZINCtV00000jVvbH.0
REMARK                            x       y       z     vdW  Elec       q    Type
REMARK                         _______ _______ _______ _____ _____    ______ ____
ROOT
ATOM      1  C   LIG    1       -4.286   2.521   3.616  0.00  0.00    +0.300 A 
ATOM      2  N   LIG    1       -4.436   3.073   4.791  0.00  0.00    -0.520 NA
ATOM      3  C   LIG    1       -3.791   4.249   4.825  0.00  0.00    +0.290 A 
ATOM      4  N   LIG    1       -3.216   4.448   3.657  0.00  0.00    -0.290 NA
ATOM      5  N   LIG    1       -3.525   3.333   2.861  0.00  0.00    -0.370 N 
ENDROOT
BRANCH   3   6
ATOM      6  C   LIG    1       -3.734   5.168   5.981  0.00  0.00    -0.110 A 
ATOM      7  C   LIG    1       -3.079   6.346   6.008  0.00  0.00    +0.060 A 
ATOM      8  C   LIG    1       -3.174   7.032   7.201  0.00  0.00    +0.040 A 
ATOM      9  C   LIG    1       -3.891   6.421   8.150  0.00  0.00    -0.150 A 
ATOM     10 CL   LIG    1       -4.173   7.044   9.745  0.00  0.00    -0.010 Cl
ATOM     11  S   LIG    1       -4.505   4.891   7.538  0.00  0.00    +0.230 S 
ENDBRANCH   3   6
BRANCH   1  12
ATOM     12  C   LIG    1       -4.864   1.199   3.183  0.00  0.00    +0.130 C 
ATOM     13  C   LIG    1       -6.391   1.254   3.278  0.00  0.00    +0.080 C 
BRANCH  12  20
ATOM     14  C   LIG    1       -3.328  -1.029   2.083  0.00  0.00    +0.110 C 
ATOM     15  C   LIG    1       -3.615  -0.953   3.561  0.00  0.00    -0.130 A 
ATOM     16  C   LIG    1       -3.155  -1.937   4.415  0.00  0.00    +0.260 A 
ATOM     17  N   LIG    1       -3.402  -1.878   5.709  0.00  0.00    -0.480 NA
ATOM     18  C   LIG    1       -4.092  -0.887   6.238  0.00  0.00    +0.250 A 
ATOM     19  C   LIG    1       -4.580   0.136   5.447  0.00  0.00    +0.010 A 
ATOM     20  C   LIG    1       -4.345   0.105   4.081  0.00  0.00    -0.040 A 
ENDBRANCH  12  20
ENDBRANCH   1  12
BRANCH   5  21
ATOM     21  C   LIG    1       -3.105   3.102   1.476  0.00  0.00    +0.330 C 
BRANCH  21  22
ATOM     22  C   LIG    1       -1.770   2.355   1.466  0.00  0.00    +0.020 C 
BRANCH  22  23
ATOM     23  C   LIG    1       -1.332   2.114   0.020  0.00  0.00    +0.080 C 
BRANCH  23  24
ATOM     24  C   LIG    1       -0.017   1.378   0.010  0.00  0.00    -0.090 A 
ATOM     25  C   LIG    1        1.171   2.086   0.002  0.00  0.00    +0.000 A 
ATOM     26  C   LIG    1        2.377   1.411  -0.014  0.00  0.00    +0.000 A 
ATOM     27  C   LIG    1        2.396   0.029  -0.021  0.00  0.00    +0.000 A 
ATOM     28  C   LIG    1        1.208  -0.679  -0.014  0.00  0.00    +0.000 A 
ATOM     29  C   LIG    1        0.002  -0.004   0.002  0.00  0.00    +0.000 A 
ENDBRANCH  23  24
ENDBRANCH  22  23
ENDBRANCH  21  22
ENDBRANCH   5  21
TORSDOF 7
