REMARK  Name = ZINCrH00000No51n.0
REMARK                            x       y       z     vdW  Elec       q    Type
REMARK                         _______ _______ _______ _____ _____    ______ ____
ROOT
ATOM      1  N   LIG    1        6.388   2.042   1.212  0.00  0.00    -0.710 N 
ATOM      2  H   LIG    1        6.239   2.853   0.701  0.00  0.00    +0.410 HD
ATOM      3  C   LIG    1        5.465   1.629   2.103  0.00  0.00    +0.540 C 
ATOM      4  O   LIG    1        5.652   0.612   2.744  0.00  0.00    -0.540 OA
ENDROOT
BRANCH   3   5
ATOM      5  C   LIG    1        4.236   2.405   2.301  0.00  0.00    -0.010 C 
ATOM      6  C   LIG    1        3.315   1.992   3.192  0.00  0.00    +0.110 C 
BRANCH   6   7
ATOM      7  C   LIG    1        2.081   2.772   3.391  0.00  0.00    +0.120 A 
ATOM      8  N   LIG    1        1.881   3.878   2.690  0.00  0.00    -0.420 NA
ATOM      9  C   LIG    1        0.763   4.582   2.872  0.00  0.00    +0.080 A 
ATOM     10  C   LIG    1        0.522   5.762   2.142  0.00  0.00    +0.060 A 
ATOM     11  C   LIG    1       -0.627   6.459   2.348  0.00  0.00    +0.040 A 
ATOM     12  C   LIG    1       -1.575   6.024   3.272  0.00  0.00    +0.040 A 
ATOM     13  C   LIG    1       -1.378   4.888   3.997  0.00  0.00    +0.060 A 
ATOM     14  C   LIG    1       -0.203   4.139   3.814  0.00  0.00    +0.080 A 
ATOM     15  N   LIG    1        0.013   3.016   4.509  0.00  0.00    -0.420 NA
ATOM     16  C   LIG    1        1.119   2.336   4.324  0.00  0.00    +0.280 A 
ENDBRANCH   6   7
ENDBRANCH   3   5
BRANCH   1  17
ATOM     17  C   LIG    1        7.615   1.266   1.014  0.00  0.00    +0.280 C 
BRANCH  17  18
ATOM     18  C   LIG    1        8.484   1.948  -0.044  0.00  0.00    +0.220 C 
BRANCH  18  19
ATOM     19  C   LIG    1        9.799   1.220  -0.159  0.00  0.00    -0.110 A 
ATOM     20  C   LIG    1       10.296   0.516   0.921  0.00  0.00    +0.040 A 
ATOM     21  C   LIG    1       11.499  -0.156   0.814  0.00  0.00    +0.020 A 
ATOM     22  C   LIG    1       12.212  -0.114  -0.370  0.00  0.00    +0.030 A 
ATOM     23  C   LIG    1       11.718   0.594  -1.450  0.00  0.00    +0.030 A 
ATOM     24  C   LIG    1       10.511   1.262  -1.345  0.00  0.00    -0.030 A 
ATOM     25 CL   LIG    1        9.891   2.152  -2.700  0.00  0.00    -0.060 Cl
ENDBRANCH  18  19
BRANCH  18  27
ATOM     26  C   LIG    1        9.524   3.411   1.581  0.00  0.00    +0.180 C 
ATOM     27  N   LIG    1        8.729   3.343   0.347  0.00  0.00    -0.520 NA
ATOM     28  C   LIG    1        9.378   4.088  -0.739  0.00  0.00    +0.190 C 
ENDBRANCH  18  27
ENDBRANCH  17  18
ENDBRANCH   1  17
TORSDOF 6
