REMARK  Name = ZINCrD0000071VxN.0
REMARK                            x       y       z     vdW  Elec       q    Type
REMARK                         _______ _______ _______ _____ _____    ______ ____
ROOT
ATOM      1  C   LIG    1        4.309   8.222   0.332  0.00  0.00    +0.540 C 
ATOM      2  O   LIG    1        5.347   7.739   0.742  0.00  0.00    -0.490 OA
ENDROOT
BRANCH   1   7
ATOM      3  C   LIG    1        4.378  11.857   0.760  0.00  0.00    -0.220 A 
ATOM      4  C   LIG    1        3.136  11.658   0.184  0.00  0.00    +0.130 A 
ATOM      5  N   LIG    1        2.977  10.345  -0.037  0.00  0.00    -0.510 N 
ATOM      6  H   LIG    1        2.195   9.933  -0.437  0.00  0.00    +0.430 HD
ATOM      7  C   LIG    1        4.099   9.671   0.397  0.00  0.00    -0.050 A 
ATOM      8  C   LIG    1        2.136  12.736  -0.145  0.00  0.00    +0.160 C 
ATOM      9  C   LIG    1        4.983  10.586   0.891  0.00  0.00    -0.010 A 
ATOM     10  C   LIG    1        6.344  10.296   1.468  0.00  0.00    +0.140 C 
BRANCH   3  11
ATOM     11  C   LIG    1        4.961  13.148   1.163  0.00  0.00    +0.550 C 
ATOM     12  O   LIG    1        5.628  13.786   0.372  0.00  0.00    -0.490 OA
BRANCH  11  13
ATOM     13  O   LIG    1        4.753  13.622   2.407  0.00  0.00    -0.350 OA
BRANCH  13  15
ATOM     14  C   LIG    1        5.015  15.273   4.178  0.00  0.00    +0.070 C 
ATOM     15  C   LIG    1        5.358  14.902   2.733  0.00  0.00    +0.200 C 
ENDBRANCH  13  15
ENDBRANCH  11  13
ENDBRANCH   3  11
ENDBRANCH   1   7
BRANCH   1  16
ATOM     16  O   LIG    1        3.352   7.424  -0.183  0.00  0.00    -0.330 OA
BRANCH  16  17
ATOM     17  C   LIG    1        3.628   5.998  -0.216  0.00  0.00    +0.200 C 
ATOM     18  C   LIG    1        4.311   5.641  -1.538  0.00  0.00    +0.070 C 
BRANCH  17  19
ATOM     19  C   LIG    1        2.336   5.233  -0.094  0.00  0.00    +0.520 C 
ATOM     20  N   LIG    1        2.356   3.889   0.001  0.00  0.00    -0.670 N 
ATOM     21  H   LIG    1        3.202   3.419   0.068  0.00  0.00    +0.410 HD
ATOM     22  O   LIG    1        1.278   5.827  -0.082  0.00  0.00    -0.500 OA
BRANCH  20  23
ATOM     23  C   LIG    1        1.155   3.170   0.002  0.00  0.00    +0.140 A 
ATOM     24  C   LIG    1        0.070   3.626  -0.736  0.00  0.00    +0.010 A 
ATOM     25  C   LIG    1       -1.113   2.914  -0.733  0.00  0.00    +0.030 A 
ATOM     26  C   LIG    1       -1.220   1.751   0.008  0.00  0.00    -0.100 A 
ATOM     27  C   LIG    1       -0.141   1.292   0.740  0.00  0.00    +0.030 A 
ATOM     28  C   LIG    1       -2.515   0.980   0.013  0.00  0.00    +0.090 C 
ATOM     29  C   LIG    1        1.046   1.999   0.741  0.00  0.00    -0.010 A 
ENDBRANCH  20  23
ENDBRANCH  17  19
ENDBRANCH  16  17
ENDBRANCH   1  16
TORSDOF 8
