REMARK  Name = ZINCpk00000y6tOl.1
REMARK                            x       y       z     vdW  Elec       q    Type
REMARK                         _______ _______ _______ _____ _____    ______ ____
ROOT
ATOM      1  N   LIG    1       -1.058   1.901  -1.671  0.00  0.00    -0.670 N 
ATOM      2  H   LIG    1       -1.323   1.149  -2.224  0.00  0.00    +0.410 HD
ATOM      3  C   LIG    1       -1.670   2.118  -0.490  0.00  0.00    +0.710 C 
ATOM      4  N   LIG    1       -2.578   1.235  -0.029  0.00  0.00    -0.620 N 
ATOM      5  C   LIG    1       -2.867  -0.007  -0.763  0.00  0.00    +0.260 C 
ATOM      6  C   LIG    1       -2.773  -1.181   0.218  0.00  0.00    +0.230 C 
ATOM      7  O   LIG    1       -3.595  -0.910   1.356  0.00  0.00    -0.370 OA
ATOM      8  C   LIG    1       -3.193   0.238   2.107  0.00  0.00    +0.240 C 
ATOM      9  C   LIG    1       -3.305   1.482   1.226  0.00  0.00    +0.330 C 
ATOM     10  O   LIG    1       -1.402   3.110   0.159  0.00  0.00    -0.530 OA
ENDROOT
BRANCH   1  13
ATOM     11  C   LIG    1        1.882   1.083  -2.044  0.00  0.00    +0.130 C 
ATOM     12  C   LIG    1        1.263   2.437  -2.279  0.00  0.00    -0.190 A 
ATOM     13  C   LIG    1       -0.048   2.760  -2.102  0.00  0.00    +0.330 A 
ATOM     14  N   LIG    1       -0.191   4.069  -2.415  0.00  0.00    -0.340 N 
ATOM     15  N   LIG    1        1.064   4.559  -2.799  0.00  0.00    -0.220 NA
ATOM     16  C   LIG    1       -1.437   4.837  -2.360  0.00  0.00    +0.360 C 
ATOM     17  C   LIG    1        1.930   3.582  -2.721  0.00  0.00    -0.010 A 
BRANCH  17  18
ATOM     18  C   LIG    1        3.399   3.678  -3.046  0.00  0.00    +0.560 C 
ATOM     19  F   LIG    1        3.685   2.872  -4.153  0.00  0.00    -0.170 F 
ATOM     20  F   LIG    1        4.148   3.244  -1.947  0.00  0.00    -0.160 F 
ATOM     21  F   LIG    1        3.727   5.006  -3.338  0.00  0.00    -0.170 F 
ENDBRANCH  17  18
ENDBRANCH   1  13
BRANCH   9  22
ATOM     22  C   LIG    1       -2.699   2.664   1.939  0.00  0.00    +0.170 A 
ATOM     23  N   LIG    1       -1.435   2.835   2.216  0.00  0.00    -0.220 NA
ATOM     24  N   LIG    1       -1.274   3.955   2.827  0.00  0.00    -0.290 NA
ATOM     25  C   LIG    1       -2.429   4.544   2.977  0.00  0.00    +0.370 A 
ATOM     26  N   LIG    1       -3.366   3.741   2.418  0.00  0.00    -0.580 N 
ATOM     27  H   LIG    1       -4.321   3.905   2.370  0.00  0.00    +0.420 HD
ENDBRANCH   9  22
TORSDOF 3
