REMARK  Name = ZINCpk00000y6tOl.0
REMARK                            x       y       z     vdW  Elec       q    Type
REMARK                         _______ _______ _______ _____ _____    ______ ____
ROOT
ATOM      1  N   LIG    1       -2.585   1.449   3.970  0.00  0.00    -0.670 N 
ATOM      2  H   LIG    1       -1.830   2.047   4.086  0.00  0.00    +0.420 HD
ATOM      3  C   LIG    1       -2.923   1.023   2.737  0.00  0.00    +0.710 C 
ATOM      4  N   LIG    1       -2.147   1.334   1.680  0.00  0.00    -0.620 N 
ATOM      5  C   LIG    1       -0.857   2.021   1.863  0.00  0.00    +0.250 C 
ATOM      6  C   LIG    1        0.217   1.242   1.095  0.00  0.00    +0.230 C 
ATOM      7  O   LIG    1       -0.214   1.049  -0.254  0.00  0.00    -0.370 OA
ATOM      8  C   LIG    1       -1.405   0.268  -0.382  0.00  0.00    +0.240 C 
ATOM      9  C   LIG    1       -2.563   0.997   0.309  0.00  0.00    +0.340 C 
ATOM     10  O   LIG    1       -3.928   0.357   2.578  0.00  0.00    -0.540 OA
ENDROOT
BRANCH   1  13
ATOM     11  C   LIG    1       -1.364   0.191   6.496  0.00  0.00    +0.130 C 
ATOM     12  C   LIG    1       -2.817   0.471   6.213  0.00  0.00    -0.200 A 
ATOM     13  C   LIG    1       -3.320   1.030   5.079  0.00  0.00    +0.330 A 
ATOM     14  N   LIG    1       -4.663   1.102   5.220  0.00  0.00    -0.340 N 
ATOM     15  N   LIG    1       -4.993   0.578   6.476  0.00  0.00    -0.220 NA
ATOM     16  C   LIG    1       -5.607   1.635   4.234  0.00  0.00    +0.370 C 
ATOM     17  C   LIG    1       -3.889   0.204   7.070  0.00  0.00    -0.010 A 
BRANCH  17  18
ATOM     18  C   LIG    1       -3.789  -0.415   8.441  0.00  0.00    +0.560 C 
ATOM     19  F   LIG    1       -3.095   0.451   9.294  0.00  0.00    -0.170 F 
ATOM     20  F   LIG    1       -3.105  -1.632   8.354  0.00  0.00    -0.160 F 
ATOM     21  F   LIG    1       -5.074  -0.637   8.946  0.00  0.00    -0.170 F 
ENDBRANCH  17  18
ENDBRANCH   1  13
BRANCH   9  22
ATOM     22  C   LIG    1       -3.773   0.100   0.353  0.00  0.00    +0.240 A 
ATOM     23  N   LIG    1       -3.805  -1.110   0.848  0.00  0.00    -0.270 NA
ATOM     24  N   LIG    1       -5.119  -1.579   0.688  0.00  0.00    -0.470 N 
ATOM     25  H   LIG    1       -5.464  -2.445   0.957  0.00  0.00    +0.440 HD
ATOM     26  C   LIG    1       -5.802  -0.593   0.083  0.00  0.00    +0.480 A 
ATOM     27  N   LIG    1       -4.983   0.408  -0.113  0.00  0.00    -0.540 NA
ENDBRANCH   9  22
TORSDOF 3
