REMARK  Name = ZINCrm00000VuQwl.1
REMARK                            x       y       z     vdW  Elec       q    Type
REMARK                         _______ _______ _______ _____ _____    ______ ____
ROOT
ATOM      1  N   LIG    1        3.558   2.487  -0.882  0.00  0.00    -0.390 N 
ATOM      2  C   LIG    1        4.157   1.405  -1.692  0.00  0.00    +0.260 C 
ATOM      3  C   LIG    1        5.387   2.051  -2.373  0.00  0.00    +0.070 C 
ATOM      4  C   LIG    1        5.907   2.988  -1.251  0.00  0.00    +0.190 C 
ATOM      5  C   LIG    1        4.608   3.476  -0.575  0.00  0.00    +0.290 C 
ATOM      6  H   LIG    1        2.817   2.930  -1.403  0.00  0.00    +0.430 HD
ENDROOT
BRANCH   1   7
ATOM      7  C   LIG    1        3.022   1.931   0.367  0.00  0.00    +0.340 C 
BRANCH   7  13
ATOM      8  C   LIG    1        1.066  -2.620  -0.467  0.00  0.00    +0.150 C 
ATOM      9  C   LIG    1        0.906  -1.127  -0.345  0.00  0.00    +0.130 A 
ATOM     10  N   LIG    1       -0.283  -0.583  -0.508  0.00  0.00    -0.440 NA
ATOM     11  C   LIG    1       -0.472   0.719  -0.406  0.00  0.00    +0.320 A 
ATOM     12  C   LIG    1        0.581   1.568  -0.122  0.00  0.00    -0.120 A 
ATOM     13  C   LIG    1        1.849   1.038   0.057  0.00  0.00    -0.130 A 
ATOM     14  C   LIG    1        2.012  -0.339  -0.059  0.00  0.00    +0.080 A 
BRANCH  14  15
ATOM     15  O   LIG    1        3.236  -0.904   0.109  0.00  0.00    -0.480 OA
ATOM     16  H   LIG    1        3.716  -1.054  -0.717  0.00  0.00    +0.390 HD
ENDBRANCH  14  15
BRANCH  12  17
ATOM     17  C   LIG    1        0.352   3.053  -0.007  0.00  0.00    +0.250 C 
BRANCH  17  18
ATOM     18  O   LIG    1       -1.002   3.354  -0.348  0.00  0.00    -0.560 OA
ATOM     19  H   LIG    1       -1.221   4.295  -0.296  0.00  0.00    +0.400 HD
ENDBRANCH  17  18
ENDBRANCH  12  17
ENDBRANCH   7  13
ENDBRANCH   1   7
BRANCH   4  20
ATOM     20  O   LIG    1        6.633   4.088  -1.803  0.00  0.00    -0.280 OA
BRANCH  20  21
ATOM     21  C   LIG    1        7.970   3.924  -1.967  0.00  0.00    +0.170 A 
ATOM     22  C   LIG    1        8.774   4.981  -2.387  0.00  0.00    +0.000 A 
ATOM     23  C   LIG    1       10.129   4.774  -2.542  0.00  0.00    +0.350 A 
ATOM     24  N   LIG    1       10.664   3.593  -2.297  0.00  0.00    -0.480 NA
ATOM     25  C   LIG    1        9.936   2.567  -1.898  0.00  0.00    +0.100 A 
ATOM     26  C   LIG    1        8.575   2.695  -1.714  0.00  0.00    -0.090 A 
BRANCH  25  27
ATOM     27  C   LIG    1       10.601   1.241  -1.634  0.00  0.00    +0.340 C 
BRANCH  27  28
ATOM     28  N   LIG    1       10.718   0.492  -2.892  0.00  0.00    -0.380 N 
ATOM     29  C   LIG    1       11.256  -0.847  -2.618  0.00  0.00    +0.330 C 
ATOM     30  C   LIG    1       11.622   1.205  -3.804  0.00  0.00    +0.330 C 
ATOM     31  H   LIG    1        9.807   0.408  -3.319  0.00  0.00    +0.420 HD
ENDBRANCH  27  28
ENDBRANCH  25  27
ENDBRANCH  20  21
ENDBRANCH   4  20
TORSDOF 9
