REMARK  Name = ZINCrm00000VuQwl.0
REMARK                            x       y       z     vdW  Elec       q    Type
REMARK                         _______ _______ _______ _____ _____    ______ ____
ROOT
ATOM      1  N   LIG    1       -4.984   0.191   6.734  0.00  0.00    -0.380 N 
ATOM      2  C   LIG    1       -3.770  -0.079   7.526  0.00  0.00    +0.260 C 
ATOM      3  C   LIG    1       -2.639  -0.411   6.529  0.00  0.00    +0.080 C 
ATOM      4  C   LIG    1       -3.131   0.243   5.211  0.00  0.00    +0.180 C 
ATOM      5  C   LIG    1       -4.661   0.017   5.302  0.00  0.00    +0.300 C 
ATOM      6  H   LIG    1       -5.293   1.137   6.901  0.00  0.00    +0.440 HD
ENDROOT
BRANCH   1   7
ATOM      7  C   LIG    1       -6.044  -0.751   7.120  0.00  0.00    +0.340 C 
BRANCH   7  13
ATOM      8  C   LIG    1       -8.196   1.952  10.766  0.00  0.00    +0.150 C 
ATOM      9  C   LIG    1       -7.423   0.740  10.315  0.00  0.00    +0.130 A 
ATOM     10  N   LIG    1       -7.047  -0.161  11.201  0.00  0.00    -0.440 NA
ATOM     11  C   LIG    1       -6.369  -1.237  10.852  0.00  0.00    +0.320 A 
ATOM     12  C   LIG    1       -6.029  -1.465   9.532  0.00  0.00    -0.120 A 
ATOM     13  C   LIG    1       -6.400  -0.541   8.569  0.00  0.00    -0.130 A 
ATOM     14  C   LIG    1       -7.114   0.583   8.971  0.00  0.00    +0.070 A 
BRANCH  14  15
ATOM     15  O   LIG    1       -7.505   1.514   8.061  0.00  0.00    -0.490 OA
ATOM     16  H   LIG    1       -8.376   1.345   7.675  0.00  0.00    +0.410 HD
ENDBRANCH  14  15
BRANCH  12  17
ATOM     17  C   LIG    1       -5.259  -2.702   9.146  0.00  0.00    +0.250 C 
BRANCH  17  18
ATOM     18  O   LIG    1       -5.114  -3.549  10.288  0.00  0.00    -0.560 OA
ATOM     19  H   LIG    1       -4.627  -4.365  10.112  0.00  0.00    +0.400 HD
ENDBRANCH  17  18
ENDBRANCH  12  17
ENDBRANCH   7  13
ENDBRANCH   1   7
BRANCH   4  20
ATOM     20  O   LIG    1       -2.582  -0.423   4.073  0.00  0.00    -0.280 OA
BRANCH  20  21
ATOM     21  C   LIG    1       -1.408   0.054   3.587  0.00  0.00    +0.170 A 
ATOM     22  C   LIG    1       -0.806   1.177   4.149  0.00  0.00    -0.080 A 
ATOM     23  C   LIG    1        0.387   1.632   3.626  0.00  0.00    +0.340 A 
ATOM     24  N   LIG    1        0.957   1.016   2.608  0.00  0.00    -0.480 NA
ATOM     25  C   LIG    1        0.418  -0.051   2.049  0.00  0.00    +0.100 A 
ATOM     26  C   LIG    1       -0.777  -0.564   2.510  0.00  0.00    -0.010 A 
BRANCH  25  27
ATOM     27  C   LIG    1        1.114  -0.715   0.888  0.00  0.00    +0.350 C 
BRANCH  27  28
ATOM     28  N   LIG    1        0.736  -0.039  -0.360  0.00  0.00    -0.380 N 
ATOM     29  C   LIG    1        1.317  -0.758  -1.502  0.00  0.00    +0.340 C 
ATOM     30  C   LIG    1        1.240   1.341  -0.342  0.00  0.00    +0.320 C 
ATOM     31  H   LIG    1       -0.270  -0.028  -0.446  0.00  0.00    +0.420 HD
ENDBRANCH  27  28
ENDBRANCH  25  27
ENDBRANCH  20  21
ENDBRANCH   4  20
TORSDOF 9
