REMARK  Name = ZINCrH000004vFKZ.0
REMARK                            x       y       z     vdW  Elec       q    Type
REMARK                         _______ _______ _______ _____ _____    ______ ____
ROOT
ATOM      1  O   LIG    1        3.455   4.073  -0.097  0.00  0.00    -0.530 OA
ATOM      2  C   LIG    1        4.227   3.134  -0.022  0.00  0.00    +0.620 C 
ATOM      3  N   LIG    1        5.553   3.357   0.069  0.00  0.00    -0.590 N 
ATOM      4  C   LIG    1        6.503   2.236   0.062  0.00  0.00    +0.290 C 
ATOM      5  C   LIG    1        7.409   2.344   1.287  0.00  0.00    +0.030 C 
ATOM      6  C   LIG    1        8.067   3.726   1.312  0.00  0.00    +0.030 C 
ATOM      7  C   LIG    1        6.986   4.805   1.411  0.00  0.00    +0.260 C 
ATOM      8  C   LIG    1        6.076   4.726   0.182  0.00  0.00    +0.300 C 
ENDROOT
BRANCH   2   9
ATOM      9  C   LIG    1        3.715   1.764  -0.030  0.00  0.00    -0.060 A 
ATOM     10  C   LIG    1        2.369   1.377  -0.000  0.00  0.00    +0.110 A 
ATOM     11  C   LIG    1        1.161   2.087   0.043  0.00  0.00    +0.090 A 
ATOM     12  C   LIG    1       -0.015   1.398   0.063  0.00  0.00    +0.060 A 
ATOM     13  C   LIG    1        0.004  -0.006   0.040  0.00  0.00    +0.040 A 
ATOM     14  C   LIG    1        1.177  -0.674  -0.002  0.00  0.00    +0.230 A 
ATOM     15  N   LIG    1        2.362   0.004  -0.022  0.00  0.00    -0.340 N 
ATOM     16  C   LIG    1        3.662  -0.404  -0.063  0.00  0.00    +0.150 A 
ATOM     17 BR   LIG    1        4.234  -2.206  -0.108  0.00  0.00    +0.080 Br
ATOM     18  N   LIG    1        4.450   0.632  -0.067  0.00  0.00    -0.380 NA
ENDBRANCH   2   9
BRANCH   7  19
ATOM     19  N   LIG    1        7.617   6.126   1.468  0.00  0.00    -0.340 N 
ATOM     20  C   LIG    1        8.016   6.861   0.408  0.00  0.00    +0.250 A 
ATOM     21  C   LIG    1        8.544   8.014   0.881  0.00  0.00    -0.070 A 
ATOM     22  C   LIG    1        8.474   7.978   2.278  0.00  0.00    -0.020 A 
ATOM     23  N   LIG    1        7.919   6.847   2.630  0.00  0.00    -0.230 NA
BRANCH  22  24
ATOM     24  C   LIG    1        8.955   9.056   3.215  0.00  0.00    +0.560 C 
ATOM     25  F   LIG    1        8.190  10.212   3.028  0.00  0.00    -0.170 F 
ATOM     26  F   LIG    1       10.300   9.339   2.950  0.00  0.00    -0.170 F 
ATOM     27  F   LIG    1        8.823   8.618   4.537  0.00  0.00    -0.170 F 
ENDBRANCH  22  24
ENDBRANCH   7  19
TORSDOF 3
