REMARK  Name = ZINCrH00000No4t1.0
REMARK                            x       y       z     vdW  Elec       q    Type
REMARK                         _______ _______ _______ _____ _____    ______ ____
ROOT
ATOM      1  C   LIG    1        3.362   0.616   0.002  0.00  0.00    +0.230 C 
ATOM      2  C   LIG    1        2.700  -0.642  -0.586  0.00  0.00    +0.030 C 
ATOM      3  C   LIG    1        1.810  -0.244  -1.759  0.00  0.00    +0.020 C 
ATOM      4  C   LIG    1        0.329  -0.507  -1.432  0.00  0.00    +0.020 C 
ATOM      5  C   LIG    1        0.018  -0.018  -0.018  0.00  0.00    +0.010 C 
ATOM      6  C   LIG    1       -0.013   1.516  -0.004  0.00  0.00    +0.260 C 
ATOM      7  N   LIG    1        1.356   2.003  -0.005  0.00  0.00    -0.600 N 
ATOM      8  C   LIG    1        1.712   3.035  -0.796  0.00  0.00    +0.550 C 
ATOM      9  O   LIG    1        2.838   3.494  -0.729  0.00  0.00    -0.530 OA
ATOM     10  C   LIG    1        2.349   1.357   0.865  0.00  0.00    +0.270 C 
ENDROOT
BRANCH   1  11
ATOM     11  N   LIG    1        4.513   0.226   0.820  0.00  0.00    -0.670 N 
ATOM     12  H   LIG    1        4.547  -0.657   1.219  0.00  0.00    +0.420 HD
BRANCH  11  16
ATOM     13  C   LIG    1        7.497   1.924   1.783  0.00  0.00    +0.300 A 
ATOM     14  N   LIG    1        7.195   3.017   1.144  0.00  0.00    -0.480 NA
ATOM     15  S   LIG    1        5.691   2.722   0.409  0.00  0.00    +0.240 S 
ATOM     16  C   LIG    1        5.549   1.119   1.025  0.00  0.00    +0.330 A 
ATOM     17  N   LIG    1        6.645   0.926   1.729  0.00  0.00    -0.580 NA
BRANCH  13  18
ATOM     18  C   LIG    1        8.782   1.808   2.561  0.00  0.00    +0.270 C 
ATOM     19  C   LIG    1        9.951   1.631   1.591  0.00  0.00    +0.040 C 
BRANCH  18  21
ATOM     20  C   LIG    1        9.702   2.783   4.548  0.00  0.00    +0.210 C 
ATOM     21  O   LIG    1        8.980   2.994   3.334  0.00  0.00    -0.370 OA
ENDBRANCH  18  21
ENDBRANCH  13  18
ENDBRANCH  11  16
ENDBRANCH   1  11
BRANCH   8  22
ATOM     22  C   LIG    1        0.776   3.585  -1.706  0.00  0.00    -0.090 C 
ATOM     23  C   LIG    1        1.164   4.549  -2.577  0.00  0.00    +0.180 C 
BRANCH  23  24
ATOM     24  C   LIG    1        0.229   5.099  -3.487  0.00  0.00    -0.020 A 
ATOM     25  C   LIG    1        0.485   6.079  -4.423  0.00  0.00    +0.010 A 
ATOM     26  C   LIG    1       -0.723   6.312  -5.098  0.00  0.00    -0.060 A 
ATOM     27  C   LIG    1       -1.647   5.485  -4.561  0.00  0.00    +0.200 A 
ATOM     28  O   LIG    1       -1.071   4.753  -3.596  0.00  0.00    -0.170 OA
ENDBRANCH  23  24
ENDBRANCH   8  22
TORSDOF 6
