REMARK  Name = ZINCqH0000003oYn.0
REMARK                            x       y       z     vdW  Elec       q    Type
REMARK                         _______ _______ _______ _____ _____    ______ ____
ROOT
ATOM      1  C   LIG    1       -1.255  -0.753   0.010  0.00  0.00    -0.190 A 
ATOM      2  C   LIG    1       -1.920  -1.129  -1.127  0.00  0.00    +0.050 A 
ATOM      3  S   LIG    1       -3.342  -1.987  -0.745  0.00  0.00    +0.330 S 
ATOM      4  C   LIG    1       -3.066  -1.842   0.981  0.00  0.00    -0.090 A 
ATOM      5  C   LIG    1       -1.934  -1.171   1.225  0.00  0.00    -0.010 A 
ENDROOT
BRANCH   5   6
ATOM      6  C   LIG    1       -1.428  -0.884   2.589  0.00  0.00    -0.050 A 
ATOM      7  C   LIG    1       -0.107  -1.180   2.921  0.00  0.00    +0.060 A 
ATOM      8  C   LIG    1        0.361  -0.905   4.189  0.00  0.00    -0.010 A 
ATOM      9  C   LIG    1       -0.483  -0.348   5.136  0.00  0.00    +0.100 A 
ATOM     10  C   LIG    1       -1.798  -0.057   4.812  0.00  0.00    -0.010 A 
ATOM     11  F   LIG    1       -0.021  -0.086   6.378  0.00  0.00    -0.140 F 
ATOM     12  C   LIG    1       -2.274  -0.323   3.545  0.00  0.00    +0.070 A 
ENDBRANCH   5   6
BRANCH   2  13
ATOM     13  N   LIG    1       -1.492  -0.852  -2.415  0.00  0.00    -0.630 N 
ATOM     14  H   LIG    1       -0.669  -0.359  -2.557  0.00  0.00    +0.420 HD
ATOM     15  C   LIG    1       -2.219  -1.267  -3.471  0.00  0.00    +0.510 C 
ATOM     16  O   LIG    1       -3.249  -1.884  -3.293  0.00  0.00    -0.480 OA
BRANCH  15  17
ATOM     17  C   LIG    1       -1.754  -0.966  -4.872  0.00  0.00    +0.230 C 
BRANCH  17  18
ATOM     18  N   LIG    1       -2.713  -1.520  -5.837  0.00  0.00    -0.500 NA
ATOM     19  C   LIG    1       -4.095  -1.067  -5.535  0.00  0.00    +0.180 C 
ATOM     20  C   LIG    1       -4.839  -1.280  -6.877  0.00  0.00    +0.020 C 
ATOM     21  C   LIG    1       -3.774  -0.893  -7.928  0.00  0.00    +0.020 C 
ATOM     22  C   LIG    1       -2.423  -1.044  -7.207  0.00  0.00    +0.160 C 
ENDBRANCH  17  18
ENDBRANCH  15  17
ENDBRANCH   2  13
BRANCH   1  23
ATOM     23  C   LIG    1        0.002  -0.004   0.002  0.00  0.00    +0.540 C 
ATOM     24  O   LIG    1        1.064  -0.598  -0.011  0.00  0.00    -0.490 OA
BRANCH  23  25
ATOM     25  O   LIG    1       -0.016   1.345   0.009  0.00  0.00    -0.350 OA
BRANCH  25  27
ATOM     26  C   LIG    1        1.047   3.535   0.011  0.00  0.00    +0.070 C 
ATOM     27  C   LIG    1        1.268   2.022   0.001  0.00  0.00    +0.200 C 
ENDBRANCH  25  27
ENDBRANCH  23  25
ENDBRANCH   1  23
TORSDOF 7
