REMARK  Name = ZINCqH000000769L.0
REMARK                            x       y       z     vdW  Elec       q    Type
REMARK                         _______ _______ _______ _____ _____    ______ ____
ROOT
ATOM      1  C   LIG    1       -0.646  -4.929   0.820  0.00  0.00    +0.260 C 
ENDROOT
BRANCH   1   4
ATOM      2  N   LIG    1       -0.281  -2.793  -0.372  0.00  0.00    -0.650 N 
ATOM      3  H   LIG    1       -0.914  -2.380   0.236  0.00  0.00    +0.420 HD
ATOM      4  C   LIG    1        0.052  -4.090  -0.219  0.00  0.00    +0.520 C 
ATOM      5  O   LIG    1        0.914  -4.581  -0.916  0.00  0.00    -0.510 OA
BRANCH   2  12
ATOM      6  C   LIG    1        0.280  -0.650  -1.349  0.00  0.00    +0.090 A 
ATOM      7  C   LIG    1        0.847   0.088  -2.375  0.00  0.00    -0.050 A 
ATOM      8  C   LIG    1        1.413  -0.557  -3.459  0.00  0.00    +0.030 A 
ATOM      9  C   LIG    1        1.414  -1.938  -3.523  0.00  0.00    -0.100 A 
ATOM     10  C   LIG    1        0.850  -2.681  -2.503  0.00  0.00    +0.060 A 
ATOM     11  C   LIG    1        2.032  -2.635  -4.708  0.00  0.00    +0.100 C 
ATOM     12  C   LIG    1        0.286  -2.042  -1.410  0.00  0.00    +0.120 A 
BRANCH   6  14
ATOM     13  C   LIG    1       -0.240   1.412  -0.283  0.00  0.00    +0.250 C 
ATOM     14  O   LIG    1       -0.276  -0.017  -0.281  0.00  0.00    -0.320 OA
ENDBRANCH   6  14
ENDBRANCH   2  12
ENDBRANCH   1   4
BRANCH   1  15
ATOM     15  N   LIG    1       -0.451  -6.348   0.512  0.00  0.00    -0.710 N 
ATOM     16  H   LIG    1        0.319  -6.631  -0.005  0.00  0.00    +0.410 HD
ATOM     17  C   LIG    1       -1.341  -7.261   0.949  0.00  0.00    +0.570 C 
ATOM     18  O   LIG    1       -2.306  -6.907   1.598  0.00  0.00    -0.530 OA
BRANCH  17  19
ATOM     19  C   LIG    1       -1.144  -8.693   0.639  0.00  0.00    -0.140 A 
ATOM     20  C   LIG    1       -0.040  -9.102  -0.111  0.00  0.00    +0.050 A 
ATOM     21  C   LIG    1        0.141 -10.441  -0.394  0.00  0.00    +0.000 A 
ATOM     22  C   LIG    1       -0.775 -11.375   0.056  0.00  0.00    -0.060 A 
ATOM     23  C   LIG    1       -1.874 -10.976   0.796  0.00  0.00    +0.000 A 
ATOM     24  C   LIG    1       -0.574 -12.835  -0.261  0.00  0.00    +0.100 C 
ATOM     25  C   LIG    1       -2.064  -9.641   1.089  0.00  0.00    +0.090 A 
ENDBRANCH  17  19
ENDBRANCH   1  15
BRANCH   1  26
ATOM     26  C   LIG    1       -0.063  -4.622   2.201  0.00  0.00    -0.020 C 
ATOM     27  C   LIG    1        1.400  -5.068   2.248  0.00  0.00    +0.030 C 
ATOM     28  C   LIG    1       -0.860  -5.372   3.269  0.00  0.00    +0.040 C 
ENDBRANCH   1  26
TORSDOF 6
