REMARK  Name = ZINCrD000000BLbz.0
REMARK                            x       y       z     vdW  Elec       q    Type
REMARK                         _______ _______ _______ _____ _____    ______ ____
ROOT
ATOM      1  O   LIG    1       -1.513  -0.101   1.706  0.00  0.00    -0.570 OA
ATOM      2  C   LIG    1       -1.909   1.048   1.741  0.00  0.00    +0.740 C 
ATOM      3  N   LIG    1       -2.540   1.509   2.839  0.00  0.00    -0.660 N 
ATOM      4  C   LIG    1       -3.222   2.758   3.220  0.00  0.00    +0.290 C 
ATOM      5  C   LIG    1       -4.037   1.933   4.212  0.00  0.00    -0.120 C 
ATOM      6  C   LIG    1       -4.566   2.528   5.514  0.00  0.00    +0.040 C 
ATOM      7  C   LIG    1       -5.939   2.597   4.820  0.00  0.00    +0.010 C 
ATOM      8  C   LIG    1       -5.454   1.457   3.904  0.00  0.00    +0.050 C 
ATOM      9  C   LIG    1       -2.843   0.988   4.183  0.00  0.00    +0.270 C 
ATOM     10  N   LIG    1       -1.718   1.859   0.682  0.00  0.00    -0.720 N 
ATOM     11  H   LIG    1       -2.034   2.776   0.711  0.00  0.00    +0.400 HD
ENDROOT
BRANCH  10  12
ATOM     12  C   LIG    1       -1.032   1.357  -0.511  0.00  0.00    +0.270 C 
ATOM     13  C   LIG    1        0.470   1.444  -0.453  0.00  0.00    -0.060 C 
ATOM     14  C   LIG    1        1.333   1.588   0.791  0.00  0.00    +0.020 C 
ATOM     15  C   LIG    1        2.057   2.944   0.527  0.00  0.00    +0.200 C 
ATOM     16  O   LIG    1        1.445   3.478  -0.688  0.00  0.00    -0.350 OA
ATOM     17  C   LIG    1        0.132   2.986  -0.632  0.00  0.00    +0.130 C 
ATOM     18  C   LIG    1       -0.810   2.420  -1.627  0.00  0.00    -0.040 C 
ATOM     19  C   LIG    1       -2.071   3.219  -1.979  0.00  0.00    +0.030 C 
ATOM     20  C   LIG    1       -1.878   3.581  -3.475  0.00  0.00    +0.020 C 
ATOM     21  C   LIG    1       -1.200   2.312  -4.053  0.00  0.00    +0.010 C 
ATOM     22  C   LIG    1       -0.248   1.845  -2.929  0.00  0.00    +0.060 C 
ENDBRANCH  10  12
BRANCH   9  23
ATOM     23  C   LIG    1       -3.235  -0.491   4.190  0.00  0.00    +0.000 C 
ATOM     24  C   LIG    1       -3.953  -0.825   5.501  0.00  0.00    +0.000 C 
ATOM     25  C   LIG    1       -4.271  -2.322   5.533  0.00  0.00    +0.200 C 
ATOM     26  O   LIG    1       -3.061  -3.068   5.392  0.00  0.00    -0.390 OA
ATOM     27  C   LIG    1       -2.370  -2.833   4.163  0.00  0.00    +0.200 C 
ATOM     28  C   LIG    1       -1.975  -1.356   4.076  0.00  0.00    +0.010 C 
ENDBRANCH   9  23
TORSDOF 2
