REMARK  Name = ZINCpe000000Y0B0.1
REMARK                            x       y       z     vdW  Elec       q    Type
REMARK                         _______ _______ _______ _____ _____    ______ ____
ROOT
ATOM      1  N   LIG    1       -0.037  -0.015  -0.177  0.00  0.00    -0.530 NA
ATOM      2  C   LIG    1        0.937  -0.389   0.857  0.00  0.00    +0.190 C 
ATOM      3  C   LIG    1        0.838  -1.895   1.126  0.00  0.00    +0.310 C 
ATOM      4  N   LIG    1        0.982  -2.608  -0.152  0.00  0.00    -0.580 N 
ATOM      5  C   LIG    1        0.133  -2.195  -1.279  0.00  0.00    +0.300 C 
ATOM      6  C   LIG    1        0.260  -0.678  -1.454  0.00  0.00    +0.190 C 
ENDROOT
BRANCH   4   7
ATOM      7  C   LIG    1        1.898  -3.646  -0.290  0.00  0.00    +0.420 A 
ATOM      8  N   LIG    1        2.085  -4.192  -1.469  0.00  0.00    -0.340 NA
ATOM      9  N   LIG    1        3.003  -5.231  -1.631  0.00  0.00    -0.250 N 
ATOM     10  C   LIG    1        3.712  -5.698  -0.552  0.00  0.00    +0.130 A 
ATOM     11  C   LIG    1        3.506  -5.115   0.713  0.00  0.00    +0.190 A 
ATOM     12  N   LIG    1        4.490  -6.671  -0.996  0.00  0.00    -0.240 NA
ATOM     13  N   LIG    1        4.301  -6.822  -2.260  0.00  0.00    -0.220 NA
ATOM     14  C   LIG    1        3.405  -5.968  -2.689  0.00  0.00    +0.120 A 
ATOM     15  C   LIG    1        2.608  -4.102   0.837  0.00  0.00    -0.010 A 
BRANCH  14  16
ATOM     16  C   LIG    1        2.913  -5.831  -4.106  0.00  0.00    +0.530 C 
ATOM     17  F   LIG    1        3.186  -4.540  -4.572  0.00  0.00    -0.180 F 
ATOM     18  F   LIG    1        1.533  -6.059  -4.145  0.00  0.00    -0.180 F 
ENDBRANCH  14  16
ENDBRANCH   4   7
BRANCH   1  19
ATOM     19  C   LIG    1       -0.095   1.444  -0.342  0.00  0.00    +0.320 C 
BRANCH  19  23
ATOM     20  C   LIG    1       -3.343   3.280   2.998  0.00  0.00    +0.190 C 
ATOM     21  C   LIG    1       -2.049   2.860   2.350  0.00  0.00    +0.290 A 
ATOM     22  N   LIG    1       -1.924   2.313   1.168  0.00  0.00    -0.530 NA
ATOM     23  C   LIG    1       -0.638   2.071   0.917  0.00  0.00    +0.240 A 
ATOM     24  N   LIG    1        0.077   2.470   1.936  0.00  0.00    -0.320 NA
ATOM     25  N   LIG    1       -0.822   2.988   2.883  0.00  0.00    -0.480 N 
ATOM     26  H   LIG    1       -0.600   3.364   3.749  0.00  0.00    +0.440 HD
ENDBRANCH  19  23
ENDBRANCH   1  19
TORSDOF 4
