REMARK  Name = ZINCpe000000Y0B0.0
REMARK                            x       y       z     vdW  Elec       q    Type
REMARK                         _______ _______ _______ _____ _____    ______ ____
ROOT
ATOM      1  N   LIG    1        4.163   0.272   1.298  0.00  0.00    -0.530 NA
ATOM      2  C   LIG    1        3.946   1.583   1.925  0.00  0.00    +0.170 C 
ATOM      3  C   LIG    1        4.174   1.467   3.436  0.00  0.00    +0.310 C 
ATOM      4  N   LIG    1        5.503   0.881   3.664  0.00  0.00    -0.580 N 
ATOM      5  C   LIG    1        5.846  -0.364   2.960  0.00  0.00    +0.300 C 
ATOM      6  C   LIG    1        5.552  -0.176   1.468  0.00  0.00    +0.190 C 
ENDROOT
BRANCH   4   7
ATOM      7  C   LIG    1        6.414   1.489   4.522  0.00  0.00    +0.420 A 
ATOM      8  N   LIG    1        7.630   1.008   4.623  0.00  0.00    -0.330 NA
ATOM      9  N   LIG    1        8.561   1.606   5.475  0.00  0.00    -0.250 N 
ATOM     10  C   LIG    1        8.204   2.700   6.224  0.00  0.00    +0.130 A 
ATOM     11  C   LIG    1        6.897   3.212   6.119  0.00  0.00    +0.200 A 
ATOM     12  N   LIG    1        9.269   3.046   6.929  0.00  0.00    -0.240 NA
ATOM     13  N   LIG    1       10.237   2.241   6.659  0.00  0.00    -0.220 NA
ATOM     14  C   LIG    1        9.851   1.350   5.780  0.00  0.00    +0.120 A 
ATOM     15  C   LIG    1        6.016   2.610   5.277  0.00  0.00    -0.020 A 
BRANCH  14  16
ATOM     16  C   LIG    1       10.695   0.238   5.211  0.00  0.00    +0.530 C 
ATOM     17  F   LIG    1       10.781   0.383   3.822  0.00  0.00    -0.180 F 
ATOM     18  F   LIG    1       10.109  -0.995   5.516  0.00  0.00    -0.180 F 
ENDBRANCH  14  16
ENDBRANCH   4   7
BRANCH   1  19
ATOM     19  C   LIG    1        3.788   0.299  -0.122  0.00  0.00    +0.320 C 
BRANCH  19  24
ATOM     20  C   LIG    1       -0.755   2.437  -0.679  0.00  0.00    +0.200 C 
ATOM     21  C   LIG    1        0.356   1.438  -0.482  0.00  0.00    +0.180 A 
ATOM     22  N   LIG    1        0.220   0.148  -0.336  0.00  0.00    -0.290 NA
ATOM     23  N   LIG    1        1.376  -0.396  -0.196  0.00  0.00    -0.270 NA
ATOM     24  C   LIG    1        2.303   0.522  -0.245  0.00  0.00    +0.180 A 
ATOM     25  N   LIG    1        1.682   1.712  -0.428  0.00  0.00    -0.580 N 
ATOM     26  H   LIG    1        2.101   2.583  -0.505  0.00  0.00    +0.430 HD
ENDBRANCH  19  24
ENDBRANCH   1  19
TORSDOF 4
