REMARK  Name = ZINCvU00000007YU.0
REMARK                            x       y       z     vdW  Elec       q    Type
REMARK                         _______ _______ _______ _____ _____    ______ ____
ROOT
ATOM      1  C   LIG    1       -4.030   4.495  -2.125  0.00  0.00    +0.540 C 
ATOM      2  N   LIG    1       -2.890   3.895  -1.730  0.00  0.00    -0.720 N 
ATOM      3  H   LIG    1       -2.294   3.505  -2.387  0.00  0.00    +0.400 HD
ATOM      4  O   LIG    1       -4.776   4.983  -1.303  0.00  0.00    -0.530 OA
ENDROOT
BRANCH   1   5
ATOM      5  C   LIG    1       -4.378   4.560  -3.590  0.00  0.00    -0.070 C 
BRANCH   5   7
ATOM      6  C   LIG    1       -3.166   6.736  -3.783  0.00  0.00    +0.020 C 
ATOM      7  C   LIG    1       -3.282   5.316  -4.342  0.00  0.00    +0.030 C 
ENDBRANCH   5   7
BRANCH   5   8
ATOM      8  C   LIG    1       -4.494   3.140  -4.150  0.00  0.00    +0.040 C 
ATOM      9  C   LIG    1       -5.591   2.383  -3.397  0.00  0.00    +0.030 C 
ENDBRANCH   5   8
BRANCH   5  10
ATOM     10  C   LIG    1       -5.713   5.287  -3.765  0.00  0.00    +0.180 C 
BRANCH  10  11
ATOM     11  C   LIG    1       -6.061   5.352  -5.230  0.00  0.00    +0.100 A 
ATOM     12  N   LIG    1       -6.736   4.459  -5.849  0.00  0.00    -0.460 NA
ATOM     13  C   LIG    1       -6.976   4.649  -7.161  0.00  0.00    +0.080 A 
ATOM     14  C   LIG    1       -7.686   3.841  -8.072  0.00  0.00    +0.070 A 
ATOM     15  C   LIG    1       -7.810   4.217  -9.375  0.00  0.00    +0.030 A 
ATOM     16  C   LIG    1       -7.243   5.399  -9.831  0.00  0.00    +0.040 A 
ATOM     17  C   LIG    1       -6.545   6.208  -8.962  0.00  0.00    +0.060 A 
ATOM     18  C   LIG    1       -6.408   5.840  -7.626  0.00  0.00    -0.190 A 
ATOM     19  S   LIG    1       -5.598   6.622  -6.272  0.00  0.00    +0.100 S 
ENDBRANCH  10  11
ENDBRANCH   5  10
ENDBRANCH   1   5
BRANCH   2  20
ATOM     20  C   LIG    1       -2.551   3.833  -0.305  0.00  0.00    +0.320 C 
BRANCH  20  21
ATOM     21  C   LIG    1       -1.237   3.116  -0.133  0.00  0.00    -0.090 A 
ATOM     22  C   LIG    1       -1.216   1.743   0.033  0.00  0.00    +0.020 A 
ATOM     23  C   LIG    1       -0.012   1.082   0.197  0.00  0.00    +0.030 A 
ATOM     24  C   LIG    1        1.174   1.790   0.184  0.00  0.00    +0.030 A 
ATOM     25  C   LIG    1        1.156   3.168   0.013  0.00  0.00    +0.150 A 
ATOM     26  C   LIG    1       -0.055   3.830  -0.146  0.00  0.00    +0.000 A 
BRANCH  25  27
ATOM     27  N   LIG    1        2.355   3.889  -0.001  0.00  0.00    -0.670 N 
ATOM     28  H   LIG    1        2.383   4.791   0.355  0.00  0.00    +0.410 HD
ATOM     29  C   LIG    1        3.472   3.329  -0.507  0.00  0.00    +0.540 C 
ATOM     30  O   LIG    1        3.417   2.240  -1.038  0.00  0.00    -0.520 OA
BRANCH  29  31
ATOM     31  C   LIG    1        4.788   4.057  -0.415  0.00  0.00    -0.070 C 
ATOM     32  C   LIG    1        5.401   4.577  -1.716  0.00  0.00    +0.060 C 
ATOM     33  C   LIG    1        6.019   3.369  -1.009  0.00  0.00    +0.080 C 
ENDBRANCH  29  31
ENDBRANCH  25  27
ENDBRANCH  20  21
ENDBRANCH   2  20
TORSDOF 9
