REMARK  Name = ZINCqH00000056Yl.0
REMARK                            x       y       z     vdW  Elec       q    Type
REMARK                         _______ _______ _______ _____ _____    ______ ____
ROOT
ATOM      1  C   LIG    1       -3.523   5.175  -3.646  0.00  0.00    +0.270 A 
ATOM      2  N   LIG    1       -4.029   4.027  -3.321  0.00  0.00    -0.480 NA
ATOM      3  C   LIG    1       -3.765   3.580  -2.107  0.00  0.00    +0.260 A 
ATOM      4  C   LIG    1       -3.008   4.394  -1.369  0.00  0.00    -0.240 A 
ATOM      5  S   LIG    1       -2.621   5.812  -2.340  0.00  0.00    +0.130 S 
ENDROOT
BRANCH   1   7
ATOM      6  C   LIG    1       -4.423   5.205  -5.838  0.00  0.00    +0.580 C 
ATOM      7  N   LIG    1       -3.689   5.798  -4.876  0.00  0.00    -0.620 N 
ATOM      8  H   LIG    1       -3.277   6.660  -5.043  0.00  0.00    +0.430 HD
ATOM      9  O   LIG    1       -4.940   4.124  -5.629  0.00  0.00    -0.470 OA
BRANCH   6  13
ATOM     10  C   LIG    1       -4.908   7.112  -9.553  0.00  0.00    +0.200 A 
ATOM     11  C   LIG    1       -5.520   5.874  -9.359  0.00  0.00    -0.030 A 
ATOM     12  C   LIG    1       -5.357   5.243  -8.140  0.00  0.00    +0.100 A 
ATOM     13  C   LIG    1       -4.600   5.867  -7.147  0.00  0.00    +0.000 A 
ATOM     14  N   LIG    1       -4.032   7.048  -7.368  0.00  0.00    -0.420 NA
ATOM     15  C   LIG    1       -4.162   7.672  -8.516  0.00  0.00    +0.190 A 
BRANCH  10  17
ATOM     16  C   LIG    1       -4.395   9.081 -10.959  0.00  0.00    +0.290 C 
ATOM     17  N   LIG    1       -5.041   7.780 -10.765  0.00  0.00    -0.620 N 
ATOM     18  C   LIG    1       -5.826   7.184 -11.849  0.00  0.00    +0.290 C 
ENDBRANCH  10  17
ENDBRANCH   6  13
ENDBRANCH   1   7
BRANCH   4  19
ATOM     19  C   LIG    1       -2.556   4.141   0.047  0.00  0.00    +0.190 C 
BRANCH  19  20
ATOM     20  C   LIG    1       -1.241   3.405   0.031  0.00  0.00    -0.060 A 
ATOM     21  C   LIG    1       -0.054   4.113   0.024  0.00  0.00    +0.050 A 
ATOM     22  C   LIG    1        1.153   3.441   0.009  0.00  0.00    +0.030 A 
ATOM     23  C   LIG    1        1.175   2.057   0.002  0.00  0.00    +0.070 A 
ATOM     24  C   LIG    1       -0.016   1.347   0.009  0.00  0.00    +0.070 A 
ATOM     25  F   LIG    1        0.002  -0.004   0.002  0.00  0.00    -0.130 F 
ATOM     26  F   LIG    1        2.355   1.399  -0.012  0.00  0.00    -0.130 F 
ATOM     27  C   LIG    1       -1.223   2.023   0.019  0.00  0.00    +0.030 A 
ENDBRANCH  19  20
ENDBRANCH   4  19
TORSDOF 5
