REMARK  Name = ZINCqH00000023e3.0
REMARK                            x       y       z     vdW  Elec       q    Type
REMARK                         _______ _______ _______ _____ _____    ______ ____
ROOT
ATOM      1  N   LIG    1        2.090   1.032  -1.319  0.00  0.00    -0.700 N 
ATOM      2  H   LIG    1        1.544   0.572  -1.976  0.00  0.00    +0.410 HD
ATOM      3  C   LIG    1        3.361   1.366  -1.615  0.00  0.00    +0.610 C 
ATOM      4  O   LIG    1        4.046   1.943  -0.790  0.00  0.00    -0.510 OA
ENDROOT
BRANCH   1   7
ATOM      5  C   LIG    1       -0.603   2.119  -1.259  0.00  0.00    +0.050 C 
ATOM      6  C   LIG    1       -0.018   1.496   0.010  0.00  0.00    -0.060 C 
ATOM      7  C   LIG    1        1.532   1.361  -0.005  0.00  0.00    +0.260 C 
ATOM      8  C   LIG    1        1.286   0.165   0.875  0.00  0.00    -0.060 C 
ATOM      9  C   LIG    1        2.043  -1.149   0.758  0.00  0.00    +0.030 C 
ATOM     10  C   LIG    1        1.113  -2.207   1.388  0.00  0.00    +0.000 C 
ATOM     11  C   LIG    1       -0.277  -2.193   0.762  0.00  0.00    +0.210 C 
ATOM     12  O   LIG    1       -0.853  -0.876   0.705  0.00  0.00    -0.360 OA
ATOM     13  C   LIG    1       -0.579   2.105   1.297  0.00  0.00    +0.070 C 
ATOM     14  C   LIG    1        0.002  -0.004   0.002  0.00  0.00    +0.120 C 
ENDBRANCH   1   7
BRANCH   3  15
ATOM     15  C   LIG    1        3.920   1.036  -2.930  0.00  0.00    -0.080 A 
ATOM     16  C   LIG    1        5.186   1.316  -3.357  0.00  0.00    -0.080 A 
ATOM     17  C   LIG    1        5.288   0.825  -4.668  0.00  0.00    -0.040 A 
ATOM     18  C   LIG    1        4.094   0.273  -4.980  0.00  0.00    +0.220 A 
ATOM     19  O   LIG    1        3.274   0.398  -3.928  0.00  0.00    -0.160 OA
BRANCH  16  20
ATOM     20  C   LIG    1        6.265   2.018  -2.574  0.00  0.00    +0.310 C 
BRANCH  20  21
ATOM     21  O   LIG    1        7.446   2.118  -3.373  0.00  0.00    -0.310 OA
BRANCH  21  22
ATOM     22  C   LIG    1        8.522   2.729  -2.811  0.00  0.00    +0.130 A 
ATOM     23  C   LIG    1        8.441   3.228  -1.519  0.00  0.00    -0.080 A 
ATOM     24  C   LIG    1        9.538   3.843  -0.947  0.00  0.00    +0.050 A 
ATOM     25  C   LIG    1       10.711   3.973  -1.666  0.00  0.00    -0.040 A 
ATOM     26  C   LIG    1       10.793   3.482  -2.956  0.00  0.00    +0.050 A 
ATOM     27  C   LIG    1        9.701   2.860  -3.530  0.00  0.00    -0.020 A 
ENDBRANCH  21  22
ENDBRANCH  20  21
ENDBRANCH  16  20
ENDBRANCH   3  15
TORSDOF 5
