REMARK  Name = ZINCpe00000gLUXO.0
REMARK                            x       y       z     vdW  Elec       q    Type
REMARK                         _______ _______ _______ _____ _____    ______ ____
ROOT
ATOM      1  C   LIG    1        0.030   1.704   1.236  0.00  0.00    +0.250 C 
ENDROOT
BRANCH   1   8
ATOM      2  C   LIG    1       -4.383  -2.570   1.773  0.00  0.00    +0.650 C 
ATOM      3  N   LIG    1       -3.237  -1.929   1.471  0.00  0.00    -0.600 N 
ATOM      4  C   LIG    1       -1.940  -2.601   1.629  0.00  0.00    +0.300 C 
ATOM      5  C   LIG    1       -1.050  -1.741   2.535  0.00  0.00    +0.290 C 
ATOM      6  N   LIG    1       -1.075  -0.357   2.042  0.00  0.00    -0.610 N 
ATOM      7  C   LIG    1       -2.372   0.317   1.889  0.00  0.00    +0.270 C 
ATOM      8  C   LIG    1        0.071   0.285   1.741  0.00  0.00    +0.520 C 
ATOM      9  O   LIG    1        1.136  -0.280   1.876  0.00  0.00    -0.510 OA
ATOM     10  C   LIG    1       -3.262  -0.544   0.977  0.00  0.00    +0.290 C 
ATOM     11  O   LIG    1       -4.350  -3.714   2.180  0.00  0.00    -0.570 OA
BRANCH   2  12
ATOM     12  O   LIG    1       -5.565  -1.943   1.623  0.00  0.00    -0.370 OA
BRANCH  12  14
ATOM     13  C   LIG    1       -7.995  -1.824   1.735  0.00  0.00    +0.070 C 
ATOM     14  C   LIG    1       -6.758  -2.694   1.968  0.00  0.00    +0.220 C 
ENDBRANCH  12  14
ENDBRANCH   2  12
ENDBRANCH   1   8
BRANCH   1  15
ATOM     15  O   LIG    1        1.383   2.168   0.985  0.00  0.00    -0.330 OA
BRANCH  15  16
ATOM     16  C   LIG    1        1.523   3.428   0.526  0.00  0.00    +0.530 C 
ATOM     17  O   LIG    1        0.540   4.119   0.340  0.00  0.00    -0.520 OA
BRANCH  16  18
ATOM     18  C   LIG    1        2.864   3.966   0.249  0.00  0.00    -0.230 A 
ATOM     19  C   LIG    1        3.987   3.137   0.342  0.00  0.00    +0.170 A 
ATOM     20  C   LIG    1        5.239   3.644   0.077  0.00  0.00    -0.080 A 
ATOM     21  C   LIG    1        5.396   4.979  -0.271  0.00  0.00    +0.190 A 
ATOM     22  C   LIG    1        4.295   5.812  -0.362  0.00  0.00    -0.110 A 
ATOM     23  F   LIG    1        6.630   5.467  -0.523  0.00  0.00    -0.130 F 
ATOM     24  C   LIG    1        3.025   5.316  -0.104  0.00  0.00    +0.310 A 
BRANCH  24  25
ATOM     25  N   LIG    1        1.919   6.150  -0.195  0.00  0.00    -0.850 N 
ATOM     26  H   LIG    1        1.960   6.953  -0.738  0.00  0.00    +0.400 HD
ATOM     27  H   LIG    1        1.104   5.929   0.284  0.00  0.00    +0.420 HD
ENDBRANCH  24  25
ENDBRANCH  16  18
ENDBRANCH  15  16
ENDBRANCH   1  15
TORSDOF 7
