REMARK  Name = ZINCqH000003273b.0
REMARK                            x       y       z     vdW  Elec       q    Type
REMARK                         _______ _______ _______ _____ _____    ______ ____
ROOT
ATOM      1  C   LIG    1        4.897   1.179  -0.000  0.00  0.00    +0.180 A 
ATOM      2  N   LIG    1        4.825  -0.118  -0.032  0.00  0.00    -0.360 NA
ATOM      3  O   LIG    1        5.938  -0.601  -0.005  0.00  0.00    +0.090 OA
ATOM      4  C   LIG    1        6.852   0.372   0.057  0.00  0.00    +0.180 A 
ATOM      5  N   LIG    1        6.199   1.509   0.061  0.00  0.00    -0.460 NA
ENDROOT
BRANCH   4   6
ATOM      6  C   LIG    1        8.348   0.195   0.112  0.00  0.00    +0.040 C 
ATOM      7  C   LIG    1        8.692  -1.299   0.100  0.00  0.00    +0.050 C 
ATOM      8  C   LIG    1       10.208  -1.451  -0.027  0.00  0.00    +0.280 C 
ATOM      9  N   LIG    1       10.888  -0.630   0.967  0.00  0.00    -0.720 N 
ATOM     10  H   LIG    1       11.810  -0.844   1.180  0.00  0.00    +0.400 HD
ATOM     11  C   LIG    1       10.322   0.397   1.603  0.00  0.00    +0.530 C 
ATOM     12  O   LIG    1       11.000   1.033   2.382  0.00  0.00    -0.550 OA
ATOM     13  C   LIG    1        8.992   0.882  -1.093  0.00  0.00    +0.080 C 
ATOM     14  C   LIG    1        8.891   0.807   1.406  0.00  0.00    +0.110 C 
ENDBRANCH   4   6
BRANCH   1  16
ATOM     15  C   LIG    1        3.934   3.157  -1.144  0.00  0.00    +0.060 C 
ATOM     16  C   LIG    1        3.734   2.137  -0.021  0.00  0.00    +0.070 C 
ATOM     17  C   LIG    1        3.649   2.866   1.321  0.00  0.00    +0.070 C 
BRANCH  16  18
ATOM     18  C   LIG    1        2.457   1.372  -0.259  0.00  0.00    -0.070 A 
ATOM     19  C   LIG    1        1.434   1.454   0.634  0.00  0.00    +0.020 A 
ATOM     20  C   LIG    1        0.246   0.755   0.432  0.00  0.00    +0.010 A 
ATOM     21  C   LIG    1        0.074  -0.032  -0.666  0.00  0.00    +0.030 A 
ATOM     22  C   LIG    1        1.109  -0.142  -1.611  0.00  0.00    -0.050 A 
ATOM     23  C   LIG    1        0.971  -0.948  -2.753  0.00  0.00    +0.030 A 
ATOM     24  C   LIG    1        1.993  -1.028  -3.649  0.00  0.00    +0.000 A 
ATOM     25  C   LIG    1        3.180  -0.328  -3.446  0.00  0.00    +0.010 A 
ATOM     26  C   LIG    1        3.352   0.459  -2.349  0.00  0.00    +0.010 A 
ATOM     27  C   LIG    1        2.317   0.570  -1.405  0.00  0.00    -0.030 A 
ENDBRANCH  16  18
ENDBRANCH   1  16
TORSDOF 3
