REMARK  Name = ZINCvU0000000IqI.0
REMARK                            x       y       z     vdW  Elec       q    Type
REMARK                         _______ _______ _______ _____ _____    ______ ____
ROOT
ATOM      1  N   LIG    1       -3.652  -1.974   2.686  0.00  0.00    -0.510 N 
ATOM      2  C   LIG    1       -3.065  -1.684   1.508  0.00  0.00    +0.500 C 
ATOM      3  O   LIG    1       -3.620  -1.969   0.467  0.00  0.00    -0.470 OA
ENDROOT
BRANCH   1   4
ATOM      4  C   LIG    1       -4.892  -2.600   2.709  0.00  0.00    +0.280 A 
ATOM      5  N   LIG    1       -5.547  -2.926   3.779  0.00  0.00    -0.500 NA
ATOM      6  C   LIG    1       -6.721  -3.519   3.610  0.00  0.00    +0.130 A 
ATOM      7  C   LIG    1       -7.090  -3.711   2.331  0.00  0.00    -0.120 A 
ATOM      8  S   LIG    1       -5.823  -3.068   1.289  0.00  0.00    +0.200 S 
BRANCH   6   9
ATOM      9  C   LIG    1       -7.568  -3.941   4.752  0.00  0.00    -0.020 A 
ATOM     10  C   LIG    1       -8.797  -4.556   4.521  0.00  0.00    +0.020 A 
ATOM     11  C   LIG    1       -9.578  -4.952   5.588  0.00  0.00    +0.010 A 
ATOM     12  C   LIG    1       -9.149  -4.729   6.883  0.00  0.00    +0.010 A 
ATOM     13  C   LIG    1       -7.932  -4.115   7.119  0.00  0.00    +0.000 A 
ATOM     14  C   LIG    1       -7.140  -3.720   6.060  0.00  0.00    +0.040 A 
ENDBRANCH   6   9
ENDBRANCH   1   4
BRANCH   1  15
ATOM     15  C   LIG    1       -2.981  -1.630   3.942  0.00  0.00    +0.340 C 
BRANCH  15  17
ATOM     16  C   LIG    1       -3.904  -0.048   5.557  0.00  0.00    +0.050 C 
ATOM     17  C   LIG    1       -3.392  -0.244   4.367  0.00  0.00    -0.080 C 
ENDBRANCH  15  17
ENDBRANCH   1  15
BRANCH   2  18
ATOM     18  C   LIG    1       -1.720  -1.005   1.482  0.00  0.00    +0.090 C 
BRANCH  18  19
ATOM     19  C   LIG    1       -1.284  -0.792   0.032  0.00  0.00    +0.320 C 
ATOM     20  C   LIG    1        0.002  -0.004   0.002  0.00  0.00    -0.100 A 
ATOM     21  C   LIG    1       -0.017   1.373   0.010  0.00  0.00    +0.030 A 
ATOM     22  C   LIG    1        1.174   2.080   0.002  0.00  0.00    +0.010 A 
ATOM     23  C   LIG    1        2.385   1.412  -0.007  0.00  0.00    +0.020 A 
ATOM     24  C   LIG    1        2.417   0.032  -0.016  0.00  0.00    +0.020 A 
ATOM     25  C   LIG    1        1.222  -0.686  -0.018  0.00  0.00    -0.030 A 
ATOM     26  C   LIG    1        1.227  -2.161  -0.054  0.00  0.00    -0.030 C 
ATOM     27  C   LIG    1        0.092  -2.812  -0.333  0.00  0.00    +0.240 C 
ATOM     28  N   LIG    1       -1.063  -2.092  -0.611  0.00  0.00    -0.560 N 
ATOM     29  C   LIG    1       -1.977  -2.587  -1.468  0.00  0.00    +0.510 C 
ATOM     30  O   LIG    1       -2.985  -1.956  -1.710  0.00  0.00    -0.480 OA
ATOM     31  C   LIG    1       -1.748  -3.922  -2.127  0.00  0.00    +0.100 C 
ENDBRANCH  18  19
ENDBRANCH   2  18
TORSDOF 6
