REMARK  Name = ZINCvU0000000ADE.0
REMARK                            x       y       z     vdW  Elec       q    Type
REMARK                         _______ _______ _______ _____ _____    ______ ____
ROOT
ATOM      1  C   LIG    1        4.018  -1.341  -0.043  0.00  0.00    +0.030 C 
ENDROOT
BRANCH   1   2
ATOM      2  C   LIG    1        3.488  -1.914   1.247  0.00  0.00    -0.090 A 
ATOM      3  C   LIG    1        4.042  -1.528   2.453  0.00  0.00    +0.030 A 
ATOM      4  C   LIG    1        3.554  -2.051   3.636  0.00  0.00    +0.010 A 
ATOM      5  C   LIG    1        2.517  -2.964   3.612  0.00  0.00    +0.010 A 
ATOM      6  C   LIG    1        1.966  -3.353   2.406  0.00  0.00    +0.010 A 
ATOM      7  C   LIG    1        2.452  -2.828   1.223  0.00  0.00    +0.060 A 
ENDBRANCH   1   2
BRANCH   1   9
ATOM      8  O   LIG    1        6.325  -0.891   0.180  0.00  0.00    -0.450 OA
ATOM      9  C   LIG    1        5.479  -1.683  -0.181  0.00  0.00    +0.460 C 
BRANCH   9  10
ATOM     10  C   LIG    1        5.865  -2.930  -0.734  0.00  0.00    -0.270 A 
ATOM     11  C   LIG    1        5.030  -3.931  -1.183  0.00  0.00    +0.340 A 
ATOM     12  N   LIG    1        5.766  -4.961  -1.643  0.00  0.00    -0.560 N 
ATOM     13  H   LIG    1        5.398  -5.780  -2.011  0.00  0.00    +0.420 HD
ATOM     14  C   LIG    1        7.114  -4.696  -1.511  0.00  0.00    +0.070 A 
ATOM     15  C   LIG    1        8.259  -5.420  -1.824  0.00  0.00    +0.000 A 
ATOM     16  C   LIG    1        9.503  -4.884  -1.571  0.00  0.00    +0.030 A 
ATOM     17  C   LIG    1        9.628  -3.623  -1.007  0.00  0.00    +0.000 A 
ATOM     18  C   LIG    1        8.504  -2.889  -0.691  0.00  0.00    +0.060 A 
ATOM     19  C   LIG    1        7.242  -3.420  -0.940  0.00  0.00    -0.050 A 
ENDBRANCH   9  10
ENDBRANCH   1   9
BRANCH   1  20
ATOM     20  S   LIG    1        3.818   0.458  -0.031  0.00  0.00    +0.110 S 
BRANCH  20  21
ATOM     21  C   LIG    1        2.060   0.570  -0.015  0.00  0.00    +0.210 A 
ATOM     22  N   LIG    1        1.212  -0.435  -0.012  0.00  0.00    -0.320 NA
ATOM     23  N   LIG    1        0.002  -0.004   0.002  0.00  0.00    -0.020 NA
ATOM     24  N   LIG    1       -0.015   1.285   0.009  0.00  0.00    -0.070 NA
ATOM     25  N   LIG    1        1.324   1.711  -0.001  0.00  0.00    -0.320 N 
BRANCH  25  26
ATOM     26  C   LIG    1        1.799   3.030   0.001  0.00  0.00    +0.130 A 
ATOM     27  C   LIG    1        2.964   3.349   0.685  0.00  0.00    +0.050 A 
ATOM     28  C   LIG    1        3.433   4.648   0.682  0.00  0.00    +0.070 A 
ATOM     29  C   LIG    1        2.735   5.634   0.006  0.00  0.00    -0.020 A 
ATOM     30  C   LIG    1        1.570   5.320  -0.672  0.00  0.00    +0.060 A 
ATOM     31 CL   LIG    1        3.322   7.268   0.010  0.00  0.00    -0.050 Cl
ATOM     32  C   LIG    1        1.101   4.021  -0.676  0.00  0.00    +0.070 A 
ENDBRANCH  25  26
ENDBRANCH  20  21
ENDBRANCH   1  20
TORSDOF 6
