REMARK  Name = ZINCqH0000007EZw.0
REMARK                            x       y       z     vdW  Elec       q    Type
REMARK                         _______ _______ _______ _____ _____    ______ ____
ROOT
ATOM      1  C   LIG    1       -2.143   1.058   1.278  0.00  0.00    +0.510 C 
ATOM      2  N   LIG    1       -2.372  -0.267   1.374  0.00  0.00    -0.520 N 
ATOM      3  H   LIG    1       -1.626  -0.885   1.437  0.00  0.00    +0.420 HD
ATOM      4  O   LIG    1       -3.075   1.830   1.199  0.00  0.00    -0.510 OA
ENDROOT
BRANCH   1   5
ATOM      5  C   LIG    1       -0.729   1.579   1.267  0.00  0.00    +0.190 C 
ATOM      6  C   LIG    1       -0.013   1.086   0.008  0.00  0.00    +0.060 C 
BRANCH   5   7
ATOM      7  O   LIG    1       -0.748   3.008   1.275  0.00  0.00    -0.350 OA
BRANCH   7   8
ATOM      8  C   LIG    1        0.381   3.601   1.920  0.00  0.00    +0.230 C 
BRANCH   8  13
ATOM      9  C   LIG    1       -0.502   7.158   2.841  0.00  0.00    +0.120 A 
ATOM     10  C   LIG    1        0.032   7.859   1.771  0.00  0.00    -0.070 A 
ATOM     11  C   LIG    1        0.677   7.181   0.754  0.00  0.00    +0.050 A 
ATOM     12  C   LIG    1        0.794   5.804   0.806  0.00  0.00    +0.000 A 
ATOM     13  C   LIG    1        0.257   5.102   1.870  0.00  0.00    -0.050 A 
ATOM     14  C   LIG    1       -0.389   5.776   2.888  0.00  0.00    +0.000 A 
BRANCH   9  16
ATOM     15  C   LIG    1       -1.216   9.245   3.728  0.00  0.00    +0.250 C 
ATOM     16  O   LIG    1       -1.136   7.823   3.843  0.00  0.00    -0.320 OA
ENDBRANCH   9  16
ENDBRANCH   8  13
ENDBRANCH   7   8
ENDBRANCH   5   7
ENDBRANCH   1   5
BRANCH   2  17
ATOM     17  N   LIG    1       -3.686  -0.752   1.384  0.00  0.00    -0.530 N 
ATOM     18  H   LIG    1       -4.431  -0.134   1.321  0.00  0.00    +0.440 HD
BRANCH  17  19
ATOM     19  C   LIG    1       -3.923  -2.125   1.485  0.00  0.00    +0.270 A 
ATOM     20  C   LIG    1       -2.857  -3.010   1.575  0.00  0.00    -0.070 A 
ATOM     21  C   LIG    1       -3.095  -4.367   1.674  0.00  0.00    +0.110 A 
ATOM     22  C   LIG    1       -4.393  -4.844   1.683  0.00  0.00    -0.040 A 
ATOM     23  C   LIG    1       -5.457  -3.965   1.594  0.00  0.00    +0.120 A 
ATOM     24  C   LIG    1       -5.226  -2.607   1.500  0.00  0.00    -0.260 A 
BRANCH  24  25
ATOM     25  C   LIG    1       -6.386  -1.649   1.409  0.00  0.00    +0.510 C 
ATOM     26  F   LIG    1       -6.306  -0.932   0.210  0.00  0.00    -0.180 F 
ATOM     27  F   LIG    1       -6.342  -0.760   2.488  0.00  0.00    -0.180 F 
ATOM     28  F   LIG    1       -7.587  -2.366   1.444  0.00  0.00    -0.170 F 
ENDBRANCH  24  25
ENDBRANCH  17  19
ENDBRANCH   2  17
TORSDOF 8
