REMARK  Name = ZINCrg000009DFaY.0
REMARK                            x       y       z     vdW  Elec       q    Type
REMARK                         _______ _______ _______ _____ _____    ______ ____
ROOT
ATOM      1  N   LIG    1       -1.186   1.871   0.037  0.00  0.00    -0.520 N 
ATOM      2  H   LIG    1       -1.200   2.841   0.042  0.00  0.00    +0.430 HD
ATOM      3  C   LIG    1       -0.010   1.213   0.034  0.00  0.00    +0.600 C 
ATOM      4  O   LIG    1        0.007  -0.003   0.028  0.00  0.00    -0.540 OA
ENDROOT
BRANCH   3   5
ATOM      5  C   LIG    1        1.257   1.968   0.030  0.00  0.00    -0.280 A 
ATOM      6  C   LIG    1        2.530   1.433   0.021  0.00  0.00    +0.340 A 
ATOM      7  N   LIG    1        3.397   2.462   0.021  0.00  0.00    -0.300 N 
ATOM      8  N   LIG    1        2.669   3.656   0.030  0.00  0.00    -0.280 NA
ATOM      9  C   LIG    1        1.395   3.375   0.030  0.00  0.00    +0.290 A 
BRANCH   7  10
ATOM     10  C   LIG    1        4.795   2.354   0.013  0.00  0.00    +0.140 A 
ATOM     11  C   LIG    1        5.396   1.103   0.009  0.00  0.00    +0.000 A 
ATOM     12  C   LIG    1        6.774   1.000  -0.004  0.00  0.00    +0.050 A 
ATOM     13  C   LIG    1        7.553   2.142  -0.004  0.00  0.00    +0.010 A 
ATOM     14  C   LIG    1        6.957   3.390   0.005  0.00  0.00    +0.040 A 
ATOM     15  C   LIG    1        5.580   3.499   0.013  0.00  0.00    +0.030 A 
ENDBRANCH   7  10
ENDBRANCH   3   5
BRANCH   1  17
ATOM     16  C   LIG    1       -3.566   1.811   0.038  0.00  0.00    +0.520 C 
ATOM     17  N   LIG    1       -2.389   1.153   0.035  0.00  0.00    -0.520 N 
ATOM     18  H   LIG    1       -2.376   0.184   0.030  0.00  0.00    +0.430 HD
ATOM     19  O   LIG    1       -3.583   3.024   0.044  0.00  0.00    -0.530 OA
BRANCH  16  25
ATOM     20  C   LIG    1       -6.357  -1.829   1.448  0.00  0.00    +0.550 C 
ATOM     21  N   LIG    1       -6.250  -0.490   1.332  0.00  0.00    -0.610 N 
ATOM     22  C   LIG    1       -7.452   0.352   1.252  0.00  0.00    +0.260 C 
ATOM     23  C   LIG    1       -7.353   1.235   0.004  0.00  0.00    +0.020 C 
ATOM     24  C   LIG    1       -6.038   2.017   0.041  0.00  0.00    +0.060 C 
ATOM     25  C   LIG    1       -4.860   1.039   0.035  0.00  0.00    +0.000 C 
ATOM     26  C   LIG    1       -4.931   0.154   1.284  0.00  0.00    +0.300 C 
ATOM     27  O   LIG    1       -5.359  -2.523   1.417  0.00  0.00    -0.540 OA
BRANCH  20  29
ATOM     28  C   LIG    1       -7.778  -3.759   1.825  0.00  0.00    +0.150 C 
ATOM     29  C   LIG    1       -7.680  -2.450   1.611  0.00  0.00    -0.090 C 
ENDBRANCH  20  29
ENDBRANCH  16  25
ENDBRANCH   1  17
TORSDOF 5
