REMARK  Name = ZINCpk000004ANP5.0
REMARK                            x       y       z     vdW  Elec       q    Type
REMARK                         _______ _______ _______ _____ _____    ______ ____
ROOT
ATOM      1  C   LIG    1        3.412  -0.928   7.194  0.00  0.00    +0.550 C 
ATOM      2  N   LIG    1        2.973  -0.060   6.262  0.00  0.00    -0.610 N 
ATOM      3  C   LIG    1        2.612   1.316   6.631  0.00  0.00    +0.270 C 
ATOM      4  C   LIG    1        3.387   2.287   5.736  0.00  0.00    +0.040 C 
ATOM      5  C   LIG    1        3.125   1.940   4.268  0.00  0.00    -0.020 C 
ATOM      6  C   LIG    1        3.618   0.520   3.981  0.00  0.00    +0.060 C 
ATOM      7  C   LIG    1        2.845  -0.471   4.857  0.00  0.00    +0.280 C 
ATOM      8  O   LIG    1        3.616  -0.548   8.331  0.00  0.00    -0.550 OA
ENDROOT
BRANCH   5   9
ATOM      9  C   LIG    1        3.860   2.915   3.384  0.00  0.00    -0.090 A 
ATOM     10  C   LIG    1        4.703   3.856   3.943  0.00  0.00    +0.020 A 
ATOM     11  C   LIG    1        5.381   4.746   3.131  0.00  0.00    +0.010 A 
ATOM     12  C   LIG    1        5.207   4.702   1.761  0.00  0.00    +0.010 A 
ATOM     13  C   LIG    1        4.360   3.764   1.202  0.00  0.00    +0.020 A 
ATOM     14  C   LIG    1        3.686   2.870   2.013  0.00  0.00    +0.010 A 
ENDBRANCH   5   9
BRANCH   5  15
ATOM     15  C   LIG    1        1.647   2.025   3.989  0.00  0.00    +0.530 C 
ATOM     16  N   LIG    1        0.963   3.141   4.310  0.00  0.00    -0.630 N 
ATOM     17  H   LIG    1        1.405   3.860   4.788  0.00  0.00    +0.410 HD
ATOM     18  O   LIG    1        1.072   1.089   3.475  0.00  0.00    -0.460 OA
BRANCH  16  19
ATOM     19  C   LIG    1       -0.376   3.263   3.956  0.00  0.00    +0.400 A 
ATOM     20  N   LIG    1       -1.095   2.375   3.312  0.00  0.00    -0.270 NA
ATOM     21  N   LIG    1       -2.292   2.816   3.153  0.00  0.00    -0.280 NA
ATOM     22  C   LIG    1       -2.406   3.999   3.688  0.00  0.00    +0.390 A 
ATOM     23  N   LIG    1       -1.189   4.327   4.213  0.00  0.00    -0.500 N 
ATOM     24  C   LIG    1       -0.832   5.564   4.912  0.00  0.00    +0.330 C 
ENDBRANCH  16  19
ENDBRANCH   5  15
BRANCH   1  26
ATOM     25  C   LIG    1        3.991  -3.212   7.775  0.00  0.00    +0.140 C 
ATOM     26  C   LIG    1        3.646  -2.336   6.836  0.00  0.00    -0.090 C 
ENDBRANCH   1  26
TORSDOF 4
