REMARK  Name = ZINCqH0000038Zms.2
REMARK                            x       y       z     vdW  Elec       q    Type
REMARK                         _______ _______ _______ _____ _____    ______ ____
ROOT
ATOM      1  C   LIG    1       -1.405   2.733  -2.868  0.00  0.00    +0.210 A 
ATOM      2  N   LIG    1       -2.103   1.630  -2.798  0.00  0.00    -0.370 NA
ATOM      3  O   LIG    1       -1.735   0.962  -1.855  0.00  0.00    +0.090 OA
ATOM      4  C   LIG    1       -0.742   1.585  -1.213  0.00  0.00    +0.150 A 
ATOM      5  N   LIG    1       -0.525   2.714  -1.841  0.00  0.00    -0.460 NA
ENDROOT
BRANCH   1  10
ATOM      6  C   LIG    1       -2.649   4.698  -5.822  0.00  0.00    -0.180 A 
ATOM      7  C   LIG    1       -1.834   5.814  -5.767  0.00  0.00    +0.090 A 
ATOM      8  C   LIG    1       -0.880   5.931  -4.773  0.00  0.00    +0.030 A 
ATOM      9  C   LIG    1       -0.739   4.937  -3.826  0.00  0.00    +0.110 A 
ATOM     10  C   LIG    1       -1.554   3.808  -3.880  0.00  0.00    -0.020 A 
ATOM     11  C   LIG    1       -2.514   3.695  -4.883  0.00  0.00    +0.100 A 
BRANCH   6  13
ATOM     12  F   LIG    1       -4.888   5.144  -6.471  0.00  0.00    -0.170 F 
ATOM     13  C   LIG    1       -3.687   4.577  -6.908  0.00  0.00    +0.510 C 
ATOM     14  F   LIG    1       -3.892   3.226  -7.209  0.00  0.00    -0.170 F 
ATOM     15  F   LIG    1       -3.244   5.247  -8.053  0.00  0.00    -0.170 F 
ENDBRANCH   6  13
ENDBRANCH   1  10
BRANCH   4  16
ATOM     16  C   LIG    1       -0.013   1.086   0.008  0.00  0.00    +0.380 C 
BRANCH  16  17
ATOM     17  N   LIG    1       -0.700   1.560   1.217  0.00  0.00    -0.490 NA
ATOM     18  C   LIG    1       -2.005   0.883   1.384  0.00  0.00    +0.170 C 
ATOM     19  C   LIG    1       -2.969   1.909   2.012  0.00  0.00    +0.030 C 
ATOM     20  C   LIG    1       -2.143   3.200   2.145  0.00  0.00    -0.100 C 
ATOM     21  C   LIG    1       -1.575   3.331   3.553  0.00  0.00    +0.040 C 
ATOM     22  C   LIG    1       -0.795   4.646   3.659  0.00  0.00    -0.010 C 
ATOM     23  C   LIG    1       -1.715   5.806   3.268  0.00  0.00    +0.200 C 
ATOM     24  O   LIG    1       -2.203   5.603   1.940  0.00  0.00    -0.380 OA
ATOM     25  C   LIG    1       -2.985   4.416   1.782  0.00  0.00    +0.220 C 
ATOM     26  C   LIG    1       -1.004   3.012   1.122  0.00  0.00    +0.200 C 
ENDBRANCH  16  17
ENDBRANCH   4  16
TORSDOF 4
