REMARK  Name = ZINCrD000000D9Ya.0
REMARK                            x       y       z     vdW  Elec       q    Type
REMARK                         _______ _______ _______ _____ _____    ______ ____
ROOT
ATOM      1  C   LIG    1       -1.237   3.133   0.031  0.00  0.00    -0.120 A 
ATOM      2  C   LIG    1       -1.218   1.751   0.017  0.00  0.00    +0.200 A 
ATOM      3  C   LIG    1       -0.013   1.076   0.008  0.00  0.00    -0.040 A 
ATOM      4  C   LIG    1        1.180   1.787   0.000  0.00  0.00    +0.350 A 
ATOM      5  C   LIG    1        1.157   3.176   0.008  0.00  0.00    -0.760 A 
ATOM      6  C   LIG    1       -0.051   3.845   0.023  0.00  0.00    +0.270 A 
ENDROOT
BRANCH   1   8
ATOM      7  O   LIG    1       -2.549   5.071   0.054  0.00  0.00    -0.160 OA
ATOM      8  N   LIG    1       -2.530   3.853   0.047  0.00  0.00    +0.040 N 
ATOM      9  O   LIG    1       -3.575   3.228   0.054  0.00  0.00    -0.160 OA
ENDBRANCH   1   8
BRANCH   5  10
ATOM     10  S   LIG    1        2.667   4.084  -0.001  0.00  0.00    +2.710 S 
ATOM     11  O   LIG    1        2.309   5.459   0.045  0.00  0.00    -0.940 OA
ATOM     12  O   LIG    1        3.466   3.523  -1.033  0.00  0.00    -0.950 OA
BRANCH  10  13
ATOM     13  N   LIG    1        3.445   3.756   1.424  0.00  0.00    -1.010 NA
ATOM     14  C   LIG    1        3.299   4.515   2.674  0.00  0.00    +0.270 C 
ATOM     15  C   LIG    1        4.228   3.862   3.719  0.00  0.00    +0.040 C 
ATOM     16  C   LIG    1        5.274   3.127   2.838  0.00  0.00    +0.040 C 
ATOM     17  C   LIG    1        4.403   2.658   1.647  0.00  0.00    +0.260 C 
ENDBRANCH  10  13
ENDBRANCH   5  10
BRANCH   4  18
ATOM     18  N   LIG    1        2.400   1.108  -0.015  0.00  0.00    -0.690 N 
ATOM     19  H   LIG    1        3.233   1.606  -0.020  0.00  0.00    +0.410 HD
BRANCH  18  20
ATOM     20  C   LIG    1        2.423  -0.357  -0.022  0.00  0.00    +0.220 C 
ATOM     21  C   LIG    1        3.423  -1.053   0.903  0.00  0.00    +0.050 C 
ATOM     22  C   LIG    1        3.659  -1.041  -0.609  0.00  0.00    +0.010 C 
BRANCH  22  23
ATOM     23  C   LIG    1        3.451  -2.333  -1.355  0.00  0.00    -0.060 A 
ATOM     24  C   LIG    1        2.897  -3.423  -0.710  0.00  0.00    +0.000 A 
ATOM     25  C   LIG    1        2.702  -4.607  -1.396  0.00  0.00    +0.000 A 
ATOM     26  C   LIG    1        3.069  -4.705  -2.725  0.00  0.00    +0.000 A 
ATOM     27  C   LIG    1        3.627  -3.616  -3.369  0.00  0.00    +0.010 A 
ATOM     28  C   LIG    1        3.818  -2.431  -2.685  0.00  0.00    +0.010 A 
ENDBRANCH  22  23
ENDBRANCH  18  20
ENDBRANCH   4  18
TORSDOF 6
