REMARK  Name = ZINCpe000000WkKO.0
REMARK                            x       y       z     vdW  Elec       q    Type
REMARK                         _______ _______ _______ _____ _____    ______ ____
ROOT
ATOM      1  C   LIG    1       -1.187   1.624   0.017  0.00  0.00    +0.570 C 
ATOM      2  N   LIG    1       -0.011   0.966   0.007  0.00  0.00    -0.720 N 
ATOM      3  H   LIG    1        0.002  -0.004   0.002  0.00  0.00    +0.410 HD
ATOM      4  O   LIG    1       -1.204   2.839   0.023  0.00  0.00    -0.520 OA
ENDROOT
BRANCH   1   9
ATOM      5  C   LIG    1       -3.633  -1.233   0.012  0.00  0.00    +0.160 A 
ATOM      6  C   LIG    1       -4.843  -0.554   0.022  0.00  0.00    -0.130 A 
ATOM      7  C   LIG    1       -4.864   0.834   0.030  0.00  0.00    +0.160 A 
ATOM      8  C   LIG    1       -3.676   1.546   0.028  0.00  0.00    +0.020 A 
ATOM      9  C   LIG    1       -2.458   0.867   0.018  0.00  0.00    -0.060 A 
ATOM     10  C   LIG    1       -2.441  -0.528   0.005  0.00  0.00    -0.020 A 
BRANCH   5  12
ATOM     11  C   LIG    1       -4.884  -3.255   0.007  0.00  0.00    +0.250 C 
ATOM     12  O   LIG    1       -3.618  -2.592   0.005  0.00  0.00    -0.310 OA
ENDBRANCH   5  12
BRANCH   7  13
ATOM     13  O   LIG    1       -6.052   1.494   0.039  0.00  0.00    -0.310 OA
ATOM     14  C   LIG    1       -7.238   0.697   0.040  0.00  0.00    +0.250 C 
ENDBRANCH   7  13
ENDBRANCH   1   9
BRANCH   2  15
ATOM     15  C   LIG    1        1.248   1.716  -0.001  0.00  0.00    +0.370 C 
BRANCH  15  16
ATOM     16  C   LIG    1        2.406   0.752  -0.017  0.00  0.00    +0.460 C 
ATOM     17  O   LIG    1        2.201  -0.439  -0.021  0.00  0.00    -0.500 OA
BRANCH  16  18
ATOM     18  O   LIG    1        3.665   1.216  -0.026  0.00  0.00    -0.320 OA
BRANCH  18  19
ATOM     19  C   LIG    1        4.731   0.231  -0.042  0.00  0.00    +0.250 C 
BRANCH  19  20
ATOM     20  C   LIG    1        6.065   0.933  -0.051  0.00  0.00    +0.520 C 
ATOM     21  N   LIG    1        7.205   0.215  -0.066  0.00  0.00    -0.720 N 
ATOM     22  H   LIG    1        7.167  -0.754  -0.070  0.00  0.00    +0.400 HD
ATOM     23  O   LIG    1        6.112   2.145  -0.045  0.00  0.00    -0.510 OA
BRANCH  21  24
ATOM     24  C   LIG    1        8.501   0.897  -0.074  0.00  0.00    +0.170 C 
ATOM     25  C   LIG    1        8.604   1.780  -1.320  0.00  0.00    +0.040 C 
ATOM     26  C   LIG    1        9.624  -0.141  -0.091  0.00  0.00    +0.040 C 
ATOM     27  C   LIG    1        8.628   1.767   1.179  0.00  0.00    +0.040 C 
ENDBRANCH  21  24
ENDBRANCH  19  20
ENDBRANCH  18  19
ENDBRANCH  16  18
ENDBRANCH  15  16
ENDBRANCH   2  15
TORSDOF 9
