REMARK  Name = ZINCpe000000Yjs7.0
REMARK                            x       y       z     vdW  Elec       q    Type
REMARK                         _______ _______ _______ _____ _____    ______ ____
ROOT
ATOM      1  C   LIG    1       -0.328  -2.184  -0.006  0.00  0.00    +0.560 A 
ATOM      2  N   LIG    1        0.973  -1.976  -0.018  0.00  0.00    -0.530 NA
ATOM      3  C   LIG    1        1.225  -0.666  -0.013  0.00  0.00    +0.360 A 
ATOM      4  C   LIG    1        0.002  -0.004   0.002  0.00  0.00    -0.180 A 
ATOM      5  C   LIG    1       -0.017   1.402   0.010  0.00  0.00    +0.600 A 
ATOM      6  N   LIG    1        1.150   2.078   0.002  0.00  0.00    -0.650 N 
ATOM      7  H   LIG    1        1.141   3.048   0.007  0.00  0.00    +0.440 HD
ATOM      8  C   LIG    1        2.327   1.428  -0.013  0.00  0.00    +0.710 A 
ATOM      9  O   LIG    1        3.359   2.070  -0.019  0.00  0.00    -0.540 OA
ATOM     10  O   LIG    1       -1.077   2.003   0.018  0.00  0.00    -0.530 OA
ATOM     11  N   LIG    1        2.390   0.083  -0.021  0.00  0.00    -0.510 N 
ATOM     12  C   LIG    1        3.692  -0.588  -0.037  0.00  0.00    +0.340 C 
ATOM     13  N   LIG    1       -0.976  -0.989   0.006  0.00  0.00    -0.450 N 
ATOM     14  C   LIG    1       -2.426  -0.781   0.021  0.00  0.00    +0.340 C 
ENDROOT
BRANCH   1  15
ATOM     15  N   LIG    1       -0.937  -3.418  -0.008  0.00  0.00    -0.690 N 
ATOM     16  H   LIG    1       -1.905  -3.482   0.002  0.00  0.00    +0.410 HD
BRANCH  15  17
ATOM     17  C   LIG    1       -0.122  -4.636  -0.023  0.00  0.00    +0.360 C 
BRANCH  17  21
ATOM     18  C   LIG    1       -1.353  -8.731   2.592  0.00  0.00    +0.360 C 
ATOM     19  N   LIG    1       -1.437  -7.557   1.719  0.00  0.00    -0.370 N 
ATOM     20  C   LIG    1       -0.420  -6.728   1.405  0.00  0.00    +0.260 A 
ATOM     21  C   LIG    1       -0.908  -5.773   0.579  0.00  0.00    -0.250 A 
ATOM     22  C   LIG    1       -2.270  -6.025   0.387  0.00  0.00    +0.230 A 
ATOM     23  N   LIG    1       -2.587  -7.097   1.065  0.00  0.00    -0.290 NA
ENDBRANCH  17  21
BRANCH  17  24
ATOM     24  C   LIG    1        0.251  -4.982  -1.466  0.00  0.00    -0.070 C 
ATOM     25  C   LIG    1       -1.023  -5.210  -2.282  0.00  0.00    +0.020 C 
ATOM     26  C   LIG    1        1.102  -6.254  -1.482  0.00  0.00    +0.040 C 
ATOM     27  C   LIG    1        1.048  -3.828  -2.077  0.00  0.00    +0.040 C 
ENDBRANCH  17  24
ENDBRANCH  15  17
ENDBRANCH   1  15
TORSDOF 4
