REMARK  Name = ZINCc70000006cP5.0
REMARK                            x       y       z     vdW  Elec       q    Type
REMARK                         _______ _______ _______ _____ _____    ______ ____
ROOT
ATOM      1  C   LIG    1       -0.013   1.086   0.008  0.00  0.00    +0.240 C 
ENDROOT
BRANCH   1   2
ATOM      2  C   LIG    1        1.423   1.615  -0.003  0.00  0.00    -0.030 C 
ATOM      3  C   LIG    1        2.370   0.808  -0.906  0.00  0.00    +0.050 C 
ATOM      4  C   LIG    1        3.432   0.975   0.196  0.00  0.00    +0.260 C 
ATOM      5  F   LIG    1        4.203  -0.172   0.414  0.00  0.00    -0.190 F 
ATOM      6  F   LIG    1        4.207   2.131   0.055  0.00  0.00    -0.180 F 
ATOM      7  C   LIG    1        2.267   1.131   1.188  0.00  0.00    +0.070 C 
ENDBRANCH   1   2
BRANCH   1  11
ATOM      8  C   LIG    1       -1.058   1.676  -3.627  0.00  0.00    +0.280 C 
ATOM      9  N   LIG    1       -0.349   1.190  -2.440  0.00  0.00    -0.730 N 
ATOM     10  H   LIG    1        0.403   0.585  -2.538  0.00  0.00    +0.400 HD
ATOM     11  C   LIG    1       -0.742   1.585  -1.213  0.00  0.00    +0.480 C 
ATOM     12  O   LIG    1       -1.681   2.342  -1.091  0.00  0.00    -0.530 OA
ENDBRANCH   1  11
BRANCH   1  13
ATOM     13  O   LIG    1       -0.682   1.547   1.184  0.00  0.00    -0.530 OA
ATOM     14  H   LIG    1       -0.732   2.510   1.256  0.00  0.00    +0.390 HD
ENDBRANCH   1  13
TORSDOF 3
