REMARK  Name = ZINCpe000000Yi0y.0
REMARK                            x       y       z     vdW  Elec       q    Type
REMARK                         _______ _______ _______ _____ _____    ______ ____
ROOT
ATOM      1  N   LIG    1        4.024   7.000  -0.980  0.00  0.00    -0.720 N 
ATOM      2  H   LIG    1        3.185   7.344  -0.637  0.00  0.00    +0.410 HD
ATOM      3  C   LIG    1        4.093   5.738  -1.449  0.00  0.00    +0.490 C 
ATOM      4  O   LIG    1        5.143   5.307  -1.878  0.00  0.00    -0.520 OA
ENDROOT
BRANCH   1   7
ATOM      5  N   LIG    1        5.826  10.026  -0.185  0.00  0.00    -0.530 N 
ATOM      6  C   LIG    1        4.829   9.346  -1.019  0.00  0.00    +0.290 C 
ATOM      7  C   LIG    1        5.216   7.851  -0.989  0.00  0.00    +0.260 C 
ATOM      8  C   LIG    1        5.977   7.750   0.354  0.00  0.00    +0.060 C 
ATOM      9  C   LIG    1        6.482   9.155   0.601  0.00  0.00    +0.520 C 
ATOM     10  O   LIG    1        7.352   9.451   1.392  0.00  0.00    -0.520 OA
BRANCH   5  14
ATOM     11  C   LIG    1        7.693  14.477   0.807  0.00  0.00    +0.360 C 
ATOM     12  N   LIG    1        6.889  13.396   0.231  0.00  0.00    -0.370 N 
ATOM     13  C   LIG    1        6.972  12.079   0.554  0.00  0.00    +0.230 A 
ATOM     14  C   LIG    1        6.064  11.413  -0.204  0.00  0.00    -0.000 A 
ATOM     15  C   LIG    1        5.403  12.354  -1.007  0.00  0.00    +0.230 A 
ATOM     16  N   LIG    1        5.896  13.537  -0.747  0.00  0.00    -0.280 NA
ENDBRANCH   5  14
ENDBRANCH   1   7
BRANCH   3  17
ATOM     17  C   LIG    1        2.867   4.863  -1.441  0.00  0.00    +0.230 C 
BRANCH  17  18
ATOM     18  O   LIG    1        3.161   3.624  -2.089  0.00  0.00    -0.530 OA
ATOM     19  H   LIG    1        3.874   3.121  -1.671  0.00  0.00    +0.380 HD
ENDBRANCH  17  18
BRANCH  17  20
ATOM     20  C   LIG    1        2.442   4.594   0.004  0.00  0.00    +0.070 C 
BRANCH  20  21
ATOM     21  C   LIG    1        1.147   3.822   0.012  0.00  0.00    -0.070 A 
ATOM     22  C   LIG    1       -0.059   4.497   0.027  0.00  0.00    +0.020 A 
ATOM     23  C   LIG    1       -1.247   3.789   0.034  0.00  0.00    +0.030 A 
ATOM     24  C   LIG    1       -1.229   2.408   0.021  0.00  0.00    +0.020 A 
ATOM     25  C   LIG    1       -0.021   1.732   0.012  0.00  0.00    -0.030 A 
ATOM     26 CL   LIG    1        0.002  -0.004   0.002  0.00  0.00    -0.070 Cl
ATOM     27  C   LIG    1        1.167   2.440   0.004  0.00  0.00    +0.040 A 
ENDBRANCH  20  21
ENDBRANCH  17  20
ENDBRANCH   3  17
TORSDOF 6
