REMARK  Name = ZINCrH000004tbIt.0
REMARK                            x       y       z     vdW  Elec       q    Type
REMARK                         _______ _______ _______ _____ _____    ______ ____
ROOT
ATOM      1  N   LIG    1       -1.994  -4.460   0.004  0.00  0.00    -0.480 N 
ATOM      2  C   LIG    1       -3.193  -5.174  -0.450  0.00  0.00    +0.220 C 
ATOM      3  C   LIG    1       -4.402  -4.652   0.338  0.00  0.00    +0.210 C 
ATOM      4  O   LIG    1       -4.569  -3.267   0.019  0.00  0.00    -0.300 OA
ATOM      5  C   LIG    1       -3.444  -2.499   0.020  0.00  0.00    +0.110 A 
ATOM      6  C   LIG    1       -3.583  -1.117   0.031  0.00  0.00    +0.010 A 
ATOM      7  C   LIG    1       -2.470  -0.303   0.031  0.00  0.00    +0.070 A 
ATOM      8  C   LIG    1       -1.194  -0.871   0.009  0.00  0.00    -0.050 A 
ATOM      9  C   LIG    1       -1.053  -2.258   0.000  0.00  0.00    +0.060 A 
ATOM     10  C   LIG    1       -2.176  -3.073   0.007  0.00  0.00    +0.030 A 
ENDROOT
BRANCH   8  11
ATOM     11  C   LIG    1        0.002  -0.004   0.002  0.00  0.00    -0.110 A 
ATOM     12  C   LIG    1       -0.016   1.360   0.009  0.00  0.00    +0.010 A 
ATOM     13  C   LIG    1        1.219   1.950   0.001  0.00  0.00    +0.100 A 
ATOM     14  C   LIG    1        2.269   1.077  -0.014  0.00  0.00    -0.170 A 
ATOM     15  S   LIG    1        1.665  -0.575  -0.017  0.00  0.00    +0.220 S 
BRANCH  14  16
ATOM     16  C   LIG    1        3.652   1.449  -0.026  0.00  0.00    +0.280 C 
ATOM     17  N   LIG    1        4.749   1.744  -0.035  0.00  0.00    -0.400 NA
ENDBRANCH  14  16
ENDBRANCH   8  11
BRANCH   1  18
ATOM     18  C   LIG    1       -1.566  -4.938   1.326  0.00  0.00    +0.300 C 
BRANCH  18  23
ATOM     19  C   LIG    1        1.105  -9.133   0.725  0.00  0.00    +0.380 C 
ATOM     20  N   LIG    1        0.005  -8.196   0.967  0.00  0.00    -0.270 N 
ATOM     21  N   LIG    1       -1.215  -8.515   1.228  0.00  0.00    -0.050 NA
ATOM     22  N   LIG    1       -1.925  -7.456   1.393  0.00  0.00    -0.260 NA
ATOM     23  C   LIG    1       -1.145  -6.381   1.226  0.00  0.00    +0.030 A 
ATOM     24  C   LIG    1        0.097  -6.846   0.956  0.00  0.00    -0.090 A 
BRANCH  24  25
ATOM     25  C   LIG    1        1.333  -6.025   0.694  0.00  0.00    +0.470 C 
ATOM     26  F   LIG    1        1.606  -5.225   1.808  0.00  0.00    -0.180 F 
ATOM     27  F   LIG    1        1.125  -5.212  -0.425  0.00  0.00    -0.170 F 
ENDBRANCH  24  25
ENDBRANCH  18  23
ENDBRANCH   1  18
TORSDOF 5
