REMARK  Name = ZINCtV00000tRTie.0
REMARK                            x       y       z     vdW  Elec       q    Type
REMARK                         _______ _______ _______ _____ _____    ______ ____
ROOT
ATOM      1  N   LIG    1       -3.037   3.503   1.714  0.00  0.00    -0.640 N 
ATOM      2  H   LIG    1       -3.172   2.558   1.545  0.00  0.00    +0.420 HD
ATOM      3  C   LIG    1       -1.989   4.144   1.160  0.00  0.00    +0.710 C 
ATOM      4  N   LIG    1       -1.186   3.498   0.292  0.00  0.00    -0.620 N 
ATOM      5  C   LIG    1       -0.103   4.199  -0.416  0.00  0.00    +0.320 C 
ATOM      6  C   LIG    1        1.225   3.595   0.039  0.00  0.00    +0.090 C 
ATOM      7  C   LIG    1        1.171   2.091   0.001  0.00  0.00    -0.050 A 
ATOM      8  C   LIG    1        2.377   1.404  -0.033  0.00  0.00    +0.050 A 
ATOM      9  C   LIG    1        2.400   0.023  -0.043  0.00  0.00    -0.020 A 
ATOM     10  C   LIG    1        1.210  -0.684  -0.020  0.00  0.00    -0.030 A 
ATOM     11  C   LIG    1        0.009  -0.002   0.007  0.00  0.00    +0.060 A 
ATOM     12 CL   LIG    1        1.227  -2.420  -0.026  0.00  0.00    -0.040 Cl
ATOM     13 CL   LIG    1        3.915  -0.823  -0.084  0.00  0.00    -0.040 Cl
ATOM     14  C   LIG    1       -0.013   1.386   0.012  0.00  0.00    -0.080 A 
ATOM     15  C   LIG    1       -1.358   2.068   0.014  0.00  0.00    +0.270 C 
ATOM     16  C   LIG    1       -2.021   1.890  -1.353  0.00  0.00    +0.050 C 
ATOM     17  O   LIG    1       -1.768   5.306   1.444  0.00  0.00    -0.510 OA
ENDROOT
BRANCH   1  26
ATOM     18  C   LIG    1       -9.932   5.949   7.215  0.00  0.00    +0.200 C 
ATOM     19  C   LIG    1       -8.702   5.916   6.345  0.00  0.00    +0.090 A 
ATOM     20  N   LIG    1       -7.958   6.930   6.109  0.00  0.00    -0.460 NA
ATOM     21  C   LIG    1       -6.888   6.752   5.311  0.00  0.00    +0.100 A 
ATOM     22  C   LIG    1       -6.782   5.434   4.869  0.00  0.00    -0.140 A 
ATOM     23  C   LIG    1       -5.729   5.049   4.025  0.00  0.00    -0.140 A 
ATOM     24  C   LIG    1       -4.775   5.979   3.618  0.00  0.00    +0.130 A 
ATOM     25  N   LIG    1       -3.831   5.447   2.816  0.00  0.00    -0.460 NA
ATOM     26  C   LIG    1       -3.923   4.195   2.525  0.00  0.00    +0.350 A 
ATOM     27  C   LIG    1       -4.898   7.314   4.076  0.00  0.00    +0.100 A 
ATOM     28  S   LIG    1       -5.328   3.489   3.311  0.00  0.00    +0.090 S 
ATOM     29  C   LIG    1       -5.912   7.685   4.888  0.00  0.00    +0.100 A 
ATOM     30  S   LIG    1       -8.123   4.520   5.552  0.00  0.00    +0.120 S 
ENDBRANCH   1  26
TORSDOF 1
