REMARK  Name = ZINCnE000001Ix57.0
REMARK                            x       y       z     vdW  Elec       q    Type
REMARK                         _______ _______ _______ _____ _____    ______ ____
ROOT
ATOM      1  C   LIG    1       -1.003   3.159  -0.042  0.00  0.00    -0.250 A 
ATOM      2  C   LIG    1       -1.147   1.804   0.063  0.00  0.00    +0.090 A 
ATOM      3  C   LIG    1        0.011   1.092  -0.088  0.00  0.00    +0.000 A 
ATOM      4  C   LIG    1        1.121   1.849  -0.330  0.00  0.00    -0.170 A 
ATOM      5  S   LIG    1        0.681   3.551  -0.361  0.00  0.00    +0.210 S 
ENDROOT
BRANCH   4   6
ATOM      6  C   LIG    1        2.485   1.319  -0.534  0.00  0.00    -0.020 A 
ATOM      7  C   LIG    1        2.716  -0.057  -0.480  0.00  0.00    +0.070 A 
ATOM      8  C   LIG    1        3.991  -0.547  -0.675  0.00  0.00    -0.010 A 
ATOM      9  C   LIG    1        5.042   0.324  -0.915  0.00  0.00    +0.100 A 
ATOM     10  C   LIG    1        4.818   1.691  -0.964  0.00  0.00    +0.000 A 
ATOM     11  F   LIG    1        6.289  -0.161  -1.100  0.00  0.00    -0.140 F 
ATOM     12  C   LIG    1        3.547   2.192  -0.775  0.00  0.00    +0.050 A 
ENDBRANCH   4   6
BRANCH   1  15
ATOM     13  C   LIG    1       -0.415   5.908   0.062  0.00  0.00    +0.310 C 
ATOM     14  N   LIG    1       -1.804   5.452   0.149  0.00  0.00    -0.590 N 
ATOM     15  C   LIG    1       -2.087   4.136   0.084  0.00  0.00    +0.580 C 
ATOM     16  O   LIG    1       -3.243   3.759   0.130  0.00  0.00    -0.530 OA
BRANCH  14  17
ATOM     17  C   LIG    1       -2.887   6.426   0.308  0.00  0.00    +0.240 C 
ATOM     18  C   LIG    1       -2.510   7.627   1.192  0.00  0.00    +0.020 C 
ATOM     19  C   LIG    1       -3.282   8.505   0.194  0.00  0.00    -0.100 C 
ATOM     20  C   LIG    1       -2.996   7.421  -0.860  0.00  0.00    +0.030 C 
BRANCH  19  21
ATOM     21  C   LIG    1       -2.610   9.822  -0.098  0.00  0.00    +0.500 C 
ATOM     22  O   LIG    1       -1.472   9.842  -0.535  0.00  0.00    -0.700 OA
ATOM     23  O   LIG    1       -3.204  10.867   0.104  0.00  0.00    -0.700 OA
ENDBRANCH  19  21
ENDBRANCH  14  17
ENDBRANCH   1  15
TORSDOF 4
