REMARK  Name = ZINCvU0000000Bea.0
REMARK                            x       y       z     vdW  Elec       q    Type
REMARK                         _______ _______ _______ _____ _____    ______ ____
ROOT
ATOM      1  C   LIG    1       -3.580   3.053   0.277  0.00  0.00    +0.310 A 
ATOM      2  C   LIG    1       -4.442   4.102   0.365  0.00  0.00    -0.070 A 
ATOM      3  C   LIG    1       -3.689   5.261   0.568  0.00  0.00    +0.100 A 
ATOM      4  N   LIG    1       -2.423   4.932   0.608  0.00  0.00    -0.260 NA
ATOM      5  C   LIG    1       -4.241   6.655   0.722  0.00  0.00    +0.160 C 
ATOM      6  N   LIG    1       -2.320   3.547   0.422  0.00  0.00    -0.350 N 
ENDROOT
BRANCH   6   7
ATOM      7  C   LIG    1       -1.132   2.803   0.395  0.00  0.00    +0.160 A 
ATOM      8  C   LIG    1       -0.911   1.882  -0.619  0.00  0.00    +0.070 A 
ATOM      9  C   LIG    1        0.260   1.149  -0.642  0.00  0.00    -0.160 A 
ATOM     10  C   LIG    1        1.213   1.334   0.343  0.00  0.00    +0.100 A 
ATOM     11  C   LIG    1        0.996   2.251   1.355  0.00  0.00    +0.070 A 
ATOM     12  C   LIG    1       -0.176   2.982   1.388  0.00  0.00    -0.000 A 
ATOM     13 CL   LIG    1       -0.451   4.127   2.663  0.00  0.00    -0.020 Cl
BRANCH   9  14
ATOM     14  C   LIG    1        0.501   0.149  -1.743  0.00  0.00    +0.510 C 
ATOM     15  F   LIG    1        0.485   0.804  -2.980  0.00  0.00    -0.170 F 
ATOM     16  F   LIG    1       -0.505  -0.823  -1.718  0.00  0.00    -0.170 F 
ATOM     17  F   LIG    1        1.745  -0.462  -1.555  0.00  0.00    -0.170 F 
ENDBRANCH   9  14
ENDBRANCH   6   7
BRANCH   1  19
ATOM     18  C   LIG    1       -5.203   1.381  -0.182  0.00  0.00    +0.520 C 
ATOM     19  N   LIG    1       -3.923   1.716   0.075  0.00  0.00    -0.650 N 
ATOM     20  H   LIG    1       -3.241   1.028   0.119  0.00  0.00    +0.410 HD
ATOM     21  O   LIG    1       -6.056   2.242  -0.237  0.00  0.00    -0.480 OA
BRANCH  18  22
ATOM     22  C   LIG    1       -5.575  -0.063  -0.400  0.00  0.00    +0.090 C 
BRANCH  22  23
ATOM     23  C   LIG    1       -7.077  -0.168  -0.671  0.00  0.00    +0.360 C 
BRANCH  23  26
ATOM     24  C   LIG    1       -9.771   1.302   1.616  0.00  0.00    +0.100 C 
ATOM     25  C   LIG    1       -9.052   0.777   0.400  0.00  0.00    +0.520 C 
ATOM     26  N   LIG    1       -7.818   0.247   0.523  0.00  0.00    -0.720 N 
ATOM     27  H   LIG    1       -7.421   0.140   1.402  0.00  0.00    +0.400 HD
ATOM     28  O   LIG    1       -9.583   0.831  -0.689  0.00  0.00    -0.530 OA
ENDBRANCH  23  26
BRANCH  23  29
ATOM     29  C   LIG    1       -7.428  -1.593  -1.010  0.00  0.00    -0.200 A 
ATOM     30  C   LIG    1       -7.561  -2.079  -2.245  0.00  0.00    +0.020 A 
ATOM     31  C   LIG    1       -7.888  -3.423  -2.311  0.00  0.00    +0.010 A 
ATOM     32  C   LIG    1       -8.021  -4.027  -1.130  0.00  0.00    -0.040 A 
ATOM     33  S   LIG    1       -7.718  -2.872   0.162  0.00  0.00    +0.110 S 
ENDBRANCH  23  29
ENDBRANCH  22  23
ENDBRANCH  18  22
ENDBRANCH   1  19
TORSDOF 7
