REMARK  Name = ZINCrH00000No4Go.0
REMARK                            x       y       z     vdW  Elec       q    Type
REMARK                         _______ _______ _______ _____ _____    ______ ____
ROOT
ATOM      1  C   LIG    1        2.520  -0.609  -3.709  0.00  0.00    +0.180 A 
ATOM      2  C   LIG    1        3.015  -1.445  -2.752  0.00  0.00    -0.070 A 
ATOM      3  C   LIG    1        2.288  -1.657  -1.567  0.00  0.00    +0.050 A 
ATOM      4  C   LIG    1        1.106  -1.040  -1.373  0.00  0.00    +0.050 A 
ATOM      5  N   LIG    1        0.595  -0.191  -2.321  0.00  0.00    -0.330 N 
ATOM      6  C   LIG    1       -0.558   0.540  -2.375  0.00  0.00    +0.150 A 
ATOM      7  C   LIG    1       -0.551   1.208  -3.582  0.00  0.00    +0.070 A 
ATOM      8  N   LIG    1        0.578   0.876  -4.234  0.00  0.00    -0.440 NA
ATOM      9  C   LIG    1        0.341  -1.279  -0.097  0.00  0.00    +0.130 C 
ATOM     10  C   LIG    1        1.278   0.034  -3.493  0.00  0.00    +0.220 A 
ENDROOT
BRANCH   7  11
ATOM     11  C   LIG    1       -1.603   2.129  -4.075  0.00  0.00    -0.060 A 
ATOM     12  C   LIG    1       -1.668   3.446  -3.610  0.00  0.00    -0.020 A 
ATOM     13  C   LIG    1       -2.669   4.266  -4.101  0.00  0.00    -0.040 A 
ATOM     14  C   LIG    1       -3.564   3.762  -5.027  0.00  0.00    +0.270 A 
ATOM     15  N   LIG    1       -3.478   2.514  -5.447  0.00  0.00    -0.480 NA
ATOM     16  C   LIG    1       -0.675   3.959  -2.599  0.00  0.00    +0.090 C 
ATOM     17  C   LIG    1       -2.540   1.698  -5.014  0.00  0.00    +0.160 A 
ATOM     18  C   LIG    1       -2.482   0.284  -5.531  0.00  0.00    +0.130 C 
ENDBRANCH   7  11
BRANCH   1  20
ATOM     19  C   LIG    1        4.459  -1.081  -5.003  0.00  0.00    +0.250 C 
ATOM     20  O   LIG    1        3.213  -0.396  -4.859  0.00  0.00    -0.290 OA
ENDBRANCH   1  20
BRANCH   6  21
ATOM     21  N   LIG    1       -1.549   0.604  -1.395  0.00  0.00    -0.600 N 
ATOM     22  H   LIG    1       -1.299   1.259  -0.670  0.00  0.00    +0.350 HD
BRANCH  21  23
ATOM     23  C   LIG    1       -2.851   0.944  -1.985  0.00  0.00    +0.210 C 
BRANCH  23  24
ATOM     24  C   LIG    1       -3.940   0.835  -0.915  0.00  0.00    -0.030 C 
ATOM     25  C   LIG    1       -5.335   1.171  -1.509  0.00  0.00    +0.010 C 
ATOM     26  C   LIG    1       -6.257   0.339  -0.583  0.00  0.00    +0.200 C 
ATOM     27  O   LIG    1       -5.525  -0.865  -0.307  0.00  0.00    -0.390 OA
ATOM     28  C   LIG    1       -4.120  -0.630  -0.463  0.00  0.00    +0.210 C 
ENDBRANCH  23  24
ENDBRANCH  21  23
ENDBRANCH   6  21
TORSDOF 5
