REMARK  Name = ZINCpe000000WsE6.0
REMARK                            x       y       z     vdW  Elec       q    Type
REMARK                         _______ _______ _______ _____ _____    ______ ____
ROOT
ATOM      1  C   LIG    1       -3.634  -6.217  -0.518  0.00  0.00    +0.520 C 
ATOM      2  N   LIG    1       -3.651  -4.874  -0.409  0.00  0.00    -0.520 N 
ATOM      3  H   LIG    1       -4.497  -4.399  -0.398  0.00  0.00    +0.440 HD
ATOM      4  O   LIG    1       -2.577  -6.811  -0.532  0.00  0.00    -0.500 OA
ENDROOT
BRANCH   2   5
ATOM      5  N   LIG    1       -2.447  -4.164  -0.312  0.00  0.00    -0.490 N 
ATOM      6  H   LIG    1       -1.602  -4.639  -0.323  0.00  0.00    +0.450 HD
ATOM      7  C   LIG    1       -2.464  -2.821  -0.203  0.00  0.00    +0.510 C 
ATOM      8  O   LIG    1       -3.522  -2.226  -0.189  0.00  0.00    -0.510 OA
BRANCH   7   9
ATOM      9  C   LIG    1       -1.181  -2.064  -0.099  0.00  0.00    +0.520 C 
ATOM     10  N   LIG    1       -1.197  -0.721   0.010  0.00  0.00    -0.640 N 
ATOM     11  H   LIG    1       -2.042  -0.251   0.089  0.00  0.00    +0.420 HD
ATOM     12  O   LIG    1       -0.123  -2.659  -0.113  0.00  0.00    -0.490 OA
BRANCH  10  13
ATOM     13  C   LIG    1        0.003  -0.005   0.010  0.00  0.00    +0.130 A 
ATOM     14  C   LIG    1        0.065   1.248  -0.586  0.00  0.00    -0.010 A 
ATOM     15  C   LIG    1        1.253   1.954  -0.584  0.00  0.00    +0.030 A 
ATOM     16  C   LIG    1        2.378   1.414   0.011  0.00  0.00    +0.000 A 
ATOM     17  C   LIG    1        2.319   0.166   0.605  0.00  0.00    +0.030 A 
ATOM     18  C   LIG    1        1.135  -0.544   0.607  0.00  0.00    +0.020 A 
ENDBRANCH  10  13
ENDBRANCH   7   9
ENDBRANCH   2   5
BRANCH   1  19
ATOM     19  C   LIG    1       -4.929  -6.981  -0.623  0.00  0.00    +0.260 C 
BRANCH  19  20
ATOM     20  O   LIG    1       -4.651  -8.379  -0.728  0.00  0.00    -0.290 OA
BRANCH  20  24
ATOM     21  C   LIG    1       -7.891 -10.917  -1.041  0.00  0.00    +0.100 A 
ATOM     22  C   LIG    1       -6.604 -11.433  -1.041  0.00  0.00    +0.030 A 
ATOM     23  C   LIG    1       -5.519 -10.583  -0.937  0.00  0.00    +0.040 A 
ATOM     24  C   LIG    1       -5.718  -9.215  -0.832  0.00  0.00    +0.090 A 
ATOM     25  C   LIG    1       -7.006  -8.699  -0.826  0.00  0.00    -0.040 A 
ATOM     26  C   LIG    1       -8.090  -9.548  -0.936  0.00  0.00    -0.040 A 
BRANCH  21  28
ATOM     27  C   LIG    1      -10.256 -11.153  -1.136  0.00  0.00    +0.250 C 
ATOM     28  O   LIG    1       -8.959 -11.753  -1.143  0.00  0.00    -0.320 OA
ENDBRANCH  21  28
ENDBRANCH  20  24
ENDBRANCH  19  20
ENDBRANCH   1  19
TORSDOF 7
