REMARK  Name = ZINCtV00001bB3fZ.0
REMARK                            x       y       z     vdW  Elec       q    Type
REMARK                         _______ _______ _______ _____ _____    ______ ____
ROOT
ATOM      1  C   LIG    1        5.851   2.236   0.102  0.00  0.00    -0.050 A 
ATOM      2  C   LIG    1        5.983   3.575   0.477  0.00  0.00    +0.070 A 
ATOM      3  C   LIG    1        7.218   4.185   0.425  0.00  0.00    +0.010 A 
ATOM      4  C   LIG    1        8.329   3.472  -0.011  0.00  0.00    +0.160 A 
ATOM      5  C   LIG    1        8.201   2.140  -0.390  0.00  0.00    +0.010 A 
ATOM      6  C   LIG    1        6.971   1.522  -0.335  0.00  0.00    +0.050 A 
ENDROOT
BRANCH   1   8
ATOM      7  N   LIG    1        3.495   2.242   0.569  0.00  0.00    -0.230 NA
ATOM      8  C   LIG    1        4.534   1.578   0.162  0.00  0.00    +0.210 C 
BRANCH   7   9
ATOM      9  N   LIG    1        2.242   1.617   0.626  0.00  0.00    -0.580 N 
ATOM     10  H   LIG    1        2.151   0.688   0.362  0.00  0.00    +0.390 HD
BRANCH   9  15
ATOM     11  C   LIG    1       -2.295   4.517   2.400  0.00  0.00    +0.080 C 
ATOM     12  C   LIG    1       -1.089   3.746   1.929  0.00  0.00    -0.130 A 
ATOM     13  C   LIG    1       -1.222   2.423   1.548  0.00  0.00    +0.040 A 
ATOM     14  C   LIG    1       -0.118   1.712   1.120  0.00  0.00    -0.060 A 
ATOM     15  C   LIG    1        1.126   2.330   1.063  0.00  0.00    +0.210 A 
ATOM     16  C   LIG    1        1.254   3.661   1.442  0.00  0.00    -0.020 A 
ATOM     17  C   LIG    1        0.147   4.364   1.873  0.00  0.00    +0.040 A 
ENDBRANCH   9  15
ENDBRANCH   7   9
ENDBRANCH   1   8
BRANCH   4  18
ATOM     18  N   LIG    1        9.578   4.096  -0.068  0.00  0.00    -0.540 N 
BRANCH  18  19
ATOM     19  C   LIG    1       10.577   3.745   0.845  0.00  0.00    +0.200 A 
ATOM     20  C   LIG    1       10.293   2.868   1.884  0.00  0.00    -0.060 A 
ATOM     21  C   LIG    1       11.284   2.519   2.781  0.00  0.00    +0.040 A 
ATOM     22  C   LIG    1       12.554   3.050   2.651  0.00  0.00    -0.040 A 
ATOM     23  C   LIG    1       12.839   3.927   1.621  0.00  0.00    +0.040 A 
ATOM     24  C   LIG    1       11.854   4.276   0.717  0.00  0.00    -0.060 A 
ENDBRANCH  18  19
BRANCH  18  25
ATOM     25  C   LIG    1        9.829   5.070  -1.038  0.00  0.00    +0.150 A 
ATOM     26  C   LIG    1        9.940   6.406  -0.671  0.00  0.00    +0.000 A 
ATOM     27  C   LIG    1       10.193   7.365  -1.631  0.00  0.00    +0.020 A 
ATOM     28  C   LIG    1       10.325   7.000  -2.958  0.00  0.00    +0.010 A 
ATOM     29  C   LIG    1       10.209   5.673  -3.328  0.00  0.00    +0.020 A 
ATOM     30  C   LIG    1        9.961   4.707  -2.373  0.00  0.00    +0.000 A 
ENDBRANCH  18  25
ENDBRANCH   4  18
TORSDOF 6
