REMARK  Name = ZINCvU0000000C7d.0
REMARK                            x       y       z     vdW  Elec       q    Type
REMARK                         _______ _______ _______ _____ _____    ______ ____
ROOT
ATOM      1  C   LIG    1        0.002  -0.004   0.002  0.00  0.00    +0.550 A 
ATOM      2  N   LIG    1        1.121  -0.703  -0.012  0.00  0.00    -0.590 NA
ATOM      3  C   LIG    1        2.310  -0.081  -0.021  0.00  0.00    +0.220 A 
ATOM      4  C   LIG    1        3.517  -0.792  -0.036  0.00  0.00    +0.020 A 
ATOM      5  C   LIG    1        4.699  -0.112  -0.044  0.00  0.00    +0.060 A 
ATOM      6  C   LIG    1        4.725   1.279  -0.037  0.00  0.00    -0.020 A 
ATOM      7  C   LIG    1        3.568   2.002  -0.022  0.00  0.00    +0.060 A 
ATOM      8  C   LIG    1        2.339   1.335  -0.013  0.00  0.00    -0.220 A 
ATOM      9  C   LIG    1        1.105   2.032   0.002  0.00  0.00    +0.500 A 
ATOM     10  N   LIG    1       -0.016   1.326   0.009  0.00  0.00    -0.600 NA
ENDROOT
BRANCH   1  14
ATOM     11  C   LIG    1       -2.806  -2.403   1.717  0.00  0.00    +0.030 C 
ATOM     12  C   LIG    1       -2.235  -2.915   0.393  0.00  0.00    +0.120 C 
ATOM     13  C   LIG    1       -0.990  -2.127   0.049  0.00  0.00    +0.220 C 
ATOM     14  N   LIG    1       -1.203  -0.683   0.010  0.00  0.00    -0.460 N 
ATOM     15  C   LIG    1       -2.048  -0.268  -1.115  0.00  0.00    +0.280 C 
ATOM     16  C   LIG    1       -3.503  -0.416  -0.714  0.00  0.00    -0.110 A 
ATOM     17  C   LIG    1       -4.293   0.702  -0.547  0.00  0.00    +0.050 A 
ATOM     18  C   LIG    1       -5.624   0.554  -0.198  0.00  0.00    +0.000 A 
ATOM     19  C   LIG    1       -6.158  -0.708  -0.020  0.00  0.00    +0.030 A 
ATOM     20  C   LIG    1       -5.364  -1.829  -0.181  0.00  0.00    +0.000 A 
ATOM     21  C   LIG    1       -4.028  -1.680  -0.522  0.00  0.00    +0.120 A 
ATOM     22  C   LIG    1       -1.870  -4.394   0.540  0.00  0.00    +0.080 C 
ATOM     23  O   LIG    1       -3.225  -2.773  -0.634  0.00  0.00    -0.320 OA
ENDBRANCH   1  14
BRANCH   9  24
ATOM     24  N   LIG    1        1.072   3.410   0.010  0.00  0.00    -0.690 N 
ATOM     25  H   LIG    1        1.900   3.915   0.004  0.00  0.00    +0.410 HD
BRANCH  24  26
ATOM     26  C   LIG    1       -0.214   4.112   0.025  0.00  0.00    +0.330 C 
BRANCH  26  27
ATOM     27  C   LIG    1        0.026   5.600   0.031  0.00  0.00    -0.120 A 
ATOM     28  C   LIG    1        0.142   6.277   1.230  0.00  0.00    +0.020 A 
ATOM     29  C   LIG    1        0.367   7.641   1.235  0.00  0.00    +0.010 A 
ATOM     30  C   LIG    1        0.466   8.329   0.040  0.00  0.00    +0.010 A 
ATOM     31  C   LIG    1        0.345   7.653  -1.159  0.00  0.00    +0.010 A 
ATOM     32  C   LIG    1        0.125   6.288  -1.164  0.00  0.00    +0.020 A 
ENDBRANCH  26  27
ENDBRANCH  24  26
ENDBRANCH   9  24
TORSDOF 4
