REMARK  Name = ZINCpk00000KfKq3.0
REMARK                            x       y       z     vdW  Elec       q    Type
REMARK                         _______ _______ _______ _____ _____    ______ ____
ROOT
ATOM      1  C   LIG    1        5.202  -2.883  -0.067  0.00  0.00    +0.340 C 
ATOM      2  C   LIG    1        4.928  -4.401  -0.094  0.00  0.00    +0.060 C 
ATOM      3  C   LIG    1        3.488  -4.483  -0.666  0.00  0.00    +0.050 C 
ATOM      4  C   LIG    1        2.834  -3.225  -0.041  0.00  0.00    +0.250 C 
ATOM      5  N   LIG    1        3.898  -2.205  -0.045  0.00  0.00    -0.610 N 
ATOM      6  C   LIG    1        3.706  -0.871  -0.037  0.00  0.00    +0.530 C 
ATOM      7  O   LIG    1        4.660  -0.121  -0.042  0.00  0.00    -0.500 OA
ENDROOT
BRANCH   1  10
ATOM      8  C   LIG    1        7.542  -1.961   2.486  0.00  0.00    +0.190 A 
ATOM      9  N   LIG    1        7.283  -2.182   1.220  0.00  0.00    -0.470 NA
ATOM     10  C   LIG    1        5.984  -2.528   1.171  0.00  0.00    +0.170 A 
ATOM     11  N   LIG    1        5.527  -2.495   2.387  0.00  0.00    -0.370 NA
ATOM     12  O   LIG    1        6.407  -2.177   3.159  0.00  0.00    +0.080 OA
BRANCH   8  14
ATOM     13  C   LIG    1        8.952  -0.016   3.102  0.00  0.00    +0.060 C 
ATOM     14  C   LIG    1        8.867  -1.543   3.072  0.00  0.00    +0.180 C 
ENDBRANCH   8  14
ENDBRANCH   1  10
BRANCH   6  15
ATOM     15  C   LIG    1        2.307  -0.310  -0.021  0.00  0.00    +0.250 C 
BRANCH  15  16
ATOM     16  O   LIG    1        2.366   1.117  -0.014  0.00  0.00    -0.290 OA
BRANCH  16  17
ATOM     17  C   LIG    1        1.181   1.784   0.000  0.00  0.00    +0.120 A 
ATOM     18  C   LIG    1       -0.013   1.076   0.008  0.00  0.00    -0.050 A 
ATOM     19  C   LIG    1       -1.221   1.748   0.017  0.00  0.00    +0.060 A 
ATOM     20  C   LIG    1       -1.247   3.128   0.030  0.00  0.00    +0.010 A 
ATOM     21  C   LIG    1       -0.052   3.848   0.023  0.00  0.00    -0.100 A 
ATOM     22  C   LIG    1        1.166   3.168   0.008  0.00  0.00    +0.060 A 
BRANCH  21  23
ATOM     23  C   LIG    1       -0.076   5.327   0.030  0.00  0.00    +0.560 C 
ATOM     24  O   LIG    1        0.966   5.952   0.024  0.00  0.00    -0.530 OA
ATOM     25  N   LIG    1       -1.254   5.981   0.045  0.00  0.00    -0.850 N 
ATOM     26  H   LIG    1       -1.270   6.951   0.050  0.00  0.00    +0.410 HD
ATOM     27  H   LIG    1       -2.086   5.482   0.050  0.00  0.00    +0.400 HD
ENDBRANCH  21  23
ENDBRANCH  16  17
ENDBRANCH  15  16
ENDBRANCH   6  15
TORSDOF 6
