REMARK  Name = ZINCrH000004sNSH.0
REMARK                            x       y       z     vdW  Elec       q    Type
REMARK                         _______ _______ _______ _____ _____    ______ ____
ROOT
ATOM      1  C   LIG    1        0.060  -4.277  -0.021  0.00  0.00    +0.070 C 
ENDROOT
BRANCH   1   2
ATOM      2  C   LIG    1        0.040  -2.770  -0.013  0.00  0.00    -0.120 A 
ATOM      3  C   LIG    1       -1.168  -2.096   0.002  0.00  0.00    +0.060 A 
ATOM      4  C   LIG    1       -1.189  -0.715   0.010  0.00  0.00    -0.020 A 
ATOM      5  C   LIG    1        0.002  -0.004   0.002  0.00  0.00    +0.130 A 
ATOM      6  C   LIG    1        1.212  -0.682  -0.019  0.00  0.00    -0.080 A 
ATOM      7  C   LIG    1        1.228  -2.064  -0.021  0.00  0.00    +0.060 A 
BRANCH   5   8
ATOM      8  O   LIG    1       -0.016   1.355   0.009  0.00  0.00    -0.310 OA
BRANCH   8   9
ATOM      9  C   LIG    1        1.248   2.021   0.001  0.00  0.00    +0.240 C 
BRANCH   9  10
ATOM     10  C   LIG    1        1.030   3.512   0.011  0.00  0.00    -0.100 A 
ATOM     11  C   LIG    1        0.925   4.203  -1.181  0.00  0.00    +0.020 A 
ATOM     12  C   LIG    1        0.720   5.570  -1.172  0.00  0.00    +0.010 A 
ATOM     13  C   LIG    1        0.631   6.248   0.030  0.00  0.00    +0.020 A 
ATOM     14  C   LIG    1        0.743   5.557   1.222  0.00  0.00    +0.010 A 
ATOM     15  C   LIG    1        0.942   4.189   1.213  0.00  0.00    +0.020 A 
ENDBRANCH   9  10
ENDBRANCH   8   9
ENDBRANCH   5   8
ENDBRANCH   1   2
BRANCH   1  16
ATOM     16  C   LIG    1        0.053  -4.779  -1.466  0.00  0.00    +0.260 C 
BRANCH  16  18
ATOM     17  C   LIG    1        0.071  -6.912  -2.645  0.00  0.00    +0.510 C 
ATOM     18  N   LIG    1        0.073  -6.244  -1.474  0.00  0.00    -0.730 N 
ATOM     19  H   LIG    1        0.088  -6.734  -0.637  0.00  0.00    +0.400 HD
ATOM     20  O   LIG    1        0.053  -6.300  -3.692  0.00  0.00    -0.530 OA
BRANCH  17  21
ATOM     21  C   LIG    1        0.091  -8.419  -2.654  0.00  0.00    +0.160 C 
BRANCH  21  28
ATOM     22  C   LIG    1        2.651  -9.033  -4.551  0.00  0.00    +0.160 C 
ATOM     23  C   LIG    1        1.195  -9.184  -4.910  0.00  0.00    +0.030 A 
ATOM     24  N   LIG    1        0.710  -9.588  -6.048  0.00  0.00    -0.370 NA
ATOM     25  O   LIG    1       -0.499  -9.605  -6.037  0.00  0.00    +0.100 OA
ATOM     26  C   LIG    1       -0.986  -9.207  -4.853  0.00  0.00    -0.010 A 
ATOM     27  C   LIG    1       -2.438  -9.105  -4.463  0.00  0.00    +0.190 C 
ATOM     28  C   LIG    1        0.085  -8.913  -4.077  0.00  0.00    -0.190 A 
ENDBRANCH  21  28
ENDBRANCH  17  21
ENDBRANCH  16  18
ENDBRANCH   1  16
TORSDOF 8
