REMARK  Name = ZINCrD000000D7kQ.0
REMARK                            x       y       z     vdW  Elec       q    Type
REMARK                         _______ _______ _______ _____ _____    ______ ____
ROOT
ATOM      1  C   LIG    1       -1.907   4.265  -3.374  0.00  0.00    -0.630 A 
ATOM      2  C   LIG    1       -2.809   5.282  -3.125  0.00  0.00    +0.060 A 
ATOM      3  C   LIG    1       -3.919   5.440  -3.934  0.00  0.00    +0.040 A 
ATOM      4  C   LIG    1       -4.130   4.580  -4.995  0.00  0.00    -0.010 A 
ATOM      5  C   LIG    1       -3.225   3.557  -5.247  0.00  0.00    +0.200 A 
ATOM      6  C   LIG    1       -2.108   3.405  -4.436  0.00  0.00    +0.050 A 
ENDROOT
BRANCH   1   8
ATOM      7  O   LIG    1       -0.252   5.337  -1.746  0.00  0.00    -0.950 OA
ATOM      8  S   LIG    1       -0.494   4.069  -2.339  0.00  0.00    +2.690 S 
ATOM      9  O   LIG    1        0.476   3.375  -3.112  0.00  0.00    -0.950 OA
BRANCH   8  10
ATOM     10  N   LIG    1       -0.926   3.051  -1.107  0.00  0.00    -1.000 NA
ATOM     11  C   LIG    1       -0.756   1.595  -1.232  0.00  0.00    +0.260 C 
ATOM     12  C   LIG    1       -0.013   1.086   0.008  0.00  0.00    +0.220 C 
ATOM     13  O   LIG    1       -0.684   1.548   1.183  0.00  0.00    -0.380 OA
ATOM     14  C   LIG    1       -0.712   2.971   1.319  0.00  0.00    +0.220 C 
ATOM     15  C   LIG    1       -1.491   3.576   0.146  0.00  0.00    +0.270 C 
ENDBRANCH   8  10
ENDBRANCH   1   8
BRANCH   5  16
ATOM     16  N   LIG    1       -3.435   2.686  -6.319  0.00  0.00    -0.740 N 
ATOM     17  H   LIG    1       -2.803   1.972  -6.495  0.00  0.00    +0.400 HD
BRANCH  16  18
ATOM     18  C   LIG    1       -4.611   2.851  -7.178  0.00  0.00    +0.310 C 
BRANCH  18  19
ATOM     19  C   LIG    1       -4.602   1.792  -8.250  0.00  0.00    -0.060 A 
ATOM     20  C   LIG    1       -4.160   2.101  -9.523  0.00  0.00    +0.040 A 
ATOM     21  C   LIG    1       -4.153   1.130 -10.507  0.00  0.00    +0.050 A 
ATOM     22  C   LIG    1       -4.587  -0.150 -10.217  0.00  0.00    +0.030 A 
ATOM     23  C   LIG    1       -5.028  -0.459  -8.944  0.00  0.00    +0.070 A 
ATOM     24  C   LIG    1       -5.032   0.511  -7.959  0.00  0.00    -0.170 A 
BRANCH  24  25
ATOM     25  C   LIG    1       -5.508   0.172  -6.570  0.00  0.00    +0.510 C 
ATOM     26  F   LIG    1       -6.604   0.978  -6.244  0.00  0.00    -0.170 F 
ATOM     27  F   LIG    1       -4.474   0.399  -5.655  0.00  0.00    -0.170 F 
ATOM     28  F   LIG    1       -5.887  -1.173  -6.522  0.00  0.00    -0.180 F 
ENDBRANCH  24  25
ENDBRANCH  18  19
ENDBRANCH  16  18
ENDBRANCH   5  16
TORSDOF 6
