REMARK  Name = ZINCpe00000MJKXq.0
REMARK                            x       y       z     vdW  Elec       q    Type
REMARK                         _______ _______ _______ _____ _____    ______ ____
ROOT
ATOM      1  C   LIG    1        3.543  -2.456  -3.368  0.00  0.00    +0.130 C 
ATOM      2  C   LIG    1        2.685  -1.629  -4.350  0.00  0.00    +0.050 C 
ATOM      3  C   LIG    1        3.593  -1.392  -5.574  0.00  0.00    +0.050 C 
ATOM      4  C   LIG    1        4.923  -2.096  -5.230  0.00  0.00    +0.120 C 
ATOM      5  N   LIG    1        4.946  -2.146  -3.745  0.00  0.00    -0.450 NA
ENDROOT
BRANCH   4   6
ATOM      6  C   LIG    1        6.092  -1.298  -5.747  0.00  0.00    +0.520 C 
ATOM      7  O   LIG    1        6.883  -0.808  -4.969  0.00  0.00    -0.490 OA
ATOM      8  N   LIG    1        6.258  -1.129  -7.074  0.00  0.00    -0.860 N 
ATOM      9  H   LIG    1        7.011  -0.616  -7.407  0.00  0.00    +0.400 HD
ATOM     10  H   LIG    1        5.625  -1.521  -7.696  0.00  0.00    +0.400 HD
ENDBRANCH   4   6
BRANCH   1  13
ATOM     11  C   LIG    1        0.991  -2.845  -2.198  0.00  0.00    +0.280 C 
ATOM     12  N   LIG    1        2.055  -2.222  -1.406  0.00  0.00    -0.620 N 
ATOM     13  C   LIG    1        3.274  -2.030  -1.948  0.00  0.00    +0.520 C 
ATOM     14  O   LIG    1        4.155  -1.515  -1.292  0.00  0.00    -0.480 OA
BRANCH  12  15
ATOM     15  C   LIG    1        1.793  -1.809  -0.025  0.00  0.00    +0.410 C 
BRANCH  15  16
ATOM     16  C   LIG    1        1.297  -0.386  -0.012  0.00  0.00    +0.180 A 
ATOM     17  N   LIG    1        2.048   0.681  -0.014  0.00  0.00    -0.460 NA
ATOM     18  C   LIG    1        1.267   1.772  -0.001  0.00  0.00    +0.140 A 
ATOM     19  C   LIG    1       -0.017   1.365   0.009  0.00  0.00    +0.130 A 
ATOM     20  N   LIG    1        0.002  -0.004   0.002  0.00  0.00    -0.570 N 
ATOM     21  H   LIG    1       -0.771  -0.590   0.006  0.00  0.00    +0.420 HD
ENDBRANCH  15  16
ENDBRANCH  12  15
ENDBRANCH   1  13
BRANCH   5  22
ATOM     22  C   LIG    1        5.862  -3.191  -3.268  0.00  0.00    +0.230 C 
BRANCH  22  23
ATOM     23  C   LIG    1        7.226  -2.976  -3.871  0.00  0.00    -0.070 A 
ATOM     24  C   LIG    1        7.551  -3.573  -5.075  0.00  0.00    -0.020 A 
ATOM     25  C   LIG    1        8.801  -3.372  -5.631  0.00  0.00    -0.010 A 
ATOM     26  C   LIG    1        9.729  -2.584  -4.978  0.00  0.00    -0.010 A 
ATOM     27  C   LIG    1        9.406  -1.992  -3.771  0.00  0.00    +0.010 A 
ATOM     28  C   LIG    1        8.155  -2.188  -3.218  0.00  0.00    +0.060 A 
ENDBRANCH  22  23
ENDBRANCH   5  22
TORSDOF 6
