REMARK  Name = ZINCpe00000UXRz1.0
REMARK                            x       y       z     vdW  Elec       q    Type
REMARK                         _______ _______ _______ _____ _____    ______ ____
ROOT
ATOM      1  C   LIG    1        3.710   1.762  -0.135  0.00  0.00    +0.210 C 
ATOM      2  C   LIG    1        4.675   0.558  -0.124  0.00  0.00    +0.040 C 
ATOM      3  C   LIG    1        3.857  -0.539   0.608  0.00  0.00    +0.040 C 
ATOM      4  C   LIG    1        2.420  -0.238   0.112  0.00  0.00    +0.250 C 
ATOM      5  N   LIG    1        2.349   1.232   0.032  0.00  0.00    -0.610 N 
ATOM      6  C   LIG    1        1.221   1.968   0.096  0.00  0.00    +0.570 C 
ATOM      7  O   LIG    1        1.288   3.183   0.112  0.00  0.00    -0.540 OA
ENDROOT
BRANCH   6   8
ATOM      8  C   LIG    1       -0.042   1.327   0.146  0.00  0.00    -0.080 C 
ATOM      9  C   LIG    1       -1.173   2.065   0.204  0.00  0.00    +0.170 C 
BRANCH   9  10
ATOM     10  C   LIG    1       -2.481   1.401   0.249  0.00  0.00    -0.010 A 
ATOM     11  C   LIG    1       -3.700   2.019   0.310  0.00  0.00    +0.180 A 
ATOM     12  N   LIG    1       -4.637   1.033   0.334  0.00  0.00    -0.570 N 
ATOM     13  H   LIG    1       -5.598   1.158   0.376  0.00  0.00    +0.430 HD
ATOM     14  C   LIG    1       -3.985  -0.157   0.289  0.00  0.00    +0.400 A 
ATOM     15  N   LIG    1       -2.703   0.061   0.233  0.00  0.00    -0.470 NA
ENDBRANCH   9  10
ENDBRANCH   6   8
BRANCH   1  16
ATOM     16  C   LIG    1        3.818   2.507  -1.467  0.00  0.00    +0.260 C 
BRANCH  16  19
ATOM     17  O   LIG    1        4.598   4.120  -3.481  0.00  0.00    -0.540 OA
ATOM     18  C   LIG    1        5.434   3.915  -2.627  0.00  0.00    +0.510 C 
ATOM     19  N   LIG    1        5.143   3.121  -1.577  0.00  0.00    -0.730 N 
ATOM     20  H   LIG    1        5.812   2.957  -0.893  0.00  0.00    +0.400 HD
BRANCH  18  21
ATOM     21  C   LIG    1        6.797   4.547  -2.739  0.00  0.00    +0.060 C 
BRANCH  21  22
ATOM     22  C   LIG    1        6.864   5.392  -4.013  0.00  0.00    +0.140 C 
BRANCH  22  23
ATOM     23  C   LIG    1        8.227   6.024  -4.125  0.00  0.00    +0.000 A 
ATOM     24  C   LIG    1        9.063   5.920  -5.176  0.00  0.00    +0.130 A 
ATOM     25  N   LIG    1       10.183   6.643  -4.864  0.00  0.00    -0.570 N 
ATOM     26  H   LIG    1       10.967   6.759  -5.423  0.00  0.00    +0.420 HD
ATOM     27  C   LIG    1        9.992   7.164  -3.633  0.00  0.00    +0.400 A 
ATOM     28  N   LIG    1        8.818   6.794  -3.200  0.00  0.00    -0.490 NA
ENDBRANCH  22  23
ENDBRANCH  21  22
ENDBRANCH  18  21
ENDBRANCH  16  19
ENDBRANCH   1  16
TORSDOF 7
