REMARK  Name = ZINCpe00000UXRz1.1
REMARK                            x       y       z     vdW  Elec       q    Type
REMARK                         _______ _______ _______ _____ _____    ______ ____
ROOT
ATOM      1  C   LIG    1       -1.509   2.737  -0.806  0.00  0.00    +0.210 C 
ATOM      2  C   LIG    1       -1.033   3.110   0.614  0.00  0.00    +0.040 C 
ATOM      3  C   LIG    1       -0.608   1.740   1.210  0.00  0.00    +0.040 C 
ATOM      4  C   LIG    1       -0.021   1.029  -0.035  0.00  0.00    +0.250 C 
ATOM      5  N   LIG    1       -0.880   1.455  -1.155  0.00  0.00    -0.610 N 
ATOM      6  C   LIG    1       -1.059   0.780  -2.308  0.00  0.00    +0.570 C 
ATOM      7  O   LIG    1       -1.865   1.180  -3.129  0.00  0.00    -0.540 OA
ENDROOT
BRANCH   6   8
ATOM      8  C   LIG    1       -0.310  -0.395  -2.565  0.00  0.00    -0.080 C 
ATOM      9  C   LIG    1       -0.489  -1.072  -3.722  0.00  0.00    +0.170 C 
BRANCH   9  10
ATOM     10  C   LIG    1        0.286  -2.289  -3.988  0.00  0.00    -0.010 A 
ATOM     11  C   LIG    1        0.204  -3.072  -5.106  0.00  0.00    +0.180 A 
ATOM     12  N   LIG    1        1.095  -4.087  -4.939  0.00  0.00    -0.570 N 
ATOM     13  H   LIG    1        1.268  -4.806  -5.568  0.00  0.00    +0.430 HD
ATOM     14  C   LIG    1        1.694  -3.916  -3.732  0.00  0.00    +0.400 A 
ATOM     15  N   LIG    1        1.213  -2.847  -3.166  0.00  0.00    -0.470 NA
ENDBRANCH   9  10
ENDBRANCH   6   8
BRANCH   1  16
ATOM     16  C   LIG    1       -1.078   3.816  -1.803  0.00  0.00    +0.260 C 
BRANCH  16  19
ATOM     17  O   LIG    1       -0.924   6.054  -3.296  0.00  0.00    -0.540 OA
ATOM     18  C   LIG    1       -1.645   6.127  -2.324  0.00  0.00    +0.510 C 
ATOM     19  N   LIG    1       -1.791   5.062  -1.511  0.00  0.00    -0.730 N 
ATOM     20  H   LIG    1       -2.367   5.121  -0.734  0.00  0.00    +0.400 HD
BRANCH  18  21
ATOM     21  C   LIG    1       -2.378   7.410  -2.024  0.00  0.00    +0.060 C 
BRANCH  21  22
ATOM     22  C   LIG    1       -2.041   8.451  -3.093  0.00  0.00    +0.150 C 
BRANCH  22  23
ATOM     23  C   LIG    1       -2.774   9.734  -2.793  0.00  0.00    -0.030 A 
ATOM     24  C   LIG    1       -2.369  10.715  -1.965  0.00  0.00    +0.150 A 
ATOM     25  N   LIG    1       -3.301  11.679  -1.977  0.00  0.00    -0.490 NA
ATOM     26  C   LIG    1       -4.268  11.333  -2.781  0.00  0.00    +0.390 A 
ATOM     27  N   LIG    1       -3.976  10.127  -3.315  0.00  0.00    -0.570 N 
ATOM     28  H   LIG    1       -4.518   9.632  -3.949  0.00  0.00    +0.420 HD
ENDBRANCH  22  23
ENDBRANCH  21  22
ENDBRANCH  18  21
ENDBRANCH  16  19
ENDBRANCH   1  16
TORSDOF 7
