REMARK  Name = ZINCrD00000F5LCp.0
REMARK                            x       y       z     vdW  Elec       q    Type
REMARK                         _______ _______ _______ _____ _____    ______ ____
ROOT
ATOM      1  C   LIG    1        4.143  -1.743  -0.045  0.00  0.00    +0.630 C 
ATOM      2  N   LIG    1        3.267  -2.763   0.060  0.00  0.00    -0.580 N 
ATOM      3  H   LIG    1        2.314  -2.584   0.070  0.00  0.00    +0.390 HD
ATOM      4  O   LIG    1        5.334  -1.973  -0.153  0.00  0.00    -0.480 OA
ENDROOT
BRANCH   1   7
ATOM      5  C   LIG    1        3.940   0.062   2.491  0.00  0.00    +0.170 C 
ATOM      6  C   LIG    1        3.573   0.425   1.075  0.00  0.00    +0.140 A 
ATOM      7  C   LIG    1        3.677  -0.405  -0.030  0.00  0.00    -0.150 A 
ATOM      8  N   LIG    1        3.235   0.331  -1.114  0.00  0.00    -0.330 N 
ATOM      9  C   LIG    1        3.115   0.034  -2.436  0.00  0.00    +0.210 A 
ATOM     10  C   LIG    1        2.644   0.954  -3.309  0.00  0.00    +0.030 A 
ATOM     11  C   LIG    1        2.274   2.228  -2.857  0.00  0.00    +0.060 A 
ATOM     12  C   LIG    1        2.392   2.534  -1.534  0.00  0.00    +0.080 A 
ATOM     13  C   LIG    1        2.884   1.564  -0.642  0.00  0.00    +0.250 A 
ATOM     14  N   LIG    1        3.096   1.592   0.672  0.00  0.00    -0.490 NA
ENDBRANCH   1   7
BRANCH   2  15
ATOM     15  N   LIG    1        3.734  -4.080   0.155  0.00  0.00    -0.240 NA
ATOM     16  C   LIG    1        2.891  -5.062   0.256  0.00  0.00    +0.240 C 
BRANCH  16  17
ATOM     17  C   LIG    1        3.382  -6.448   0.356  0.00  0.00    -0.090 A 
ATOM     18  C   LIG    1        4.755  -6.708   0.336  0.00  0.00    +0.090 A 
ATOM     19  C   LIG    1        5.211  -8.004   0.436  0.00  0.00    -0.050 A 
ATOM     20  C   LIG    1        4.306  -9.055   0.544  0.00  0.00    +0.130 A 
ATOM     21  C   LIG    1        2.938  -8.800   0.558  0.00  0.00    -0.020 A 
ATOM     22  C   LIG    1        2.475  -7.506   0.465  0.00  0.00    +0.070 A 
BRANCH  20  23
ATOM     23  N   LIG    1        4.771 -10.366   0.640  0.00  0.00    -0.490 N 
ATOM     24  C   LIG    1        4.248 -11.023   1.844  0.00  0.00    +0.190 C 
ATOM     25  C   LIG    1        4.658 -12.498   1.841  0.00  0.00    +0.020 C 
ATOM     26  C   LIG    1        6.185 -12.598   1.805  0.00  0.00    +0.010 C 
ATOM     27  C   LIG    1        6.707 -11.864   0.566  0.00  0.00    +0.020 C 
ATOM     28  C   LIG    1        6.238 -10.408   0.606  0.00  0.00    +0.180 C 
ENDBRANCH  20  23
ENDBRANCH  16  17
ENDBRANCH   2  15
TORSDOF 4
