REMARK  Name = ZINCqH00000505i3.0
REMARK                            x       y       z     vdW  Elec       q    Type
REMARK                         _______ _______ _______ _____ _____    ______ ____
ROOT
ATOM      1  C   LIG    1        1.099   2.033   0.003  0.00  0.00    +0.400 A 
ATOM      2  N   LIG    1       -0.016   1.333   0.009  0.00  0.00    -0.590 NA
ATOM      3  C   LIG    1        0.002  -0.004   0.002  0.00  0.00    +0.550 A 
ATOM      4  C   LIG    1        1.302  -0.706  -0.014  0.00  0.00    -0.220 A 
ATOM      5  C   LIG    1        2.445   0.068  -0.021  0.00  0.00    +0.060 A 
ATOM      6  S   LIG    1        3.870  -0.961  -0.040  0.00  0.00    +0.200 S 
ATOM      7  C   LIG    1        2.902  -2.423  -0.039  0.00  0.00    -0.020 A 
ATOM      8  C   LIG    1        1.599  -2.133  -0.025  0.00  0.00    +0.040 A 
ATOM      9  O   LIG    1       -1.042  -0.637   0.008  0.00  0.00    -0.470 OA
ATOM     10  N   LIG    1        2.321   1.444  -0.012  0.00  0.00    -0.580 N 
ATOM     11  H   LIG    1        3.118   1.997  -0.017  0.00  0.00    +0.430 HD
ENDROOT
BRANCH   8  12
ATOM     12  C   LIG    1        0.547  -3.171  -0.020  0.00  0.00    -0.140 A 
ATOM     13  C   LIG    1        0.479  -4.214  -0.872  0.00  0.00    +0.020 A 
ATOM     14  C   LIG    1       -0.598  -5.055  -0.668  0.00  0.00    +0.000 A 
ATOM     15  C   LIG    1       -1.409  -4.703   0.332  0.00  0.00    -0.060 A 
ATOM     16  S   LIG    1       -0.814  -3.233   1.092  0.00  0.00    +0.180 S 
ENDBRANCH   8  12
BRANCH   1  17
ATOM     17  S   LIG    1        1.001   3.793   0.012  0.00  0.00    +0.100 S 
BRANCH  17  18
ATOM     18  C   LIG    1       -0.796   4.007   0.030  0.00  0.00    +0.140 C 
BRANCH  18  21
ATOM     19  N   LIG    1       -2.413   5.879   0.055  0.00  0.00    -0.620 N 
ATOM     20  H   LIG    1       -3.127   5.222   0.058  0.00  0.00    +0.430 HD
ATOM     21  C   LIG    1       -1.127   5.478   0.041  0.00  0.00    +0.550 C 
ATOM     22  O   LIG    1       -0.235   6.299   0.036  0.00  0.00    -0.500 OA
BRANCH  19  26
ATOM     23  C   LIG    1       -2.127  10.856   0.077  0.00  0.00    +0.190 C 
ATOM     24  C   LIG    1       -2.585   9.421   0.074  0.00  0.00    -0.020 A 
ATOM     25  C   LIG    1       -1.798   8.321   0.061  0.00  0.00    -0.040 A 
ATOM     26  C   LIG    1       -2.719   7.240   0.064  0.00  0.00    +0.240 A 
ATOM     27  N   LIG    1       -3.911   7.777   0.072  0.00  0.00    -0.380 NA
ATOM     28  O   LIG    1       -3.853   8.984   0.083  0.00  0.00    +0.100 OA
ENDBRANCH  19  26
ENDBRANCH  18  21
ENDBRANCH  17  18
ENDBRANCH   1  17
TORSDOF 5
