REMARK  Name = ZINCrD0000073cl0.0
REMARK                            x       y       z     vdW  Elec       q    Type
REMARK                         _______ _______ _______ _____ _____    ______ ____
ROOT
ATOM      1  C   LIG    1       -2.682   7.398  -0.156  0.00  0.00    +0.170 C 
ATOM      2  C   LIG    1       -2.871   8.799   0.483  0.00  0.00    +0.100 C 
ATOM      3  C   LIG    1       -1.475   9.440   0.335  0.00  0.00    +0.360 C 
ATOM      4  N   LIG    1       -0.506   8.345   0.179  0.00  0.00    -0.600 N 
ATOM      5  C   LIG    1        0.822   8.490  -0.000  0.00  0.00    +0.630 C 
ATOM      6  O   LIG    1        1.299   9.601  -0.144  0.00  0.00    -0.500 OA
ATOM      7  C   LIG    1       -1.227   7.061   0.257  0.00  0.00    +0.260 C 
ENDROOT
BRANCH   3   8
ATOM      8  C   LIG    1       -1.447  10.326  -0.883  0.00  0.00    +0.150 A 
ATOM      9  N   LIG    1       -1.407   9.931  -2.124  0.00  0.00    -0.270 NA
ATOM     10  N   LIG    1       -1.394  10.957  -2.899  0.00  0.00    -0.290 NA
ATOM     11  C   LIG    1       -1.426  12.043  -2.180  0.00  0.00    +0.170 A 
ATOM     12  C   LIG    1       -1.425  13.457  -2.700  0.00  0.00    +0.240 C 
ATOM     13  O   LIG    1       -1.466  11.670  -0.890  0.00  0.00    -0.220 OA
ENDBRANCH   3   8
BRANCH   5  14
ATOM     14  C   LIG    1        1.689   7.314  -0.022  0.00  0.00    -0.060 A 
ATOM     15  C   LIG    1        3.065   7.323  -0.100  0.00  0.00    +0.080 A 
ATOM     16  C   LIG    1        3.477   5.987  -0.086  0.00  0.00    -0.020 A 
ATOM     17  C   LIG    1        2.354   5.221  -0.011  0.00  0.00    +0.180 A 
ATOM     18  O   LIG    1        1.283   6.026   0.031  0.00  0.00    -0.170 OA
BRANCH  17  19
ATOM     19  O   LIG    1        2.324   3.868   0.022  0.00  0.00    -0.200 OA
BRANCH  19  20
ATOM     20  C   LIG    1        1.942   3.211  -1.105  0.00  0.00    +0.100 A 
ATOM     21  C   LIG    1        1.996   1.825  -1.153  0.00  0.00    +0.010 A 
ATOM     22  C   LIG    1        1.607   1.159  -2.299  0.00  0.00    +0.060 A 
ATOM     23  C   LIG    1        1.171   1.873  -3.400  0.00  0.00    -0.010 A 
ATOM     24  C   LIG    1        1.113   3.254  -3.353  0.00  0.00    +0.050 A 
ATOM     25  C   LIG    1        1.500   3.924  -2.209  0.00  0.00    -0.050 A 
ENDBRANCH  19  20
ENDBRANCH  17  19
ENDBRANCH   5  14
BRANCH   1  27
ATOM     26  C   LIG    1       -3.788   5.286  -0.404  0.00  0.00    +0.220 C 
ATOM     27  O   LIG    1       -3.602   6.455   0.397  0.00  0.00    -0.370 OA
ENDBRANCH   1  27
TORSDOF 5
