REMARK  Name = ZINCc70000001nME.0
REMARK                            x       y       z     vdW  Elec       q    Type
REMARK                         _______ _______ _______ _____ _____    ______ ____
ROOT
ATOM      1  C   LIG    1        1.396   1.989  -0.001  0.00  0.00    +0.520 C 
ATOM      2  N   LIG    1        1.624   3.318   0.004  0.00  0.00    -0.720 N 
ATOM      3  H   LIG    1        0.878   3.938   0.015  0.00  0.00    +0.410 HD
ATOM      4  O   LIG    1        2.328   1.214  -0.014  0.00  0.00    -0.530 OA
ENDROOT
BRANCH   1   5
ATOM      5  C   LIG    1       -0.018   1.468   0.010  0.00  0.00    +0.240 C 
BRANCH   5   7
ATOM      6  N   LIG    1        0.018  -1.140  -0.004  0.00  0.00    -0.410 NA
ATOM      7  C   LIG    1        0.002  -0.004   0.002  0.00  0.00    +0.210 C 
ENDBRANCH   5   7
ENDBRANCH   1   5
BRANCH   2   8
ATOM      8  C   LIG    1        2.999   3.825  -0.006  0.00  0.00    +0.280 C 
BRANCH   8   9
ATOM      9  C   LIG    1        2.978   5.355   0.002  0.00  0.00    +0.150 C 
ATOM     10  C   LIG    1        4.423   5.912  -0.044  0.00  0.00    +0.020 C 
ATOM     11  C   LIG    1        4.176   7.315  -0.667  0.00  0.00    +0.010 C 
ATOM     12  C   LIG    1        3.000   7.045  -1.629  0.00  0.00    +0.190 C 
ATOM     13  O   LIG    1        2.344   5.851  -1.187  0.00  0.00    -0.380 OA
ENDBRANCH   8   9
ENDBRANCH   2   8
TORSDOF 4
