REMARK  Name = ZINCrH00000No4U8.0
REMARK                            x       y       z     vdW  Elec       q    Type
REMARK                         _______ _______ _______ _____ _____    ______ ____
ROOT
ATOM      1  N   LIG    1        0.506   3.974   1.247  0.00  0.00    -0.480 N 
ENDROOT
BRANCH   1   5
ATOM      2  C   LIG    1       -1.321   1.177   4.114  0.00  0.00    +0.230 A 
ATOM      3  C   LIG    1       -0.431   1.962   3.485  0.00  0.00    -0.010 A 
ATOM      4  C   LIG    1       -1.130   2.571   2.355  0.00  0.00    -0.150 A 
ATOM      5  C   LIG    1       -0.777   3.465   1.332  0.00  0.00    +0.420 A 
ATOM      6  N   LIG    1       -1.709   3.814   0.450  0.00  0.00    -0.560 NA
ATOM      7  C   LIG    1       -2.934   3.326   0.524  0.00  0.00    +0.520 A 
ATOM      8  N   LIG    1       -3.309   2.486   1.465  0.00  0.00    -0.540 NA
ATOM      9  C   LIG    1       -2.449   2.081   2.398  0.00  0.00    +0.320 A 
ATOM     10  N   LIG    1       -2.531   1.241   3.474  0.00  0.00    -0.580 N 
ATOM     11  H   LIG    1       -3.329   0.760   3.744  0.00  0.00    +0.420 HD
ENDBRANCH   1   5
BRANCH   1  12
ATOM     12  C   LIG    1        0.513   5.425   1.479  0.00  0.00    +0.320 C 
BRANCH  12  13
ATOM     13  C   LIG    1        0.243   5.703   2.935  0.00  0.00    +0.020 A 
ATOM     14  N   LIG    1       -0.922   5.774   3.513  0.00  0.00    -0.350 NA
ATOM     15  O   LIG    1       -0.819   6.010   4.694  0.00  0.00    +0.100 OA
ATOM     16  C   LIG    1        0.464   6.130   5.063  0.00  0.00    -0.000 A 
ATOM     17  C   LIG    1        1.204   5.931   3.946  0.00  0.00    -0.040 A 
BRANCH  16  18
ATOM     18  C   LIG    1        0.981   6.421   6.448  0.00  0.00    +0.050 C 
ATOM     19  C   LIG    1       -0.029   6.401   7.598  0.00  0.00    +0.040 C 
ATOM     20  C   LIG    1        0.543   7.732   7.105  0.00  0.00    +0.050 C 
ENDBRANCH  16  18
ENDBRANCH  12  13
ENDBRANCH   1  12
BRANCH   1  21
ATOM     21  C   LIG    1        1.119   3.645  -0.046  0.00  0.00    +0.230 C 
BRANCH  21  22
ATOM     22  C   LIG    1        1.467   2.155  -0.081  0.00  0.00    +0.180 C 
BRANCH  22  23
ATOM     23  O   LIG    1        0.265   1.384  -0.051  0.00  0.00    -0.370 OA
BRANCH  23  24
ATOM     24  C   LIG    1        0.479  -0.028  -0.080  0.00  0.00    +0.150 C 
ATOM     25  C   LIG    1        0.456  -0.537  -1.536  0.00  0.00    -0.010 C 
ATOM     26  C   LIG    1       -0.246  -1.915  -1.445  0.00  0.00    +0.020 C 
ATOM     27  C   LIG    1       -1.341  -1.672  -0.377  0.00  0.00    +0.010 C 
ATOM     28  C   LIG    1       -0.662  -0.750   0.657  0.00  0.00    +0.020 C 
ENDBRANCH  23  24
ENDBRANCH  22  23
ENDBRANCH  21  22
ENDBRANCH   1  21
TORSDOF 8
