REMARK  Name = ZINCqH00000064DU.0
REMARK                            x       y       z     vdW  Elec       q    Type
REMARK                         _______ _______ _______ _____ _____    ______ ____
ROOT
ATOM      1  N   LIG    1        2.102  -0.841   0.230  0.00  0.00    -0.650 N 
ATOM      2  H   LIG    1        2.148   0.121   0.350  0.00  0.00    +0.420 HD
ATOM      3  C   LIG    1        3.235  -1.569   0.183  0.00  0.00    +0.710 C 
ATOM      4  N   LIG    1        4.427  -0.975   0.390  0.00  0.00    -0.620 N 
ATOM      5  C   LIG    1        4.491   0.462   0.666  0.00  0.00    +0.290 C 
ATOM      6  O   LIG    1        3.181  -2.762  -0.046  0.00  0.00    -0.550 OA
ENDROOT
BRANCH   1   8
ATOM      7  C   LIG    1       -0.338  -0.824   0.289  0.00  0.00    -0.350 A 
ATOM      8  C   LIG    1        0.863  -1.470   0.106  0.00  0.00    +0.270 A 
ATOM      9  C   LIG    1        0.714  -2.806  -0.210  0.00  0.00    +0.010 A 
ATOM     10  C   LIG    1       -0.550  -3.232  -0.291  0.00  0.00    -0.020 A 
ATOM     11  S   LIG    1       -1.649  -1.968   0.035  0.00  0.00    +0.260 S 
BRANCH   7  12
ATOM     12  C   LIG    1       -0.494   0.541   0.623  0.00  0.00    +0.550 C 
ATOM     13  O   LIG    1        0.487   1.246   0.776  0.00  0.00    -0.530 OA
BRANCH  12  15
ATOM     14  C   LIG    1       -1.813   2.451   1.103  0.00  0.00    +0.260 C 
ATOM     15  O   LIG    1       -1.730   1.065   0.766  0.00  0.00    -0.350 OA
ENDBRANCH  12  15
ENDBRANCH   7  12
ENDBRANCH   1   8
BRANCH   4  16
ATOM     16  C   LIG    1        5.658  -1.767   0.339  0.00  0.00    +0.370 C 
BRANCH  16  17
ATOM     17  C   LIG    1        6.131  -1.869  -1.089  0.00  0.00    -0.110 A 
ATOM     18  C   LIG    1        5.517  -1.123  -2.075  0.00  0.00    +0.030 A 
ATOM     19  C   LIG    1        5.950  -1.216  -3.385  0.00  0.00    -0.020 A 
ATOM     20  C   LIG    1        6.998  -2.056  -3.712  0.00  0.00    +0.020 A 
ATOM     21  C   LIG    1        7.617  -2.805  -2.730  0.00  0.00    -0.040 A 
ATOM     22  C   LIG    1        7.188  -2.710  -1.413  0.00  0.00    +0.110 A 
BRANCH  22  23
ATOM     23  N   LIG    1        7.815  -3.462  -0.417  0.00  0.00    -0.470 N 
ATOM     24  C   LIG    1        8.933  -4.262  -0.978  0.00  0.00    +0.180 C 
ATOM     25  C   LIG    1        9.800  -4.581   0.266  0.00  0.00    +0.030 C 
ATOM     26  C   LIG    1        9.705  -3.281   1.097  0.00  0.00    +0.020 C 
ATOM     27  C   LIG    1        8.421  -2.585   0.608  0.00  0.00    +0.170 C 
ENDBRANCH  22  23
ENDBRANCH  16  17
ENDBRANCH   4  16
TORSDOF 6
