REMARK  Name = ZINCpe00000FUk5U.0
REMARK                            x       y       z     vdW  Elec       q    Type
REMARK                         _______ _______ _______ _____ _____    ______ ____
ROOT
ATOM      1  C   LIG    1       -3.841   1.859   0.036  0.00  0.00    +0.300 C 
ATOM      2  C   LIG    1       -4.871   0.710   0.003  0.00  0.00    +0.050 C 
ATOM      3  C   LIG    1       -4.058  -0.470  -0.592  0.00  0.00    +0.040 C 
ATOM      4  C   LIG    1       -2.655  -0.218   0.014  0.00  0.00    +0.270 C 
ATOM      5  N   LIG    1       -2.504   1.248   0.021  0.00  0.00    -0.580 N 
ENDROOT
BRANCH   5   6
ATOM      6  C   LIG    1       -1.294   1.942   0.019  0.00  0.00    +0.340 A 
ATOM      7  N   LIG    1       -1.276   3.249   0.031  0.00  0.00    -0.270 NA
ATOM      8  N   LIG    1       -0.053   3.929   0.023  0.00  0.00    -0.430 N 
ATOM      9  C   LIG    1        1.112   3.258   0.009  0.00  0.00    +0.670 A 
ATOM     10  N   LIG    1        1.139   1.912   0.002  0.00  0.00    -0.550 N 
ATOM     11  C   LIG    1        2.423   1.207  -0.015  0.00  0.00    +0.350 C 
ATOM     12  O   LIG    1        2.159   3.877   0.002  0.00  0.00    -0.540 OA
ATOM     13  C   LIG    1       -0.042   5.394   0.031  0.00  0.00    +0.370 C 
ATOM     14  C   LIG    1       -0.014   1.213   0.009  0.00  0.00    +0.530 A 
ATOM     15  O   LIG    1        0.002  -0.004   0.002  0.00  0.00    -0.480 OA
ENDBRANCH   5   6
BRANCH   1  20
ATOM     16  C   LIG    1       -3.372   3.189   3.542  0.00  0.00    +0.090 A 
ATOM     17  C   LIG    1       -4.347   4.173   3.599  0.00  0.00    -0.040 A 
ATOM     18  C   LIG    1       -5.157   4.407   2.505  0.00  0.00    -0.040 A 
ATOM     19  C   LIG    1       -4.991   3.661   1.347  0.00  0.00    +0.110 A 
ATOM     20  C   LIG    1       -4.018   2.673   1.292  0.00  0.00    -0.080 A 
ATOM     21  C   LIG    1       -3.208   2.440   2.386  0.00  0.00    +0.040 A 
BRANCH  16  23
ATOM     22  C   LIG    1       -2.797   3.768   5.776  0.00  0.00    +0.230 C 
ATOM     23  O   LIG    1       -2.574   2.959   4.619  0.00  0.00    -0.320 OA
ENDBRANCH  16  23
BRANCH  19  24
ATOM     24  O   LIG    1       -5.785   3.894   0.268  0.00  0.00    -0.310 OA
ATOM     25  C   LIG    1       -6.765   4.926   0.395  0.00  0.00    +0.230 C 
ENDBRANCH  19  24
ENDBRANCH   1  20
TORSDOF 4
