REMARK  Name = ZINCrH000004o2SB.0
REMARK                            x       y       z     vdW  Elec       q    Type
REMARK                         _______ _______ _______ _____ _____    ______ ____
ROOT
ATOM      1  C   LIG    1       -0.864   3.520   1.218  0.00  0.00    +0.510 C 
ATOM      2  N   LIG    1       -1.466   4.179   2.228  0.00  0.00    -0.610 N 
ATOM      3  C   LIG    1       -2.006   3.448   3.382  0.00  0.00    +0.270 C 
ATOM      4  C   LIG    1       -1.414   4.053   4.664  0.00  0.00    +0.030 C 
ATOM      5  C   LIG    1       -1.692   5.558   4.687  0.00  0.00    -0.020 C 
ATOM      6  C   LIG    1       -1.017   6.222   3.485  0.00  0.00    +0.030 C 
ATOM      7  C   LIG    1       -3.202   5.798   4.620  0.00  0.00    +0.030 C 
ATOM      8  C   LIG    1       -1.599   5.642   2.192  0.00  0.00    +0.270 C 
ATOM      9  O   LIG    1       -0.426   4.134   0.269  0.00  0.00    -0.520 OA
ENDROOT
BRANCH   5  10
ATOM     10  C   LIG    1       -1.146   6.150   5.961  0.00  0.00    -0.070 A 
ATOM     11  C   LIG    1       -0.177   7.134   5.905  0.00  0.00    +0.000 A 
ATOM     12  C   LIG    1        0.320   7.681   7.073  0.00  0.00    +0.000 A 
ATOM     13  C   LIG    1       -0.143   7.236   8.297  0.00  0.00    +0.000 A 
ATOM     14  C   LIG    1       -1.108   6.247   8.353  0.00  0.00    +0.000 A 
ATOM     15  C   LIG    1       -1.609   5.704   7.184  0.00  0.00    +0.000 A 
ENDBRANCH   5  10
BRANCH   1  16
ATOM     16  C   LIG    1       -0.735   2.019   1.269  0.00  0.00    +0.060 C 
BRANCH  16  18
ATOM     17  C   LIG    1        0.002  -0.004   0.002  0.00  0.00    +0.040 C 
ATOM     18  C   LIG    1       -0.019   1.526   0.010  0.00  0.00    +0.260 C 
BRANCH  18  19
ATOM     19  N   LIG    1        1.356   2.033   0.000  0.00  0.00    -0.710 N 
ATOM     20  H   LIG    1        1.793   2.265   0.834  0.00  0.00    +0.400 HD
ATOM     21  C   LIG    1        2.012   2.177  -1.168  0.00  0.00    +0.570 C 
ATOM     22  O   LIG    1        1.464   1.886  -2.213  0.00  0.00    -0.540 OA
BRANCH  21  23
ATOM     23  C   LIG    1        3.399   2.689  -1.179  0.00  0.00    -0.130 A 
ATOM     24  C   LIG    1        4.030   3.029   0.019  0.00  0.00    +0.030 A 
ATOM     25  C   LIG    1        5.326   3.502   0.003  0.00  0.00    +0.000 A 
ATOM     26  C   LIG    1        5.997   3.648  -1.199  0.00  0.00    +0.030 A 
ATOM     27  C   LIG    1        5.375   3.317  -2.390  0.00  0.00    +0.000 A 
ATOM     28  C   LIG    1        4.082   2.839  -2.387  0.00  0.00    +0.080 A 
ENDBRANCH  21  23
ENDBRANCH  18  19
ENDBRANCH  16  18
ENDBRANCH   1  16
TORSDOF 5
