REMARK  Name = ZINCpe00000MJKTF.0
REMARK                            x       y       z     vdW  Elec       q    Type
REMARK                         _______ _______ _______ _____ _____    ______ ____
ROOT
ATOM      1  C   LIG    1       -2.403   9.587  -0.127  0.00  0.00    +0.160 C 
ATOM      2  C   LIG    1       -3.929   9.662  -0.341  0.00  0.00    +0.080 C 
ATOM      3  C   LIG    1       -4.300   8.205  -0.728  0.00  0.00    +0.050 C 
ATOM      4  C   LIG    1       -3.313   7.391   0.145  0.00  0.00    +0.270 C 
ATOM      5  N   LIG    1       -2.069   8.181   0.146  0.00  0.00    -0.590 N 
ATOM      6  C   LIG    1       -0.830   7.697   0.366  0.00  0.00    +0.550 C 
ATOM      7  O   LIG    1        0.113   8.457   0.451  0.00  0.00    -0.470 OA
ENDROOT
BRANCH   6   8
ATOM      8  C   LIG    1       -0.620   6.235   0.503  0.00  0.00    +0.170 A 
ATOM      9  C   LIG    1       -1.686   5.443   0.780  0.00  0.00    -0.120 A 
ATOM     10  C   LIG    1       -1.510   4.040   0.917  0.00  0.00    +0.420 A 
ATOM     11  C   LIG    1       -0.152   3.497   0.749  0.00  0.00    -0.200 A 
ATOM     12  C   LIG    1        0.103   2.130   0.862  0.00  0.00    +0.110 A 
ATOM     13  C   LIG    1        1.378   1.663   0.704  0.00  0.00    -0.030 A 
ATOM     14  C   LIG    1        2.419   2.537   0.421  0.00  0.00    +0.090 A 
ATOM     15  C   LIG    1        2.189   3.890   0.300  0.00  0.00    -0.030 A 
ATOM     16  C   LIG    1        0.899   4.388   0.463  0.00  0.00    +0.200 A 
ATOM     17  O   LIG    1       -2.454   3.309   1.166  0.00  0.00    -0.480 OA
ATOM     18  N   LIG    1        0.640   5.733   0.347  0.00  0.00    -0.590 N 
ATOM     19  H   LIG    1        1.370   6.341   0.149  0.00  0.00    +0.430 HD
ENDBRANCH   6   8
BRANCH   1  23
ATOM     20  C   LIG    1        0.028   9.776  -3.077  0.00  0.00    +0.270 C 
ATOM     21  N   LIG    1       -0.611   9.380  -1.819  0.00  0.00    -0.720 N 
ATOM     22  H   LIG    1       -0.257   8.634  -1.310  0.00  0.00    +0.400 HD
ATOM     23  C   LIG    1       -1.690  10.051  -1.371  0.00  0.00    +0.530 C 
ATOM     24  O   LIG    1       -2.088  11.028  -1.969  0.00  0.00    -0.540 OA
ENDBRANCH   1  23
BRANCH   1  25
ATOM     25  C   LIG    1       -1.998  10.458   1.064  0.00  0.00    +0.200 C 
BRANCH  25  26
ATOM     26  O   LIG    1       -0.586  10.368   1.261  0.00  0.00    -0.350 OA
ATOM     27  C   LIG    1       -0.101  11.150   2.356  0.00  0.00    +0.200 C 
ENDBRANCH  25  26
ENDBRANCH   1  25
TORSDOF 4
