REMARK  Name = ZINCrD000000BvOW.0
REMARK                            x       y       z     vdW  Elec       q    Type
REMARK                         _______ _______ _______ _____ _____    ______ ____
ROOT
ATOM      1  O   LIG    1        2.870   6.339   2.470  0.00  0.00    -0.520 OA
ATOM      2  C   LIG    1        3.906   6.283   1.841  0.00  0.00    +0.520 C 
ATOM      3  N   LIG    1        5.083   6.495   2.461  0.00  0.00    -0.720 N 
ATOM      4  H   LIG    1        5.912   6.451   1.958  0.00  0.00    +0.400 HD
ENDROOT
BRANCH   2   5
ATOM      5  C   LIG    1        3.876   5.977   0.365  0.00  0.00    +0.020 C 
ATOM      6  C   LIG    1        4.642   4.670   0.056  0.00  0.00    +0.100 C 
ATOM      7  C   LIG    1        3.573   3.599   0.083  0.00  0.00    +0.520 C 
ATOM      8  N   LIG    1        2.354   4.160   0.002  0.00  0.00    -0.550 N 
ATOM      9  O   LIG    1        3.786   2.408   0.166  0.00  0.00    -0.500 OA
ATOM     10  C   LIG    1        2.446   5.621  -0.103  0.00  0.00    +0.320 C 
BRANCH   8  11
ATOM     11  C   LIG    1        1.153   3.443   0.009  0.00  0.00    +0.230 A 
ATOM     12  C   LIG    1        1.172   2.054  -0.014  0.00  0.00    -0.040 A 
ATOM     13  C   LIG    1       -0.017   1.347  -0.006  0.00  0.00    +0.160 A 
ATOM     14  C   LIG    1       -1.225   2.022   0.019  0.00  0.00    -0.070 A 
ATOM     15  C   LIG    1       -1.246   3.407   0.048  0.00  0.00    +0.160 A 
ATOM     16  F   LIG    1       -2.427   4.063   0.077  0.00  0.00    -0.130 F 
ATOM     17  F   LIG    1        0.002  -0.004  -0.029  0.00  0.00    -0.120 F 
ATOM     18  C   LIG    1       -0.060   4.118   0.040  0.00  0.00    -0.050 A 
ENDBRANCH   8  11
ENDBRANCH   2   5
BRANCH   3  19
ATOM     19  C   LIG    1        5.112   6.792   3.895  0.00  0.00    +0.360 C 
BRANCH  19  20
ATOM     20  C   LIG    1        6.540   6.986   4.340  0.00  0.00    -0.210 A 
ATOM     21  C   LIG    1        7.315   6.092   4.968  0.00  0.00    +0.250 A 
ATOM     22  O   LIG    1        8.530   6.616   5.202  0.00  0.00    -0.190 OA
ATOM     23  C   LIG    1        8.604   7.883   4.747  0.00  0.00    +0.050 A 
ATOM     24  C   LIG    1        9.609   8.841   4.747  0.00  0.00    +0.030 A 
ATOM     25  C   LIG    1        9.379  10.081   4.191  0.00  0.00    +0.050 A 
ATOM     26  C   LIG    1        8.148  10.387   3.629  0.00  0.00    +0.000 A 
ATOM     27  C   LIG    1        7.137   9.451   3.618  0.00  0.00    +0.060 A 
ATOM     28  C   LIG    1        7.358   8.194   4.176  0.00  0.00    -0.120 A 
ENDBRANCH  19  20
ENDBRANCH   3  19
TORSDOF 4
