REMARK  Name = ZINCqH0000005BnG.0
REMARK                            x       y       z     vdW  Elec       q    Type
REMARK                         _______ _______ _______ _____ _____    ______ ____
ROOT
ATOM      1  N   LIG    1       -3.264  -2.321   0.017  0.00  0.00    -0.660 N 
ATOM      2  H   LIG    1       -3.844  -1.729  -0.487  0.00  0.00    +0.420 HD
ATOM      3  C   LIG    1       -2.303  -1.808   0.811  0.00  0.00    +0.540 C 
ATOM      4  O   LIG    1       -1.639  -2.543   1.512  0.00  0.00    -0.500 OA
ENDROOT
BRANCH   1   8
ATOM      5  C   LIG    1       -3.742  -6.454  -0.275  0.00  0.00    +0.140 A 
ATOM      6  C   LIG    1       -4.849  -5.619  -0.354  0.00  0.00    +0.030 A 
ATOM      7  C   LIG    1       -4.691  -4.251  -0.258  0.00  0.00    +0.000 A 
ATOM      8  C   LIG    1       -3.424  -3.709  -0.081  0.00  0.00    +0.140 A 
ATOM      9  C   LIG    1       -2.317  -4.544  -0.006  0.00  0.00    +0.040 A 
ATOM     10  C   LIG    1       -2.476  -5.912  -0.098  0.00  0.00    +0.050 A 
BRANCH   5  12
ATOM     11  C   LIG    1       -3.275  -8.525  -1.351  0.00  0.00    +0.650 C 
ATOM     12  N   LIG    1       -3.902  -7.842  -0.373  0.00  0.00    -0.550 N 
ATOM     13  C   LIG    1       -4.752  -8.551   0.586  0.00  0.00    +0.310 C 
ATOM     14  O   LIG    1       -2.643  -7.928  -2.200  0.00  0.00    -0.550 OA
BRANCH  11  16
ATOM     15  C   LIG    1       -2.648 -10.539  -2.469  0.00  0.00    +0.300 C 
ATOM     16  O   LIG    1       -3.349  -9.869  -1.388  0.00  0.00    -0.370 OA
ENDBRANCH  11  16
ENDBRANCH   5  12
ENDBRANCH   1   8
BRANCH   3  17
ATOM     17  C   LIG    1       -2.054  -0.322   0.830  0.00  0.00    +0.080 C 
BRANCH  17  18
ATOM     18  S   LIG    1       -0.713   0.051   1.986  0.00  0.00    +0.170 S 
BRANCH  18  19
ATOM     19  C   LIG    1       -0.637   1.803   1.812  0.00  0.00    +0.200 A 
ATOM     20  N   LIG    1        0.194   2.586   2.452  0.00  0.00    -0.450 NA
ATOM     21  C   LIG    1       -0.034   3.872   2.069  0.00  0.00    +0.030 A 
ATOM     22  C   LIG    1        0.539   5.096   2.415  0.00  0.00    +0.080 A 
ATOM     23  C   LIG    1        0.074   6.256   1.835  0.00  0.00    +0.020 A 
ATOM     24  C   LIG    1       -0.958   6.213   0.911  0.00  0.00    +0.050 A 
ATOM     25  C   LIG    1       -1.534   5.008   0.560  0.00  0.00    +0.050 A 
ATOM     26  C   LIG    1       -1.079   3.833   1.133  0.00  0.00    +0.010 A 
ATOM     27  O   LIG    1       -1.421   2.531   0.997  0.00  0.00    -0.210 OA
ENDBRANCH  18  19
ENDBRANCH  17  18
ENDBRANCH   3  17
TORSDOF 6
