REMARK  Name = ZINCAx0000000iSR.0
REMARK                            x       y       z     vdW  Elec       q    Type
REMARK                         _______ _______ _______ _____ _____    ______ ____
ROOT
ATOM      1  N   LIG    1        0.692  -0.086   3.086  0.00  0.00    -0.520 N 
ATOM      2  H   LIG    1        1.596  -0.436   3.042  0.00  0.00    +0.430 HD
ATOM      3  C   LIG    1        0.122   0.160   4.282  0.00  0.00    +0.500 C 
ATOM      4  O   LIG    1       -1.008   0.598   4.337  0.00  0.00    -0.520 OA
ENDROOT
BRANCH   1   6
ATOM      5  C   LIG    1        0.550  -0.081   0.709  0.00  0.00    +0.520 C 
ATOM      6  N   LIG    1       -0.020   0.165   1.906  0.00  0.00    -0.520 N 
ATOM      7  H   LIG    1       -0.924   0.515   1.950  0.00  0.00    +0.430 HD
ATOM      8  O   LIG    1        1.679  -0.519   0.654  0.00  0.00    -0.510 OA
BRANCH   5  10
ATOM      9  C   LIG    1       -0.481   1.691  -0.687  0.00  0.00    +0.060 C 
ATOM     10  C   LIG    1       -0.216   0.189  -0.560  0.00  0.00    +0.190 C 
BRANCH  10  11
ATOM     11  O   LIG    1        0.548  -0.256  -1.682  0.00  0.00    -0.280 OA
BRANCH  11  12
ATOM     12  C   LIG    1       -0.139  -0.572  -2.811  0.00  0.00    +0.130 A 
ATOM     13  C   LIG    1        0.526  -1.107  -3.877  0.00  0.00    -0.010 A 
ATOM     14  C   LIG    1       -0.183  -1.433  -5.045  0.00  0.00    -0.010 A 
ATOM     15  C   LIG    1        0.467  -1.986  -6.162  0.00  0.00    +0.020 A 
ATOM     16  C   LIG    1       -0.252  -2.291  -7.277  0.00  0.00    +0.030 A 
ATOM     17  C   LIG    1       -1.626  -2.063  -7.329  0.00  0.00    -0.010 A 
ATOM     18  C   LIG    1       -2.289  -1.529  -6.267  0.00  0.00    +0.030 A 
ATOM     19  C   LIG    1       -1.581  -1.202  -5.098  0.00  0.00    -0.080 A 
ATOM     20  C   LIG    1       -2.232  -0.648  -3.982  0.00  0.00    +0.070 A 
ATOM     21  C   LIG    1       -1.518  -0.349  -2.864  0.00  0.00    -0.070 A 
ENDBRANCH  11  12
ENDBRANCH  10  11
ENDBRANCH   5  10
ENDBRANCH   1   6
BRANCH   3  22
ATOM     22  C   LIG    1        0.888  -0.110   5.551  0.00  0.00    +0.360 C 
BRANCH  22  23
ATOM     23  N   LIG    1        0.057   0.236   6.707  0.00  0.00    -0.600 N 
ATOM     24  C   LIG    1        0.009   1.516   7.137  0.00  0.00    +0.580 C 
ATOM     25  C   LIG    1       -0.844   1.885   8.281  0.00  0.00    -0.170 A 
ATOM     26  C   LIG    1       -0.680   3.080   8.974  0.00  0.00    +0.110 A 
ATOM     27  C   LIG    1       -1.521   3.376  10.028  0.00  0.00    +0.000 A 
ATOM     28  C   LIG    1       -2.525   2.497  10.401  0.00  0.00    +0.080 A 
ATOM     29  C   LIG    1       -2.697   1.301   9.725  0.00  0.00    +0.000 A 
ATOM     30  C   LIG    1       -1.859   0.990   8.677  0.00  0.00    +0.200 A 
ATOM     31  N   LIG    1       -1.928  -0.208   7.963  0.00  0.00    -0.560 N 
ATOM     32  C   LIG    1       -3.010  -0.940   7.687  0.00  0.00    +0.530 C 
ATOM     33  C   LIG    1       -2.695  -1.985   6.645  0.00  0.00    +0.090 C 
ATOM     34  C   LIG    1       -1.177  -1.887   6.399  0.00  0.00    +0.060 C 
ATOM     35  O   LIG    1       -4.097  -0.785   8.202  0.00  0.00    -0.500 OA
ATOM     36  O   LIG    1        0.673   2.368   6.577  0.00  0.00    -0.520 OA
ATOM     37  C   LIG    1       -0.717  -0.807   7.378  0.00  0.00    +0.380 C 
ATOM     38  C   LIG    1        0.125  -1.446   8.484  0.00  0.00    +0.070 C 
ENDBRANCH  22  23
ENDBRANCH   3  22
TORSDOF 6
