REMARK  Name = ZINCtj00001UqOo6.0
REMARK                            x       y       z     vdW  Elec       q    Type
REMARK                         _______ _______ _______ _____ _____    ______ ____
ROOT
ATOM      1  C   LIG    1       -2.969   4.037  -3.237  0.00  0.00    +0.030 A 
ATOM      2  C   LIG    1       -1.983   3.507  -2.469  0.00  0.00    +0.170 A 
ATOM      3  N   LIG    1       -2.383   2.267  -2.087  0.00  0.00    -0.380 N 
ATOM      4  N   LIG    1       -3.647   2.031  -2.644  0.00  0.00    -0.280 NA
ATOM      5  C   LIG    1       -4.000   3.090  -3.326  0.00  0.00    +0.270 A 
ENDROOT
BRANCH   3   6
ATOM      6  C   LIG    1       -1.624   1.337  -1.247  0.00  0.00    +0.300 C 
ATOM      7  C   LIG    1       -0.101   1.484  -1.502  0.00  0.00    +0.070 C 
ATOM      8  C   LIG    1        0.488   0.999  -0.154  0.00  0.00    +0.260 C 
ATOM      9  N   LIG    1       -0.445   1.500   0.871  0.00  0.00    -0.610 N 
ATOM     10  C   LIG    1       -0.142   1.731   2.164  0.00  0.00    +0.530 C 
ATOM     11  O   LIG    1       -0.964   2.235   2.899  0.00  0.00    -0.480 OA
ATOM     12  C   LIG    1       -1.762   1.706   0.245  0.00  0.00    +0.270 C 
BRANCH  10  13
ATOM     13  C   LIG    1        1.219   1.363   2.696  0.00  0.00    -0.010 C 
ATOM     14  C   LIG    1        1.736   2.322   3.781  0.00  0.00    +0.120 C 
ATOM     15  C   LIG    1        3.120   2.197   3.119  0.00  0.00    +0.060 C 
ATOM     16  C   LIG    1        2.379   1.857   1.815  0.00  0.00    +0.090 C 
BRANCH  13  17
ATOM     17  N   LIG    1        1.323  -0.055   3.066  0.00  0.00    -0.360 N 
ATOM     18  C   LIG    1        1.168  -0.886   1.865  0.00  0.00    +0.320 C 
ATOM     19  C   LIG    1        0.267  -0.388   4.031  0.00  0.00    +0.330 C 
ATOM     20  H   LIG    1        2.226  -0.229   3.481  0.00  0.00    +0.430 HD
ENDBRANCH  13  17
ENDBRANCH  10  13
ENDBRANCH   3   6
BRANCH   1  22
ATOM     21  C   LIG    1       -4.008   5.713  -4.580  0.00  0.00    +0.520 C 
ATOM     22  N   LIG    1       -2.958   5.309  -3.838  0.00  0.00    -0.650 N 
ATOM     23  H   LIG    1       -2.195   5.896  -3.719  0.00  0.00    +0.410 HD
ATOM     24  O   LIG    1       -4.963   4.980  -4.730  0.00  0.00    -0.500 OA
BRANCH  21  25
ATOM     25  C   LIG    1       -3.997   7.076  -5.224  0.00  0.00    +0.170 C 
BRANCH  25  29
ATOM     26  C   LIG    1       -7.742   6.347  -8.473  0.00  0.00    +0.170 C 
ATOM     27  C   LIG    1       -6.886   6.959  -7.394  0.00  0.00    +0.210 A 
ATOM     28  N   LIG    1       -5.757   6.476  -6.953  0.00  0.00    -0.460 NA
ATOM     29  C   LIG    1       -5.277   7.280  -5.992  0.00  0.00    +0.010 A 
ATOM     30  C   LIG    1       -6.138   8.304  -5.837  0.00  0.00    +0.130 A 
ATOM     31  N   LIG    1       -7.159   8.101  -6.726  0.00  0.00    -0.570 N 
ATOM     32  H   LIG    1       -7.934   8.671  -6.853  0.00  0.00    +0.420 HD
ENDBRANCH  25  29
ENDBRANCH  21  25
ENDBRANCH   1  22
TORSDOF 6
