REMARK  Name = ZINCrg00000SjSHb.0
REMARK                            x       y       z     vdW  Elec       q    Type
REMARK                         _______ _______ _______ _____ _____    ______ ____
ROOT
ATOM      1  N   LIG    1       -1.953   0.575  -4.068  0.00  0.00    -0.390 N 
ATOM      2  C   LIG    1       -0.987   1.384  -3.590  0.00  0.00    +0.290 A 
ATOM      3  N   LIG    1       -0.932   2.478  -4.307  0.00  0.00    -0.490 NA
ATOM      4  C   LIG    1       -1.855   2.433  -5.271  0.00  0.00    +0.320 A 
ATOM      5  N   LIG    1       -2.225   3.299  -6.287  0.00  0.00    -0.510 N 
ATOM      6  C   LIG    1       -1.532   4.580  -6.446  0.00  0.00    +0.340 C 
ATOM      7  C   LIG    1       -3.223   2.966  -7.128  0.00  0.00    +0.710 A 
ATOM      8  O   LIG    1       -3.534   3.739  -8.014  0.00  0.00    -0.530 OA
ATOM      9  N   LIG    1       -3.882   1.801  -7.014  0.00  0.00    -0.550 N 
ATOM     10  C   LIG    1       -4.960   1.486  -7.956  0.00  0.00    +0.350 C 
ATOM     11  C   LIG    1       -3.567   0.916  -6.045  0.00  0.00    +0.590 A 
ATOM     12  O   LIG    1       -4.173  -0.137  -5.952  0.00  0.00    -0.510 OA
ATOM     13  C   LIG    1       -2.528   1.225  -5.141  0.00  0.00    -0.150 A 
ENDROOT
BRANCH   1  14
ATOM     14  C   LIG    1       -2.324  -0.742  -3.545  0.00  0.00    +0.310 C 
BRANCH  14  15
ATOM     15  C   LIG    1       -3.410  -0.580  -2.479  0.00  0.00    +0.020 C 
BRANCH  15  17
ATOM     16  C   LIG    1       -4.792  -1.785  -0.783  0.00  0.00    +0.020 C 
ATOM     17  C   LIG    1       -3.798  -1.955  -1.933  0.00  0.00    -0.020 C 
ATOM     18  C   LIG    1       -4.444  -2.783  -3.047  0.00  0.00    +0.020 C 
ENDBRANCH  15  17
ENDBRANCH  14  15
ENDBRANCH   1  14
BRANCH   2  19
ATOM     19  C   LIG    1       -0.099   1.073  -2.413  0.00  0.00    +0.310 C 
BRANCH  19  20
ATOM     20  N   LIG    1       -0.725   1.574  -1.182  0.00  0.00    -0.530 NA
ATOM     21  C   LIG    1       -0.013   1.086   0.008  0.00  0.00    +0.160 C 
ATOM     22  C   LIG    1       -0.731   1.580   1.266  0.00  0.00    +0.160 C 
ATOM     23  O   LIG    1       -0.815   3.008   1.231  0.00  0.00    -0.370 OA
ATOM     24  C   LIG    1       -1.503   3.517   0.086  0.00  0.00    +0.200 C 
ATOM     25  C   LIG    1       -2.945   3.005   0.086  0.00  0.00    +0.020 C 
ATOM     26  C   LIG    1        0.051   1.144   2.506  0.00  0.00    +0.050 C 
ATOM     27  C   LIG    1       -0.792   3.042  -1.183  0.00  0.00    +0.160 C 
ENDBRANCH  19  20
ENDBRANCH   2  19
TORSDOF 5
