REMARK  Name = ZINCqH0000004UI2.0
REMARK                            x       y       z     vdW  Elec       q    Type
REMARK                         _______ _______ _______ _____ _____    ______ ____
ROOT
ATOM      1  C   LIG    1       -2.107   0.980   1.326  0.00  0.00    +0.600 C 
ATOM      2  N   LIG    1       -2.320  -0.195   0.701  0.00  0.00    -0.600 N 
ATOM      3  C   LIG    1       -3.651  -0.816   0.707  0.00  0.00    +0.270 C 
ATOM      4  C   LIG    1       -4.065  -1.109  -0.739  0.00  0.00    +0.010 C 
ATOM      5  C   LIG    1       -2.981  -1.952  -1.415  0.00  0.00    +0.020 C 
ATOM      6  C   LIG    1       -1.665  -1.171  -1.438  0.00  0.00    +0.050 C 
ATOM      7  C   LIG    1       -1.224  -0.878  -0.000  0.00  0.00    +0.320 C 
ATOM      8  O   LIG    1       -1.023   1.524   1.246  0.00  0.00    -0.500 OA
ENDROOT
BRANCH   7   9
ATOM      9  C   LIG    1       -0.004   0.007  -0.016  0.00  0.00    +0.310 A 
ATOM     10  N   LIG    1        0.122   1.089  -0.728  0.00  0.00    -0.470 NA
ATOM     11  C   LIG    1        1.342   1.641  -0.504  0.00  0.00    +0.070 A 
ATOM     12  C   LIG    1        1.988   2.780  -0.993  0.00  0.00    +0.050 A 
ATOM     13  C   LIG    1        3.250   3.082  -0.567  0.00  0.00    +0.000 A 
ATOM     14  C   LIG    1        3.902   2.268   0.348  0.00  0.00    +0.020 A 
ATOM     15  C   LIG    1        3.285   1.139   0.843  0.00  0.00    +0.010 A 
ATOM     16  C   LIG    1        2.002   0.817   0.423  0.00  0.00    +0.050 A 
ATOM     17  N   LIG    1        1.124  -0.209   0.712  0.00  0.00    -0.600 N 
ATOM     18  H   LIG    1        1.283  -0.946   1.322  0.00  0.00    +0.420 HD
ENDBRANCH   7   9
BRANCH   1  22
ATOM     19  N   LIG    1       -4.931   2.820   2.666  0.00  0.00    -0.360 N 
ATOM     20  N   LIG    1       -4.493   2.128   3.801  0.00  0.00    -0.290 NA
ATOM     21  C   LIG    1       -3.461   1.398   3.479  0.00  0.00    +0.110 A 
ATOM     22  C   LIG    1       -3.190   1.605   2.108  0.00  0.00    -0.280 A 
ATOM     23  C   LIG    1       -2.691   0.495   4.408  0.00  0.00    +0.160 C 
ATOM     24  C   LIG    1       -4.132   2.496   1.636  0.00  0.00    +0.130 A 
ATOM     25  C   LIG    1       -4.244   3.012   0.225  0.00  0.00    +0.160 C 
BRANCH  19  27
ATOM     26  C   LIG    1       -7.338   2.963   2.259  0.00  0.00    +0.040 C 
ATOM     27  C   LIG    1       -6.068   3.741   2.611  0.00  0.00    +0.320 C 
ENDBRANCH  19  27
ENDBRANCH   1  22
TORSDOF 3
