REMARK  Name = ZINCbw0000001noq.0
REMARK                            x       y       z     vdW  Elec       q    Type
REMARK                         _______ _______ _______ _____ _____    ______ ____
ROOT
ATOM      1  C   LIG    1        3.845   5.282  -0.007  0.00  0.00    +0.100 C 
ATOM      2  C   LIG    1        2.889   4.117  -0.004  0.00  0.00    -0.100 A 
ATOM      3  C   LIG    1        3.385   2.821  -0.015  0.00  0.00    +0.010 A 
ATOM      4  C   LIG    1        2.534   1.751  -0.012  0.00  0.00    +0.060 A 
ATOM      5  C   LIG    1        1.153   1.963   0.002  0.00  0.00    -0.090 A 
ATOM      6  C   LIG    1       -0.013   1.076   0.008  0.00  0.00    -0.050 A 
ATOM      7  C   LIG    1       -1.103   1.859   0.017  0.00  0.00    +0.240 A 
ATOM      8  N   LIG    1       -0.730   3.176   0.025  0.00  0.00    -0.590 N 
ATOM      9  H   LIG    1       -1.343   3.928   0.034  0.00  0.00    +0.420 HD
ATOM     10  C   LIG    1        0.644   3.274   0.013  0.00  0.00    +0.060 A 
ATOM     11  C   LIG    1        1.529   4.349   0.010  0.00  0.00    +0.080 A 
ATOM     12  F   LIG    1        1.057   5.615   0.020  0.00  0.00    -0.140 F 
ENDROOT
TORSDOF 0
