REMARK  Name = ZINCqH0000050Kdb.0
REMARK                            x       y       z     vdW  Elec       q    Type
REMARK                         _______ _______ _______ _____ _____    ______ ____
ROOT
ATOM      1  C   LIG    1       -1.359   1.864   0.496  0.00  0.00    -0.000 A 
ATOM      2  C   LIG    1       -2.554   1.207   0.131  0.00  0.00    -0.190 A 
ATOM      3  C   LIG    1       -2.875  -0.124  -0.210  0.00  0.00    +0.120 A 
ATOM      4  N   LIG    1       -4.150  -0.192  -0.466  0.00  0.00    -0.240 NA
ATOM      5  N   LIG    1       -4.732   1.072  -0.310  0.00  0.00    -0.390 N 
ATOM      6  C   LIG    1       -6.146   1.397  -0.509  0.00  0.00    +0.360 C 
ATOM      7  C   LIG    1       -1.904  -1.276  -0.267  0.00  0.00    +0.170 C 
ATOM      8  C   LIG    1       -3.749   1.952   0.061  0.00  0.00    +0.320 A 
ATOM      9  N   LIG    1       -3.742   3.249   0.334  0.00  0.00    -0.480 NA
ATOM     10  C   LIG    1       -2.642   3.884   0.675  0.00  0.00    +0.230 A 
ATOM     11  C   LIG    1       -1.425   3.227   0.775  0.00  0.00    -0.030 A 
ENDROOT
BRANCH   1  14
ATOM     12  N   LIG    1        1.064   1.712   0.174  0.00  0.00    -0.720 N 
ATOM     13  H   LIG    1        1.048   2.617  -0.176  0.00  0.00    +0.400 HD
ATOM     14  C   LIG    1       -0.079   1.128   0.584  0.00  0.00    +0.560 C 
ATOM     15  O   LIG    1       -0.059  -0.006   1.022  0.00  0.00    -0.510 OA
BRANCH  12  16
ATOM     16  C   LIG    1        2.331   0.981   0.256  0.00  0.00    +0.340 C 
ATOM     17  C   LIG    1        2.923   1.142   1.657  0.00  0.00    +0.040 C 
BRANCH  16  22
ATOM     18  C   LIG    1        5.524   3.793  -3.122  0.00  0.00    +0.180 C 
ATOM     19  C   LIG    1        4.739   2.810  -2.291  0.00  0.00    +0.060 A 
ATOM     20  N   LIG    1        4.828   1.526  -2.386  0.00  0.00    -0.470 NA
ATOM     21  C   LIG    1        4.072   0.810  -1.579  0.00  0.00    +0.090 A 
ATOM     22  C   LIG    1        3.295   1.530  -0.764  0.00  0.00    -0.250 A 
ATOM     23  C   LIG    1        4.081  -0.697  -1.577  0.00  0.00    +0.150 C 
ATOM     24  S   LIG    1        3.602   3.235  -1.087  0.00  0.00    +0.120 S 
ENDBRANCH  16  22
ENDBRANCH  12  16
ENDBRANCH   1  14
BRANCH  10  25
ATOM     25  C   LIG    1       -2.708   5.359   0.972  0.00  0.00    +0.020 C 
ATOM     26  C   LIG    1       -1.528   5.983   1.720  0.00  0.00    +0.040 C 
ATOM     27  C   LIG    1       -2.866   5.780   2.434  0.00  0.00    +0.050 C 
ENDBRANCH  10  25
TORSDOF 4
