REMARK  Name = ZINCqH0000050R45.0
REMARK                            x       y       z     vdW  Elec       q    Type
REMARK                         _______ _______ _______ _____ _____    ______ ____
ROOT
ATOM      1  C   LIG    1        0.639   6.622  -3.299  0.00  0.00    -0.230 A 
ATOM      2  C   LIG    1        1.008   6.210  -2.051  0.00  0.00    +0.330 A 
ATOM      3  N   LIG    1       -0.089   5.843  -1.348  0.00  0.00    -0.460 N 
ATOM      4  C   LIG    1       -1.227   5.996  -2.114  0.00  0.00    +0.090 A 
ATOM      5  C   LIG    1       -2.577   5.773  -1.867  0.00  0.00    +0.000 A 
ATOM      6  C   LIG    1       -3.508   6.032  -2.850  0.00  0.00    +0.030 A 
ATOM      7  C   LIG    1       -3.112   6.519  -4.087  0.00  0.00    +0.000 A 
ATOM      8  C   LIG    1       -1.779   6.752  -4.349  0.00  0.00    +0.060 A 
ATOM      9  C   LIG    1       -0.829   6.495  -3.364  0.00  0.00    -0.060 A 
ENDROOT
BRANCH   1  10
ATOM     10  C   LIG    1        1.528   7.099  -4.365  0.00  0.00    +0.550 C 
ATOM     11  O   LIG    1        1.064   7.437  -5.437  0.00  0.00    -0.500 OA
BRANCH  10  12
ATOM     12  O   LIG    1        2.859   7.160  -4.156  0.00  0.00    -0.360 OA
BRANCH  12  13
ATOM     13  C   LIG    1        3.677   7.641  -5.255  0.00  0.00    +0.400 C 
BRANCH  13  18
ATOM     14  C   LIG    1        8.167   9.011  -3.436  0.00  0.00    +0.250 C 
ATOM     15  C   LIG    1        7.044   8.226  -4.063  0.00  0.00    +0.180 A 
ATOM     16  N   LIG    1        7.116   7.008  -4.518  0.00  0.00    -0.290 NA
ATOM     17  N   LIG    1        5.968   6.658  -4.983  0.00  0.00    -0.250 NA
ATOM     18  C   LIG    1        5.126   7.641  -4.840  0.00  0.00    +0.150 A 
ATOM     19  O   LIG    1        5.787   8.657  -4.261  0.00  0.00    -0.220 OA
ENDBRANCH  13  18
ENDBRANCH  12  13
ENDBRANCH  10  12
ENDBRANCH   1  10
BRANCH   3  20
ATOM     20  C   LIG    1       -0.070   5.347   0.031  0.00  0.00    +0.360 C 
BRANCH  20  21
ATOM     21  C   LIG    1       -0.050   3.840   0.022  0.00  0.00    -0.120 A 
ATOM     22  C   LIG    1        1.156   3.165   0.008  0.00  0.00    +0.020 A 
ATOM     23  C   LIG    1        1.175   1.783   0.000  0.00  0.00    +0.010 A 
ATOM     24  C   LIG    1       -0.013   1.076   0.008  0.00  0.00    +0.020 A 
ATOM     25  C   LIG    1       -1.219   1.751   0.017  0.00  0.00    +0.010 A 
ATOM     26  C   LIG    1       -1.238   3.133   0.029  0.00  0.00    +0.020 A 
ENDBRANCH  20  21
ENDBRANCH   3  20
TORSDOF 6
