REMARK  Name = ZINCvU0000000Ewd.0
REMARK                            x       y       z     vdW  Elec       q    Type
REMARK                         _______ _______ _______ _____ _____    ______ ____
ROOT
ATOM      1  C   LIG    1       -4.300   4.899   0.354  0.00  0.00    -0.000 A 
ATOM      2  C   LIG    1       -5.672   4.582   0.227  0.00  0.00    -0.190 A 
ATOM      3  C   LIG    1       -6.377   3.393  -0.055  0.00  0.00    +0.120 A 
ATOM      4  N   LIG    1       -7.653   3.657  -0.056  0.00  0.00    -0.230 NA
ATOM      5  N   LIG    1       -7.856   5.014   0.220  0.00  0.00    -0.390 N 
ATOM      6  C   LIG    1       -9.153   5.690   0.304  0.00  0.00    +0.360 C 
ATOM      7  C   LIG    1       -5.758   2.043  -0.310  0.00  0.00    +0.170 C 
ATOM      8  C   LIG    1       -6.630   5.603   0.398  0.00  0.00    +0.330 A 
ATOM      9  N   LIG    1       -6.247   6.840   0.674  0.00  0.00    -0.480 NA
ATOM     10  C   LIG    1       -4.971   7.165   0.799  0.00  0.00    +0.250 A 
ATOM     11  C   LIG    1       -3.959   6.214   0.652  0.00  0.00    -0.020 A 
ENDROOT
BRANCH  10  12
ATOM     12  C   LIG    1       -4.608   8.569   1.111  0.00  0.00    -0.060 A 
ATOM     13  C   LIG    1       -3.269   8.930   1.252  0.00  0.00    +0.040 A 
ATOM     14  C   LIG    1       -2.937  10.239   1.535  0.00  0.00    +0.010 A 
ATOM     15  C   LIG    1       -3.930  11.190   1.691  0.00  0.00    +0.030 A 
ATOM     16  C   LIG    1       -5.261  10.836   1.558  0.00  0.00    +0.000 A 
ATOM     17  C   LIG    1       -5.604   9.531   1.268  0.00  0.00    +0.070 A 
ENDBRANCH  10  12
BRANCH   1  20
ATOM     18  N   LIG    1       -2.354   3.648   1.158  0.00  0.00    -0.680 N 
ATOM     19  H   LIG    1       -2.422   4.130   1.997  0.00  0.00    +0.420 HD
ATOM     20  C   LIG    1       -3.260   3.862   0.183  0.00  0.00    +0.570 C 
ATOM     21  O   LIG    1       -3.221   3.202  -0.837  0.00  0.00    -0.480 OA
BRANCH  18  28
ATOM     22  C   LIG    1       -0.723   3.945  -1.155  0.00  0.00    +0.110 C 
ATOM     23  C   LIG    1       -0.496   2.840  -0.156  0.00  0.00    -0.070 A 
ATOM     24  C   LIG    1        0.525   1.931  -0.351  0.00  0.00    +0.070 A 
ATOM     25  C   LIG    1        0.737   0.920   0.569  0.00  0.00    +0.020 A 
ATOM     26  C   LIG    1       -0.074   0.813   1.683  0.00  0.00    +0.080 A 
ATOM     27  C   LIG    1       -1.100   1.716   1.882  0.00  0.00    -0.190 A 
ATOM     28  C   LIG    1       -1.317   2.732   0.960  0.00  0.00    +0.190 A 
BRANCH  27  29
ATOM     29  C   LIG    1       -1.983   1.599   3.097  0.00  0.00    +0.510 C 
ATOM     30  F   LIG    1       -3.310   1.411   2.693  0.00  0.00    -0.170 F 
ATOM     31  F   LIG    1       -1.889   2.770   3.857  0.00  0.00    -0.180 F 
ATOM     32  F   LIG    1       -1.572   0.507   3.869  0.00  0.00    -0.170 F 
ENDBRANCH  27  29
ENDBRANCH  18  28
ENDBRANCH   1  20
TORSDOF 4
