REMARK  Name = ZINCpe00000MFPoG.0
REMARK                            x       y       z     vdW  Elec       q    Type
REMARK                         _______ _______ _______ _____ _____    ______ ____
ROOT
ATOM      1  S   LIG    1        1.217  -2.448  -0.023  0.00  0.00    +2.700 S 
ATOM      2  O   LIG    1       -0.025  -2.860   0.531  0.00  0.00    -0.950 OA
ATOM      3  O   LIG    1        2.475  -2.844   0.508  0.00  0.00    -0.950 OA
ENDROOT
BRANCH   1   4
ATOM      4  C   LIG    1        1.206  -0.686  -0.013  0.00  0.00    -0.640 A 
ATOM      5  C   LIG    1        0.002  -0.004   0.002  0.00  0.00    +0.150 A 
ATOM      6  C   LIG    1       -0.017   1.377   0.010  0.00  0.00    +0.020 A 
ATOM      7  C   LIG    1        1.176   2.083   0.002  0.00  0.00    +0.150 A 
ATOM      8  N   LIG    1        1.483   3.442   0.006  0.00  0.00    -0.640 N 
ATOM      9  H   LIG    1        0.840   4.169   0.016  0.00  0.00    +0.440 HD
ATOM     10  C   LIG    1        2.822   3.575  -0.005  0.00  0.00    +0.690 A 
ATOM     11  N   LIG    1        3.398   2.358  -0.017  0.00  0.00    -0.640 N 
ATOM     12  H   LIG    1        4.352   2.182  -0.027  0.00  0.00    +0.440 HD
ATOM     13  O   LIG    1        3.422   4.634  -0.004  0.00  0.00    -0.550 OA
ATOM     14  C   LIG    1        2.392   1.396  -0.013  0.00  0.00    +0.070 A 
ATOM     15  C   LIG    1        2.400   0.010  -0.020  0.00  0.00    +0.160 A 
ENDBRANCH   1   4
BRANCH   1  16
ATOM     16  N   LIG    1        1.205  -2.929  -1.607  0.00  0.00    -1.100 NA
ATOM     17  H   LIG    1        0.444  -3.415  -1.961  0.00  0.00    +0.420 HD
BRANCH  16  24
ATOM     18  C   LIG    1        1.493   0.659  -3.773  0.00  0.00    +0.220 A 
ATOM     19  N   LIG    1        1.940   0.114  -4.878  0.00  0.00    -0.310 NA
ATOM     20  N   LIG    1        2.324  -1.190  -4.552  0.00  0.00    -0.370 N 
ATOM     21  C   LIG    1        2.890  -2.214  -5.430  0.00  0.00    +0.310 C 
ATOM     22  C   LIG    1        3.536  -3.303  -4.565  0.00  0.00    +0.050 C 
ATOM     23  C   LIG    1        2.543  -3.756  -3.489  0.00  0.00    +0.050 C 
ATOM     24  C   LIG    1        2.345  -2.622  -2.475  0.00  0.00    +0.370 C 
ATOM     25  C   LIG    1        2.075  -1.349  -3.238  0.00  0.00    +0.240 A 
ATOM     26  N   LIG    1        1.578  -0.233  -2.784  0.00  0.00    -0.510 NA
BRANCH  18  28
ATOM     27  C   LIG    1       -0.540   2.073  -3.906  0.00  0.00    +0.050 C 
ATOM     28  C   LIG    1        0.967   2.065  -3.642  0.00  0.00    +0.130 C 
ENDBRANCH  18  28
ENDBRANCH  16  24
ENDBRANCH   1  16
TORSDOF 4
