REMARK  Name = ZINCrg00000fRd8x.0
REMARK                            x       y       z     vdW  Elec       q    Type
REMARK                         _______ _______ _______ _____ _____    ______ ____
ROOT
ATOM      1  N   LIG    1        5.034  -0.570  -2.573  0.00  0.00    -1.100 NA
ATOM      2  H   LIG    1        5.676  -0.360  -1.877  0.00  0.00    +0.430 HD
ENDROOT
BRANCH   1   3
ATOM      3  S   LIG    1        5.318  -1.830  -3.609  0.00  0.00    +2.700 S 
ATOM      4  O   LIG    1        4.123  -2.598  -3.644  0.00  0.00    -0.950 OA
ATOM      5  O   LIG    1        6.580  -2.372  -3.245  0.00  0.00    -0.950 OA
BRANCH   3   6
ATOM      6  C   LIG    1        5.516  -1.145  -5.221  0.00  0.00    -0.680 A 
ATOM      7  C   LIG    1        4.417  -0.991  -6.045  0.00  0.00    +0.130 A 
ATOM      8  C   LIG    1        4.568  -0.450  -7.308  0.00  0.00    +0.020 A 
ATOM      9  C   LIG    1        5.824  -0.072  -7.756  0.00  0.00    +0.110 A 
ATOM     10  O   LIG    1        5.958   0.449  -9.006  0.00  0.00    -0.300 OA
ATOM     11  C   LIG    1        7.170   1.161  -9.279  0.00  0.00    +0.230 C 
ATOM     12  C   LIG    1        8.347   0.326  -8.756  0.00  0.00    +0.230 C 
ATOM     13  O   LIG    1        8.171   0.138  -7.348  0.00  0.00    -0.300 OA
ATOM     14  C   LIG    1        6.930  -0.231  -6.929  0.00  0.00    +0.030 A 
ATOM     15  C   LIG    1        6.771  -0.769  -5.661  0.00  0.00    +0.140 A 
ENDBRANCH   3   6
ENDBRANCH   1   3
BRANCH   1  16
ATOM     16  C   LIG    1        3.812   0.228  -2.707  0.00  0.00    +0.240 C 
BRANCH  16  17
ATOM     17  C   LIG    1        3.337   0.653  -1.342  0.00  0.00    +0.530 C 
ATOM     18  N   LIG    1        2.019   0.797  -1.102  0.00  0.00    -0.610 N 
ATOM     19  C   LIG    1        1.031   0.648  -2.183  0.00  0.00    +0.250 C 
ATOM     20  C   LIG    1       -0.054  -0.327  -1.715  0.00  0.00    +0.210 C 
ATOM     21  O   LIG    1       -0.559   0.102  -0.448  0.00  0.00    -0.370 OA
ATOM     22  C   LIG    1        0.414   0.109   0.598  0.00  0.00    +0.140 C 
ATOM     23  C   LIG    1       -0.250   0.523   1.913  0.00  0.00    +0.080 C 
ATOM     24  C   LIG    1        1.524   1.107   0.249  0.00  0.00    +0.260 C 
ATOM     25  O   LIG    1        4.141   0.865  -0.459  0.00  0.00    -0.520 OA
ENDBRANCH  16  17
BRANCH  16  27
ATOM     26  C   LIG    1        2.827   2.299  -3.700  0.00  0.00    +0.030 C 
ATOM     27  C   LIG    1        4.104   1.469  -3.554  0.00  0.00    -0.020 C 
ATOM     28  C   LIG    1        5.184   2.310  -2.872  0.00  0.00    +0.030 C 
ENDBRANCH  16  27
ENDBRANCH   1  16
TORSDOF 5
