REMARK  Name = ZINCvU00000007fh.0
REMARK                            x       y       z     vdW  Elec       q    Type
REMARK                         _______ _______ _______ _____ _____    ______ ____
ROOT
ATOM      1  C   LIG    1       -5.629   4.833   1.509  0.00  0.00    +0.420 C 
ATOM      2  O   LIG    1       -5.752   4.317   2.600  0.00  0.00    -0.460 OA
ENDROOT
BRANCH   1   6
ATOM      3  C   LIG    1       -2.193   4.904  -2.254  0.00  0.00    +0.150 C 
ATOM      4  C   LIG    1       -2.919   4.623  -0.963  0.00  0.00    +0.020 A 
ATOM      5  C   LIG    1       -4.120   5.120  -0.621  0.00  0.00    +0.020 A 
ATOM      6  C   LIG    1       -4.427   4.580   0.711  0.00  0.00    -0.260 A 
ATOM      7  C   LIG    1       -3.352   3.781   1.054  0.00  0.00    +0.130 A 
ATOM      8  C   LIG    1       -3.204   3.002   2.335  0.00  0.00    +0.150 C 
ATOM      9  N   LIG    1       -2.460   3.823   0.046  0.00  0.00    -0.400 N 
BRANCH   9  10
ATOM     10  C   LIG    1       -1.237   3.138   0.030  0.00  0.00    +0.130 A 
ATOM     11  C   LIG    1       -1.219   1.750   0.017  0.00  0.00    +0.060 A 
ATOM     12  C   LIG    1       -0.013   1.076   0.008  0.00  0.00    +0.080 A 
ATOM     13  C   LIG    1        1.176   1.783   0.000  0.00  0.00    -0.020 A 
ATOM     14  C   LIG    1        1.161   3.168   0.008  0.00  0.00    -0.020 A 
ATOM     15 CL   LIG    1        2.654   4.053  -0.002  0.00  0.00    -0.030 Cl
ATOM     16 CL   LIG    1        2.690   0.933  -0.019  0.00  0.00    -0.030 Cl
ATOM     17  C   LIG    1       -0.043   3.846   0.023  0.00  0.00    +0.060 A 
ENDBRANCH   9  10
ENDBRANCH   1   6
BRANCH   1  18
ATOM     18  C   LIG    1       -6.712   5.734   0.975  0.00  0.00    +0.340 C 
BRANCH  18  19
ATOM     19  N   LIG    1       -7.798   5.824   1.954  0.00  0.00    -0.570 N 
ATOM     20  C   LIG    1       -8.854   5.001   1.984  0.00  0.00    +0.710 C 
ATOM     21  N   LIG    1       -9.706   5.297   2.985  0.00  0.00    -0.720 N 
ATOM     22  H   LIG    1      -10.533   4.836   3.199  0.00  0.00    +0.440 HD
ATOM     23  C   LIG    1       -9.140   6.457   3.683  0.00  0.00    +0.130 C 
ATOM     24  C   LIG    1       -8.835   6.111   5.136  0.00  0.00    +0.060 C 
ATOM     25  C   LIG    1       -8.210   7.324   5.831  0.00  0.00    +0.020 C 
ATOM     26  C   LIG    1       -9.180   8.505   5.763  0.00  0.00    +0.010 C 
ATOM     27  C   LIG    1       -9.461   8.854   4.300  0.00  0.00    +0.030 C 
ATOM     28  C   LIG    1      -10.091   7.647   3.600  0.00  0.00    +0.010 C 
ATOM     29  C   LIG    1      -10.353   7.989   2.132  0.00  0.00    +0.020 C 
ATOM     30  O   LIG    1       -9.022   4.088   1.200  0.00  0.00    -0.540 OA
ATOM     31  C   LIG    1       -7.862   6.751   2.932  0.00  0.00    +0.540 C 
ATOM     32  O   LIG    1       -7.063   7.633   3.160  0.00  0.00    -0.460 OA
ENDBRANCH  18  19
ENDBRANCH   1  18
TORSDOF 4
