REMARK  Name = ZINCpk00000KfLfE.0
REMARK                            x       y       z     vdW  Elec       q    Type
REMARK                         _______ _______ _______ _____ _____    ______ ____
ROOT
ATOM      1  C   LIG    1       -4.349   1.354  -0.160  0.00  0.00    +0.160 C 
ATOM      2  C   LIG    1       -5.177   0.632  -1.227  0.00  0.00    +0.170 C 
ATOM      3  N   LIG    1       -5.360  -0.772  -0.831  0.00  0.00    -0.510 NA
ATOM      4  C   LIG    1       -6.031  -0.862   0.474  0.00  0.00    +0.160 C 
ATOM      5  C   LIG    1       -5.195  -0.125   1.523  0.00  0.00    +0.230 C 
ATOM      6  O   LIG    1       -5.000   1.229   1.107  0.00  0.00    -0.370 OA
ENDROOT
BRANCH   3   7
ATOM      7  C   LIG    1       -6.102  -1.516  -1.858  0.00  0.00    +0.130 C 
ATOM      8  C   LIG    1       -6.350  -2.945  -1.372  0.00  0.00    +0.060 C 
BRANCH   7   9
ATOM      9  C   LIG    1       -5.300  -1.550  -3.133  0.00  0.00    +0.520 C 
ATOM     10  N   LIG    1       -5.926  -1.663  -4.321  0.00  0.00    -0.730 N 
ATOM     11  H   LIG    1       -6.894  -1.723  -4.355  0.00  0.00    +0.400 HD
ATOM     12  O   LIG    1       -4.090  -1.475  -3.090  0.00  0.00    -0.510 OA
BRANCH  10  13
ATOM     13  C   LIG    1       -5.146  -1.696  -5.560  0.00  0.00    +0.240 C 
ATOM     14  C   LIG    1       -4.853  -0.266  -6.017  0.00  0.00    +0.000 C 
ATOM     15  C   LIG    1       -4.038  -0.300  -7.311  0.00  0.00    +0.020 C 
ATOM     16  C   LIG    1       -4.834  -1.029  -8.396  0.00  0.00    +0.010 C 
ATOM     17  C   LIG    1       -5.127  -2.460  -7.939  0.00  0.00    +0.020 C 
ATOM     18  C   LIG    1       -5.941  -2.425  -6.644  0.00  0.00    +0.010 C 
ENDBRANCH  10  13
ENDBRANCH   7   9
ENDBRANCH   3   7
BRANCH   1  19
ATOM     19  C   LIG    1       -4.223   2.834  -0.526  0.00  0.00    +0.360 C 
BRANCH  19  23
ATOM     20  C   LIG    1       -2.528   5.335   3.478  0.00  0.00    +0.180 C 
ATOM     21  C   LIG    1       -2.612   4.585   2.174  0.00  0.00    +0.220 A 
ATOM     22  N   LIG    1       -3.707   4.116   1.636  0.00  0.00    -0.300 NA
ATOM     23  N   LIG    1       -3.335   3.499   0.430  0.00  0.00    -0.370 N 
ATOM     24  C   LIG    1       -2.001   3.638   0.330  0.00  0.00    +0.280 A 
ATOM     25  C   LIG    1       -1.141   3.132  -0.800  0.00  0.00    +0.190 C 
ATOM     26  N   LIG    1       -1.581   4.295   1.381  0.00  0.00    -0.540 NA
ENDBRANCH  19  23
ENDBRANCH   1  19
TORSDOF 5
