REMARK  Name = ZINCrH00000No4CH.2
REMARK                            x       y       z     vdW  Elec       q    Type
REMARK                         _______ _______ _______ _____ _____    ______ ____
ROOT
ATOM      1  N   LIG    1       -1.194   2.118   0.019  0.00  0.00    -0.710 N 
ATOM      2  H   LIG    1       -2.027   1.622   0.021  0.00  0.00    +0.410 HD
ATOM      3  C   LIG    1       -0.018   1.460   0.010  0.00  0.00    +0.540 C 
ATOM      4  O   LIG    1        1.028   2.083   0.003  0.00  0.00    -0.540 OA
ENDROOT
BRANCH   3   5
ATOM      5  C   LIG    1        0.002  -0.004   0.002  0.00  0.00    -0.070 C 
ATOM      6  C   LIG    1        1.179  -0.662  -0.013  0.00  0.00    +0.110 C 
BRANCH   6   7
ATOM      7  C   LIG    1        1.198  -2.134  -0.021  0.00  0.00    -0.040 A 
ATOM      8  C   LIG    1       -0.001  -2.853  -0.007  0.00  0.00    +0.030 A 
ATOM      9  C   LIG    1        0.026  -4.232  -0.021  0.00  0.00    +0.070 A 
ATOM     10  C   LIG    1        1.236  -4.904  -0.036  0.00  0.00    -0.180 A 
ATOM     11  C   LIG    1        2.427  -4.199  -0.044  0.00  0.00    +0.070 A 
ATOM     12  C   LIG    1        2.417  -2.820  -0.036  0.00  0.00    +0.040 A 
BRANCH  10  13
ATOM     13  C   LIG    1        1.256  -6.411  -0.044  0.00  0.00    +0.510 C 
ATOM     14  F   LIG    1        2.399  -6.858  -0.717  0.00  0.00    -0.180 F 
ATOM     15  F   LIG    1        0.114  -6.889  -0.696  0.00  0.00    -0.180 F 
ATOM     16  F   LIG    1        1.275  -6.884   1.272  0.00  0.00    -0.170 F 
ENDBRANCH  10  13
ENDBRANCH   6   7
ENDBRANCH   3   5
BRANCH   1  17
ATOM     17  C   LIG    1       -1.214   3.583   0.027  0.00  0.00    +0.280 C 
BRANCH  17  18
ATOM     18  C   LIG    1       -2.663   4.073   0.037  0.00  0.00    +0.090 C 
ATOM     19  C   LIG    1       -3.383   3.560  -1.212  0.00  0.00    +0.050 C 
ATOM     20  C   LIG    1       -2.684   5.603   0.045  0.00  0.00    +0.020 C 
BRANCH  18  24
ATOM     21  C   LIG    1       -6.859   3.954   2.606  0.00  0.00    +0.050 C 
ATOM     22  C   LIG    1       -5.428   3.423   2.511  0.00  0.00    +0.160 C 
ATOM     23  C   LIG    1       -4.741   4.020   1.280  0.00  0.00    +0.160 C 
ATOM     24  N   LIG    1       -3.343   3.568   1.237  0.00  0.00    -0.530 NA
ATOM     25  C   LIG    1       -2.628   3.970   2.457  0.00  0.00    +0.160 C 
ATOM     26  C   LIG    1       -3.335   3.373   3.676  0.00  0.00    +0.160 C 
ATOM     27  C   LIG    1       -2.643   3.853   4.954  0.00  0.00    +0.050 C 
ATOM     28  O   LIG    1       -4.701   3.799   3.685  0.00  0.00    -0.380 OA
ENDBRANCH  18  24
ENDBRANCH  17  18
ENDBRANCH   1  17
TORSDOF 6
