REMARK  Name = ZINCqH0000008Jm6.0
REMARK                            x       y       z     vdW  Elec       q    Type
REMARK                         _______ _______ _______ _____ _____    ______ ____
ROOT
ATOM      1  C   LIG    1       -5.149   7.244   3.541  0.00  0.00    +0.030 C 
ATOM      2  C   LIG    1       -3.689   7.105   3.106  0.00  0.00    +0.210 C 
ATOM      3  C   LIG    1       -3.009   8.478   3.136  0.00  0.00    +0.230 C 
ATOM      4  O   LIG    1       -3.577   9.308   2.120  0.00  0.00    -0.370 OA
ATOM      5  C   LIG    1       -3.382   8.823   0.790  0.00  0.00    +0.190 C 
ATOM      6  C   LIG    1       -4.076   7.469   0.639  0.00  0.00    +0.260 C 
ATOM      7  N   LIG    1       -3.629   6.588   1.729  0.00  0.00    -0.620 N 
ATOM      8  C   LIG    1       -3.173   5.345   1.474  0.00  0.00    +0.520 C 
ATOM      9  O   LIG    1       -2.805   4.636   2.386  0.00  0.00    -0.520 OA
ENDROOT
BRANCH   5  10
ATOM     10  C   LIG    1       -3.966   9.803  -0.194  0.00  0.00    -0.070 A 
ATOM     11  C   LIG    1       -5.116  10.499   0.124  0.00  0.00    +0.060 A 
ATOM     12  C   LIG    1       -5.650  11.402  -0.777  0.00  0.00    +0.030 A 
ATOM     13  C   LIG    1       -5.039  11.601  -2.000  0.00  0.00    +0.040 A 
ATOM     14  C   LIG    1       -3.890  10.900  -2.322  0.00  0.00    -0.040 A 
ATOM     15 CL   LIG    1       -3.123  11.149  -3.859  0.00  0.00    -0.070 Cl
ATOM     16  C   LIG    1       -3.354  10.001  -1.418  0.00  0.00    +0.030 A 
ENDBRANCH   5  10
BRANCH   8  17
ATOM     17  C   LIG    1       -3.122   4.838   0.056  0.00  0.00    +0.130 C 
BRANCH  17  18
ATOM     18  C   LIG    1       -2.578   3.433   0.045  0.00  0.00    -0.200 A 
ATOM     19  C   LIG    1       -3.298   2.280   0.046  0.00  0.00    +0.240 A 
ATOM     20  N   LIG    1       -2.473   1.231   0.033  0.00  0.00    -0.540 NA
ATOM     21  C   LIG    1       -1.212   1.628   0.017  0.00  0.00    +0.250 A 
ATOM     22  N   LIG    1       -0.011   0.966   0.007  0.00  0.00    -0.490 N 
ATOM     23  H   LIG    1        0.002  -0.004   0.002  0.00  0.00    +0.420 HD
ATOM     24  C   LIG    1        1.146   1.646   0.000  0.00  0.00    +0.330 A 
ATOM     25  C   LIG    1        1.178   3.007   0.006  0.00  0.00    -0.080 A 
ATOM     26  C   LIG    1       -0.005   3.738   0.021  0.00  0.00    +0.170 A 
ATOM     27  C   LIG    1       -1.217   3.051   0.030  0.00  0.00    -0.140 A 
ENDBRANCH  17  18
ENDBRANCH   8  17
TORSDOF 3
