REMARK  Name = ZINCqH00000512W7.1
REMARK                            x       y       z     vdW  Elec       q    Type
REMARK                         _______ _______ _______ _____ _____    ______ ____
ROOT
ATOM      1  N   LIG    1        4.027  -0.361  -3.611  0.00  0.00    -0.470 N 
ATOM      2  C   LIG    1        4.818   0.674  -2.932  0.00  0.00    +0.230 C 
ATOM      3  C   LIG    1        4.382   0.767  -1.468  0.00  0.00    +0.190 C 
ATOM      4  N   LIG    1        2.947   1.080  -1.406  0.00  0.00    -0.540 NA
ATOM      5  C   LIG    1        2.156   0.045  -2.085  0.00  0.00    +0.190 C 
ATOM      6  C   LIG    1        2.592  -0.049  -3.549  0.00  0.00    +0.210 C 
ENDROOT
BRANCH   1   9
ATOM      7  C   LIG    1        5.841   0.056  -6.662  0.00  0.00    +0.610 A 
ATOM      8  N   LIG    1        5.440   0.209  -5.409  0.00  0.00    -0.600 NA
ATOM      9  C   LIG    1        4.444  -0.524  -4.922  0.00  0.00    +0.410 A 
ATOM     10  C   LIG    1        3.828  -1.465  -5.749  0.00  0.00    -0.140 A 
ATOM     11  C   LIG    1        4.273  -1.589  -7.052  0.00  0.00    +0.280 A 
ATOM     12 CL   LIG    1        3.537  -2.739  -8.125  0.00  0.00    -0.010 Cl
ATOM     13  N   LIG    1        5.272  -0.824  -7.472  0.00  0.00    -0.590 NA
BRANCH   7  14
ATOM     14  N   LIG    1        6.880   0.837  -7.138  0.00  0.00    -0.810 N 
ATOM     15  H   LIG    1        7.184   0.735  -8.053  0.00  0.00    +0.420 HD
ATOM     16  H   LIG    1        7.305   1.486  -6.555  0.00  0.00    +0.420 HD
ENDBRANCH   7  14
ENDBRANCH   1   9
BRANCH   4  17
ATOM     17  C   LIG    1        2.506   1.253  -0.015  0.00  0.00    +0.280 C 
BRANCH  17  18
ATOM     18  C   LIG    1        1.105   1.808   0.001  0.00  0.00    -0.170 A 
ATOM     19  C   LIG    1       -0.013   1.076   0.008  0.00  0.00    +0.010 A 
ATOM     20  C   LIG    1       -1.187   1.800   0.017  0.00  0.00    +0.010 A 
ATOM     21  C   LIG    1       -1.022   3.138   0.028  0.00  0.00    -0.150 A 
ATOM     22  S   LIG    1        0.695   3.518   0.014  0.00  0.00    +0.150 S 
BRANCH  21  23
ATOM     23  C   LIG    1       -2.117   4.132   0.042  0.00  0.00    -0.020 A 
ATOM     24  C   LIG    1       -3.447   3.710   0.046  0.00  0.00    +0.030 A 
ATOM     25  C   LIG    1       -4.463   4.643   0.065  0.00  0.00    +0.020 A 
ATOM     26  C   LIG    1       -4.166   5.994   0.068  0.00  0.00    +0.010 A 
ATOM     27  C   LIG    1       -2.850   6.420   0.059  0.00  0.00    +0.020 A 
ATOM     28  C   LIG    1       -1.824   5.497   0.046  0.00  0.00    +0.010 A 
ENDBRANCH  21  23
ENDBRANCH  17  18
ENDBRANCH   4  17
TORSDOF 5
