REMARK  Name = ZINCpe000000WY7U.0
REMARK                            x       y       z     vdW  Elec       q    Type
REMARK                         _______ _______ _______ _____ _____    ______ ____
ROOT
ATOM      1  C   LIG    1        1.731   5.574   1.885  0.00  0.00    +0.200 C 
ENDROOT
BRANCH   1  12
ATOM      2  C   LIG    1        2.408   9.203   6.906  0.00  0.00    +0.030 C 
ATOM      3  C   LIG    1        1.516   8.305   6.045  0.00  0.00    -0.020 C 
ATOM      4  C   LIG    1        2.345   7.146   5.487  0.00  0.00    +0.020 C 
ATOM      5  C   LIG    1        1.441   6.225   4.654  0.00  0.00    +0.250 C 
ATOM      6  N   LIG    1        0.762   7.034   3.631  0.00  0.00    -0.600 N 
ATOM      7  C   LIG    1        0.013   8.220   4.061  0.00  0.00    +0.230 C 
ATOM      8  C   LIG    1       -0.507   8.982   2.846  0.00  0.00    +0.020 C 
ATOM      9  C   LIG    1        0.619   9.473   1.983  0.00  0.00    +0.030 C 
ATOM     10  C   LIG    1        1.516  10.399   2.808  0.00  0.00    -0.010 C 
ATOM     11  C   LIG    1        2.084   9.623   3.997  0.00  0.00    +0.010 C 
ATOM     12  C   LIG    1        0.821   6.690   2.330  0.00  0.00    +0.510 C 
ATOM     13  O   LIG    1        0.141   7.279   1.516  0.00  0.00    -0.500 OA
ATOM     14  C   LIG    1        0.940   9.121   4.881  0.00  0.00    -0.010 C 
ENDBRANCH   1  12
BRANCH   1  15
ATOM     15  N   LIG    1        1.614   5.396   0.432  0.00  0.00    -0.470 NA
ATOM     16  C   LIG    1        0.206   5.159   0.038  0.00  0.00    +0.320 C 
ATOM     17  C   LIG    1        0.032   3.658   0.039  0.00  0.00    +0.160 A 
ATOM     18  C   LIG    1        1.252   3.079   0.011  0.00  0.00    -0.310 A 
ATOM     19  C   LIG    1        1.349   1.668   0.005  0.00  0.00    +0.570 A 
ATOM     20  N   LIG    1        0.221   0.929   0.028  0.00  0.00    -0.660 N 
ATOM     21  H   LIG    1        0.278  -0.040   0.024  0.00  0.00    +0.440 HD
ATOM     22  C   LIG    1       -0.983   1.530   0.050  0.00  0.00    +0.700 A 
ATOM     23  O   LIG    1       -1.991   0.850   0.065  0.00  0.00    -0.530 OA
ATOM     24  O   LIG    1        2.439   1.127  -0.019  0.00  0.00    -0.510 OA
ATOM     25  N   LIG    1       -1.088   2.871   0.061  0.00  0.00    -0.620 N 
ATOM     26  H   LIG    1       -1.965   3.284   0.081  0.00  0.00    +0.440 HD
ATOM     27  C   LIG    1        2.305   4.162  -0.009  0.00  0.00    +0.310 C 
ENDBRANCH   1  15
TORSDOF 2
