REMARK  Name = ZINCpe00000R9aXc.0
REMARK                            x       y       z     vdW  Elec       q    Type
REMARK                         _______ _______ _______ _____ _____    ______ ____
ROOT
ATOM      1  C   LIG    1       -1.851   0.823   1.252  0.00  0.00    +0.220 C 
ATOM      2  C   LIG    1       -0.541   1.607   1.138  0.00  0.00    +0.010 C 
ATOM      3  C   LIG    1        0.095   1.345  -0.229  0.00  0.00    +0.020 C 
ATOM      4  C   LIG    1       -0.855   1.826  -1.331  0.00  0.00    +0.290 C 
ATOM      5  N   LIG    1       -2.163   1.185  -1.141  0.00  0.00    -0.570 N 
ATOM      6  C   LIG    1       -2.823   1.298   0.167  0.00  0.00    +0.300 C 
ENDROOT
BRANCH   5   7
ATOM      7  C   LIG    1       -2.764   0.484  -2.178  0.00  0.00    +0.350 A 
ATOM      8  N   LIG    1       -2.112   0.261  -3.299  0.00  0.00    -0.500 NA
ATOM      9  C   LIG    1       -2.683  -0.411  -4.298  0.00  0.00    +0.190 A 
ATOM     10  C   LIG    1       -3.943  -0.887  -4.205  0.00  0.00    +0.170 A 
ATOM     11  N   LIG    1       -4.681  -0.695  -3.075  0.00  0.00    -0.590 N 
ATOM     12  H   LIG    1       -5.586  -1.040  -3.014  0.00  0.00    +0.420 HD
ATOM     13  C   LIG    1       -4.134  -0.023  -2.037  0.00  0.00    +0.490 A 
ATOM     14  O   LIG    1       -4.765   0.161  -1.010  0.00  0.00    -0.530 OA
ENDBRANCH   5   7
BRANCH   1  17
ATOM     15  O   LIG    1       -1.216  -0.567   3.474  0.00  0.00    -0.530 OA
ATOM     16  C   LIG    1       -2.057   0.299   3.623  0.00  0.00    +0.570 C 
ATOM     17  N   LIG    1       -2.444   1.050   2.572  0.00  0.00    -0.720 N 
ATOM     18  H   LIG    1       -3.115   1.740   2.691  0.00  0.00    +0.400 HD
BRANCH  16  19
ATOM     19  C   LIG    1       -2.654   0.528   4.953  0.00  0.00    -0.130 A 
ATOM     20  C   LIG    1       -3.620   1.522   5.125  0.00  0.00    +0.070 A 
ATOM     21  C   LIG    1       -4.176   1.734   6.368  0.00  0.00    +0.030 A 
ATOM     22  C   LIG    1       -3.781   0.962   7.452  0.00  0.00    +0.060 A 
ATOM     23  O   LIG    1       -4.173   0.974   8.758  0.00  0.00    -0.300 OA
ATOM     24  C   LIG    1       -3.149   0.259   9.474  0.00  0.00    +0.440 C 
ATOM     25  O   LIG    1       -2.607  -0.642   8.490  0.00  0.00    -0.300 OA
ATOM     26  C   LIG    1       -2.816  -0.034   7.286  0.00  0.00    +0.020 A 
ATOM     27  C   LIG    1       -2.259  -0.254   6.042  0.00  0.00    +0.110 A 
ENDBRANCH  16  19
ENDBRANCH   1  17
TORSDOF 3
