REMARK  Name = ZINCpk00000KfKMb.0
REMARK                            x       y       z     vdW  Elec       q    Type
REMARK                         _______ _______ _______ _____ _____    ______ ____
ROOT
ATOM      1  N   LIG    1       -0.012   0.967   0.025  0.00  0.00    -0.720 N 
ATOM      2  H   LIG    1        0.001  -0.003   0.030  0.00  0.00    +0.420 HD
ATOM      3  C   LIG    1        1.147   1.655   0.000  0.00  0.00    +0.580 C 
ATOM      4  O   LIG    1        1.132   2.868  -0.101  0.00  0.00    -0.550 OA
ENDROOT
BRANCH   3   5
ATOM      5  C   LIG    1        2.426   0.943   0.095  0.00  0.00    -0.280 A 
ATOM      6  C   LIG    1        3.627   1.655   0.193  0.00  0.00    +0.230 A 
ATOM      7  C   LIG    1        4.820   0.958   0.281  0.00  0.00    -0.050 A 
ATOM      8  C   LIG    1        4.812  -0.431   0.272  0.00  0.00    +0.270 A 
ATOM      9  N   LIG    1        3.635  -1.122   0.176  0.00  0.00    -0.590 N 
ATOM     10  H   LIG    1        3.648  -2.092   0.170  0.00  0.00    +0.420 HD
ATOM     11  C   LIG    1        2.458  -0.473   0.094  0.00  0.00    +0.540 A 
ATOM     12  O   LIG    1        1.419  -1.105   0.014  0.00  0.00    -0.540 OA
BRANCH   8  13
ATOM     13  C   LIG    1        6.077  -1.163   0.367  0.00  0.00    -0.020 A 
ATOM     14  C   LIG    1        6.219  -2.523   0.375  0.00  0.00    +0.010 A 
ATOM     15  C   LIG    1        7.595  -2.784   0.476  0.00  0.00    -0.060 A 
ATOM     16  C   LIG    1        8.223  -1.589   0.533  0.00  0.00    +0.230 A 
ATOM     17  O   LIG    1        7.305  -0.615   0.467  0.00  0.00    -0.150 OA
ENDBRANCH   8  13
ENDBRANCH   3   5
BRANCH   1  18
ATOM     18  C   LIG    1       -1.289   1.684   0.038  0.00  0.00    +0.270 C 
BRANCH  18  19
ATOM     19  C   LIG    1       -2.440   0.675   0.059  0.00  0.00    +0.170 C 
BRANCH  19  23
ATOM     20  C   LIG    1       -7.332   0.305  -0.331  0.00  0.00    +0.050 C 
ATOM     21  C   LIG    1       -6.152   1.268  -0.184  0.00  0.00    +0.160 C 
ATOM     22  C   LIG    1       -4.845   0.471  -0.146  0.00  0.00    +0.150 C 
ATOM     23  N   LIG    1       -3.721   1.394   0.072  0.00  0.00    -0.530 NA
ATOM     24  C   LIG    1       -3.894   2.139   1.328  0.00  0.00    +0.150 C 
ATOM     25  C   LIG    1       -5.211   2.918   1.274  0.00  0.00    +0.200 C 
ATOM     26  C   LIG    1       -5.149   3.951   0.147  0.00  0.00    +0.020 C 
ATOM     27  O   LIG    1       -6.288   2.009   1.031  0.00  0.00    -0.380 OA
ENDBRANCH  19  23
ENDBRANCH  18  19
ENDBRANCH   1  18
TORSDOF 5
