REMARK  Name = ZINCpe000027pGWZ.0
REMARK                            x       y       z     vdW  Elec       q    Type
REMARK                         _______ _______ _______ _____ _____    ______ ____
ROOT
ATOM      1  C   LIG    1       -4.642   1.176   1.352  0.00  0.00    +0.300 C 
ENDROOT
BRANCH   1   7
ATOM      2  C   LIG    1       -0.014   1.212   0.009  0.00  0.00    +0.550 C 
ATOM      3  N   LIG    1       -1.172   1.903   0.022  0.00  0.00    -0.620 N 
ATOM      4  C   LIG    1       -1.169   3.369  -0.066  0.00  0.00    +0.300 C 
ATOM      5  C   LIG    1       -1.970   3.940   1.103  0.00  0.00    +0.030 C 
ATOM      6  C   LIG    1       -3.366   3.313   1.117  0.00  0.00    +0.300 C 
ATOM      7  C   LIG    1       -3.245   1.799   1.305  0.00  0.00    -0.050 C 
ATOM      8  F   LIG    1       -4.109   3.855   2.171  0.00  0.00    -0.190 F 
ATOM      9  F   LIG    1       -4.010   3.582  -0.095  0.00  0.00    -0.190 F 
ATOM     10  C   LIG    1       -2.459   1.204   0.132  0.00  0.00    +0.310 C 
ATOM     11  O   LIG    1       -0.032  -0.004  -0.006  0.00  0.00    -0.540 OA
BRANCH   2  13
ATOM     12  C   LIG    1        2.411   1.250   0.092  0.00  0.00    +0.160 C 
ATOM     13  C   LIG    1        1.270   1.929   0.005  0.00  0.00    -0.100 C 
ENDBRANCH   2  13
ENDBRANCH   1   7
BRANCH   1  14
ATOM     14  N   LIG    1       -4.529  -0.254   1.647  0.00  0.00    -0.730 N 
ATOM     15  H   LIG    1       -3.656  -0.655   1.777  0.00  0.00    +0.400 HD
ATOM     16  C   LIG    1       -5.640  -1.013   1.738  0.00  0.00    +0.500 C 
ATOM     17  O   LIG    1       -6.732  -0.511   1.575  0.00  0.00    -0.500 OA
BRANCH  16  18
ATOM     18  C   LIG    1       -5.524  -2.484   2.041  0.00  0.00    +0.360 C 
BRANCH  18  19
ATOM     19  N   LIG    1       -6.862  -3.080   2.086  0.00  0.00    -0.350 N 
ATOM     20  C   LIG    1       -7.277  -4.129   1.360  0.00  0.00    +0.320 A 
ATOM     21  C   LIG    1       -8.595  -4.374   1.703  0.00  0.00    -0.320 A 
ATOM     22  C   LIG    1       -8.958  -3.407   2.671  0.00  0.00    +0.280 A 
ATOM     23  N   LIG    1       -7.922  -2.647   2.890  0.00  0.00    -0.270 NA
BRANCH  21  24
ATOM     24  C   LIG    1       -9.456  -5.430   1.160  0.00  0.00    +0.430 C 
ATOM     25  O   LIG    1       -9.021  -6.199   0.329  0.00  0.00    -0.480 OA
ATOM     26  C   LIG    1      -10.880  -5.561   1.635  0.00  0.00    +0.060 C 
ENDBRANCH  21  24
ENDBRANCH  18  19
ENDBRANCH  16  18
ENDBRANCH   1  14
TORSDOF 6
