REMARK  Name = ZINCrH000004t9h5.0
REMARK                            x       y       z     vdW  Elec       q    Type
REMARK                         _______ _______ _______ _____ _____    ______ ____
ROOT
ATOM      1  N   LIG    1       -3.435   0.220   3.364  0.00  0.00    -0.660 N 
ATOM      2  H   LIG    1       -3.524  -0.675   3.000  0.00  0.00    +0.400 HD
ATOM      3  C   LIG    1       -2.615   1.110   2.770  0.00  0.00    +0.710 C 
ATOM      4  N   LIG    1       -1.919   0.756   1.671  0.00  0.00    -0.710 N 
ATOM      5  H   LIG    1       -2.063  -0.112   1.264  0.00  0.00    +0.400 HD
ATOM      6  O   LIG    1       -2.502   2.231   3.226  0.00  0.00    -0.530 OA
ENDROOT
BRANCH   1  12
ATOM      7  C   LIG    1       -5.352  -1.590   4.875  0.00  0.00    +0.360 C 
ATOM      8  N   LIG    1       -5.013  -0.200   5.190  0.00  0.00    -0.390 N 
ATOM      9  N   LIG    1       -5.518   0.549   6.261  0.00  0.00    -0.280 NA
ATOM     10  C   LIG    1       -4.989   1.745   6.213  0.00  0.00    +0.090 A 
ATOM     11  C   LIG    1       -4.126   1.800   5.115  0.00  0.00    -0.070 A 
ATOM     12  C   LIG    1       -4.155   0.586   4.501  0.00  0.00    +0.320 A 
BRANCH  10  13
ATOM     13  C   LIG    1       -5.265   2.871   7.176  0.00  0.00    +0.250 C 
ATOM     14  C   LIG    1       -6.778   3.178   7.226  0.00  0.00    +0.020 C 
ATOM     15  C   LIG    1       -6.845   4.715   7.366  0.00  0.00    +0.000 C 
ATOM     16  C   LIG    1       -5.364   5.155   7.383  0.00  0.00    +0.190 C 
ATOM     17  O   LIG    1       -4.653   4.093   6.709  0.00  0.00    -0.360 OA
ENDBRANCH  10  13
ENDBRANCH   1  12
BRANCH   4  18
ATOM     18  C   LIG    1       -0.945   1.684   1.091  0.00  0.00    +0.210 C 
ATOM     19  C   LIG    1        0.184   2.078   2.059  0.00  0.00    +0.050 C 
ATOM     20  C   LIG    1        0.957   0.857   1.534  0.00  0.00    +0.020 C 
ATOM     21  C   LIG    1        0.136   0.992   0.241  0.00  0.00    +0.050 C 
BRANCH  18  22
ATOM     22  C   LIG    1       -1.591   2.861   0.407  0.00  0.00    -0.170 A 
ATOM     23  C   LIG    1       -1.661   4.084   1.052  0.00  0.00    +0.170 A 
ATOM     24  C   LIG    1       -2.249   5.167   0.420  0.00  0.00    -0.030 A 
ATOM     25  C   LIG    1       -2.778   5.023  -0.849  0.00  0.00    +0.090 A 
ATOM     26  C   LIG    1       -2.714   3.801  -1.491  0.00  0.00    -0.040 A 
ATOM     27  F   LIG    1       -1.150   4.223   2.295  0.00  0.00    -0.110 F 
ATOM     28  C   LIG    1       -2.120   2.719  -0.864  0.00  0.00    +0.140 A 
ATOM     29  F   LIG    1       -2.057   1.524  -1.492  0.00  0.00    -0.130 F 
ENDBRANCH  18  22
ENDBRANCH   4  18
TORSDOF 4
