REMARK  Name = ZINCvU0000000EoW.0
REMARK                            x       y       z     vdW  Elec       q    Type
REMARK                         _______ _______ _______ _____ _____    ______ ____
ROOT
ATOM      1  C   LIG    1        3.707  -0.702  -0.036  0.00  0.00    +0.250 C 
ENDROOT
BRANCH   1   2
ATOM      2  C   LIG    1        2.397   0.042  -0.013  0.00  0.00    -0.120 A 
ATOM      3  C   LIG    1        1.205  -0.659  -0.001  0.00  0.00    +0.030 A 
ATOM      4  C   LIG    1        0.003   0.023   0.021  0.00  0.00    +0.010 A 
ATOM      5  C   LIG    1       -0.008   1.405   0.032  0.00  0.00    +0.030 A 
ATOM      6  C   LIG    1        1.184   2.106   0.022  0.00  0.00    +0.010 A 
ATOM      7  C   LIG    1        2.386   1.424  -0.001  0.00  0.00    +0.040 A 
ENDBRANCH   1   2
BRANCH   1   8
ATOM      8  C   LIG    1        4.225  -0.852   1.371  0.00  0.00    +0.530 C 
ATOM      9  N   LIG    1        3.543  -1.597   2.264  0.00  0.00    -0.660 N 
ATOM     10  H   LIG    1        2.685  -1.980   2.021  0.00  0.00    +0.420 HD
ATOM     11  O   LIG    1        5.255  -0.304   1.700  0.00  0.00    -0.480 OA
BRANCH   9  12
ATOM     12  C   LIG    1        4.071  -1.816   3.541  0.00  0.00    +0.170 A 
ATOM     13  C   LIG    1        3.859  -3.029   4.182  0.00  0.00    +0.020 A 
ATOM     14  C   LIG    1        4.387  -3.246   5.441  0.00  0.00    -0.000 A 
ATOM     15  C   LIG    1        5.117  -2.251   6.067  0.00  0.00    +0.030 A 
ATOM     16  C   LIG    1        5.325  -1.039   5.432  0.00  0.00    -0.000 A 
ATOM     17 CL   LIG    1        6.241   0.207   6.221  0.00  0.00    -0.050 Cl
ATOM     18 CL   LIG    1        4.129  -4.765   6.240  0.00  0.00    -0.050 Cl
ATOM     19  C   LIG    1        4.804  -0.819   4.171  0.00  0.00    +0.050 A 
ENDBRANCH   9  12
ENDBRANCH   1   8
BRANCH   1  20
ATOM     20  O   LIG    1        4.670   0.041  -0.829  0.00  0.00    -0.310 OA
BRANCH  20  21
ATOM     21  C   LIG    1        4.723  -0.237  -2.146  0.00  0.00    +0.520 C 
ATOM     22  O   LIG    1        3.984  -1.078  -2.619  0.00  0.00    -0.490 OA
BRANCH  21  27
ATOM     23  C   LIG    1        7.423   2.115  -3.293  0.00  0.00    +0.160 A 
ATOM     24  C   LIG    1        7.475   1.827  -4.649  0.00  0.00    -0.120 A 
ATOM     25  C   LIG    1        6.632   0.867  -5.191  0.00  0.00    +0.160 A 
ATOM     26  C   LIG    1        5.735   0.192  -4.380  0.00  0.00    +0.030 A 
ATOM     27  C   LIG    1        5.679   0.479  -3.016  0.00  0.00    -0.050 A 
ATOM     28  C   LIG    1        6.525   1.449  -2.475  0.00  0.00    +0.020 A 
BRANCH  23  30
ATOM     29  C   LIG    1        9.148   3.707  -3.669  0.00  0.00    +0.250 C 
ATOM     30  O   LIG    1        8.251   3.056  -2.767  0.00  0.00    -0.310 OA
ENDBRANCH  23  30
BRANCH  25  31
ATOM     31  O   LIG    1        6.688   0.588  -6.520  0.00  0.00    -0.310 OA
ATOM     32  C   LIG    1        7.637   1.321  -7.298  0.00  0.00    +0.250 C 
ENDBRANCH  25  31
ENDBRANCH  21  27
ENDBRANCH  20  21
ENDBRANCH   1  20
TORSDOF 8
