REMARK  Name = ZINCrD000000AbUX.0
REMARK                            x       y       z     vdW  Elec       q    Type
REMARK                         _______ _______ _______ _____ _____    ______ ____
ROOT
ATOM      1  O   LIG    1        1.393   6.082   0.257  0.00  0.00    -0.510 OA
ATOM      2  C   LIG    1        2.416   5.464   0.051  0.00  0.00    +0.510 C 
ATOM      3  N   LIG    1        2.384   4.120  -0.046  0.00  0.00    -0.670 N 
ATOM      4  H   LIG    1        3.209   3.620  -0.144  0.00  0.00    +0.410 HD
ENDROOT
BRANCH   3   5
ATOM      5  C   LIG    1        1.159   3.445  -0.004  0.00  0.00    +0.170 A 
ATOM      6  C   LIG    1        0.137   3.909   0.814  0.00  0.00    -0.010 A 
ATOM      7  C   LIG    1       -1.073   3.243   0.857  0.00  0.00    +0.060 A 
ATOM      8  C   LIG    1       -1.272   2.116   0.082  0.00  0.00    -0.040 A 
ATOM      9  C   LIG    1       -0.252   1.643  -0.734  0.00  0.00    +0.200 A 
ATOM     10  C   LIG    1        0.964   2.310  -0.778  0.00  0.00    -0.020 A 
BRANCH   9  11
ATOM     11  N   LIG    1       -0.452   0.499  -1.514  0.00  0.00    -0.570 N 
ATOM     12  C   LIG    1       -1.639  -0.368  -1.465  0.00  0.00    +0.270 C 
ATOM     13  C   LIG    1       -1.343  -1.458  -2.513  0.00  0.00    +0.270 C 
ATOM     14  N   LIG    1       -0.017  -1.095  -3.035  0.00  0.00    -0.740 N 
ATOM     15  H   LIG    1        0.472  -1.582  -3.716  0.00  0.00    +0.430 HD
ATOM     16  C   LIG    1        0.409   0.016  -2.419  0.00  0.00    +0.700 C 
ATOM     17  O   LIG    1        1.480   0.538  -2.659  0.00  0.00    -0.570 OA
ENDBRANCH   9  11
ENDBRANCH   3   5
BRANCH   2  18
ATOM     18  C   LIG    1        3.723   6.198  -0.097  0.00  0.00    +0.060 C 
BRANCH  18  19
ATOM     19  C   LIG    1        3.483   7.702   0.054  0.00  0.00    +0.060 C 
BRANCH  19  20
ATOM     20  C   LIG    1        4.811   8.448  -0.097  0.00  0.00    +0.030 C 
BRANCH  20  21
ATOM     21  C   LIG    1        4.574   9.929   0.052  0.00  0.00    +0.400 C 
ATOM     22  O   LIG    1        3.454  10.346   0.258  0.00  0.00    -0.440 OA
BRANCH  21  23
ATOM     23  C   LIG    1        5.701  10.867  -0.052  0.00  0.00    -0.180 A 
ATOM     24  C   LIG    1        6.995  10.388  -0.284  0.00  0.00    +0.100 A 
ATOM     25  C   LIG    1        8.046  11.273  -0.385  0.00  0.00    -0.030 A 
ATOM     26  C   LIG    1        7.825  12.636  -0.248  0.00  0.00    +0.130 A 
ATOM     27  C   LIG    1        6.545  13.117  -0.013  0.00  0.00    -0.030 A 
ATOM     28  F   LIG    1        8.861  13.498  -0.343  0.00  0.00    -0.130 F 
ATOM     29  C   LIG    1        5.485  12.243   0.085  0.00  0.00    +0.120 A 
ENDBRANCH  21  23
ENDBRANCH  20  21
ENDBRANCH  19  20
ENDBRANCH  18  19
ENDBRANCH   2  18
TORSDOF 7
