REMARK  Name = ZINCpe000000UUWG.0
REMARK                            x       y       z     vdW  Elec       q    Type
REMARK                         _______ _______ _______ _____ _____    ______ ____
ROOT
ATOM      1  C   LIG    1       -1.003   2.843   1.357  0.00  0.00    +0.220 C 
ATOM      2  C   LIG    1       -1.778   3.351   0.138  0.00  0.00    +0.040 C 
ATOM      3  C   LIG    1       -0.942   3.126  -1.124  0.00  0.00    +0.020 C 
ATOM      4  C   LIG    1       -0.684   1.628  -1.306  0.00  0.00    +0.010 C 
ATOM      5  C   LIG    1        0.104   1.100  -0.103  0.00  0.00    +0.280 C 
ATOM      6  N   LIG    1       -0.621   1.442   1.128  0.00  0.00    -0.600 N 
ATOM      7  C   LIG    1       -0.934   0.489   2.028  0.00  0.00    +0.520 C 
ATOM      8  O   LIG    1       -1.591   0.772   3.007  0.00  0.00    -0.500 OA
ENDROOT
BRANCH   1  12
ATOM      9  C   LIG    1       -2.279   3.686   4.866  0.00  0.00    +0.290 C 
ATOM     10  N   LIG    1       -1.433   3.595   3.673  0.00  0.00    -0.740 N 
ATOM     11  H   LIG    1       -0.557   4.011   3.668  0.00  0.00    +0.400 HD
ATOM     12  C   LIG    1       -1.873   2.936   2.584  0.00  0.00    +0.530 C 
ATOM     13  O   LIG    1       -2.969   2.416   2.590  0.00  0.00    -0.510 OA
ENDBRANCH   1  12
BRANCH   7  14
ATOM     14  C   LIG    1       -0.468  -0.929   1.817  0.00  0.00    +0.050 C 
BRANCH  14  15
ATOM     15  C   LIG    1       -0.954  -1.803   2.974  0.00  0.00    +0.350 C 
BRANCH  15  16
ATOM     16  N   LIG    1       -0.501  -3.181   2.769  0.00  0.00    -0.540 N 
ATOM     17  C   LIG    1       -1.176  -4.143   2.113  0.00  0.00    +0.680 A 
ATOM     18  N   LIG    1       -0.460  -5.283   2.117  0.00  0.00    -0.540 N 
ATOM     19  C   LIG    1        0.726  -5.054   2.811  0.00  0.00    +0.090 A 
ATOM     20  C   LIG    1        1.814  -5.854   3.126  0.00  0.00    +0.030 A 
ATOM     21  C   LIG    1        2.868  -5.327   3.847  0.00  0.00    +0.020 A 
ATOM     22  C   LIG    1        2.842  -4.006   4.257  0.00  0.00    +0.020 A 
ATOM     23  C   LIG    1        1.762  -3.201   3.949  0.00  0.00    +0.030 A 
ATOM     24  C   LIG    1       -0.861  -6.550   1.501  0.00  0.00    +0.340 C 
ATOM     25  O   LIG    1       -2.267  -4.003   1.593  0.00  0.00    -0.550 OA
ATOM     26  C   LIG    1        0.700  -3.720   3.225  0.00  0.00    +0.090 A 
ENDBRANCH  15  16
ENDBRANCH  14  15
ENDBRANCH   7  14
TORSDOF 4
