REMARK  Name = ZINCrH000004jND5.0
REMARK                            x       y       z     vdW  Elec       q    Type
REMARK                         _______ _______ _______ _____ _____    ______ ____
ROOT
ATOM      1  C   LIG    1        1.346   2.010   0.000  0.00  0.00    +0.190 C 
ATOM      2  N   LIG    1       -0.018   1.465   0.010  0.00  0.00    -0.520 NA
ENDROOT
BRANCH   2   3
ATOM      3  C   LIG    1        0.002  -0.004   0.002  0.00  0.00    +0.250 C 
BRANCH   3   4
ATOM      4  C   LIG    1        0.598  -0.505   1.292  0.00  0.00    -0.230 A 
ATOM      5  C   LIG    1        1.908  -0.759   1.518  0.00  0.00    +0.230 A 
ATOM      6  N   LIG    1        2.030  -1.187   2.792  0.00  0.00    -0.370 N 
ATOM      7  N   LIG    1        0.751  -1.205   3.365  0.00  0.00    -0.290 NA
ATOM      8  C   LIG    1       -0.106  -0.796   2.466  0.00  0.00    +0.250 A 
BRANCH   6   9
ATOM      9  C   LIG    1        3.278  -1.571   3.457  0.00  0.00    +0.370 C 
BRANCH   9  10
ATOM     10  C   LIG    1        3.437  -0.774   4.726  0.00  0.00    -0.110 A 
ATOM     11  C   LIG    1        4.099   0.439   4.702  0.00  0.00    +0.020 A 
ATOM     12  C   LIG    1        4.241   1.173   5.865  0.00  0.00    +0.000 A 
ATOM     13  C   LIG    1        3.729   0.689   7.054  0.00  0.00    +0.010 A 
ATOM     14  C   LIG    1        3.071  -0.527   7.079  0.00  0.00    +0.000 A 
ATOM     15  C   LIG    1        2.925  -1.258   5.915  0.00  0.00    +0.040 A 
ENDBRANCH   9  10
ENDBRANCH   6   9
ENDBRANCH   3   4
ENDBRANCH   2   3
BRANCH   2  16
ATOM     16  C   LIG    1       -0.802   1.987  -1.117  0.00  0.00    +0.180 C 
BRANCH  16  17
ATOM     17  C   LIG    1       -1.007   3.470  -0.943  0.00  0.00    +0.420 C 
ATOM     18  O   LIG    1       -0.545   4.036   0.027  0.00  0.00    -0.450 OA
BRANCH  17  19
ATOM     19  C   LIG    1       -1.739   4.202  -1.910  0.00  0.00    -0.270 A 
ATOM     20  C   LIG    1       -2.317   3.708  -3.060  0.00  0.00    +0.310 A 
ATOM     21  N   LIG    1       -2.930   4.707  -3.723  0.00  0.00    -0.570 N 
ATOM     22  H   LIG    1       -3.409   4.601  -4.560  0.00  0.00    +0.420 HD
ATOM     23  C   LIG    1       -2.778   5.904  -3.052  0.00  0.00    +0.070 A 
ATOM     24  C   LIG    1       -3.207   7.201  -3.315  0.00  0.00    +0.000 A 
ATOM     25  C   LIG    1       -2.894   8.219  -2.441  0.00  0.00    +0.030 A 
ATOM     26  C   LIG    1       -2.156   7.965  -1.295  0.00  0.00    +0.000 A 
ATOM     27  C   LIG    1       -1.722   6.687  -1.017  0.00  0.00    +0.060 A 
ATOM     28  C   LIG    1       -2.030   5.649  -1.892  0.00  0.00    -0.060 A 
ENDBRANCH  17  19
ENDBRANCH  16  17
ENDBRANCH   2  16
TORSDOF 7
