REMARK  Name = ZINCrD000000ADbu.0
REMARK                            x       y       z     vdW  Elec       q    Type
REMARK                         _______ _______ _______ _____ _____    ______ ____
ROOT
ATOM      1  O   LIG    1        3.480   3.721  -0.355  0.00  0.00    -0.510 OA
ATOM      2  C   LIG    1        2.501   4.304   0.059  0.00  0.00    +0.500 C 
ATOM      3  N   LIG    1        1.466   3.607   0.568  0.00  0.00    -0.720 N 
ATOM      4  H   LIG    1        0.683   4.074   0.899  0.00  0.00    +0.400 HD
ENDROOT
BRANCH   3   5
ATOM      5  C   LIG    1        1.524   2.144   0.621  0.00  0.00    +0.290 C 
ATOM      6  C   LIG    1        0.103   1.584   0.627  0.00  0.00    +0.020 C 
ATOM      7  C   LIG    1        0.179   0.077   0.899  0.00  0.00    +0.030 C 
ATOM      8  C   LIG    1        0.612  -0.130   2.349  0.00  0.00    +0.080 C 
ATOM      9  C   LIG    1        1.851   0.671   2.651  0.00  0.00    -0.070 A 
ATOM     10  C   LIG    1        2.589   0.323   3.775  0.00  0.00    -0.010 A 
ATOM     11  C   LIG    1        3.731   1.022   4.108  0.00  0.00    +0.010 A 
ATOM     12  C   LIG    1        4.144   2.078   3.318  0.00  0.00    +0.000 A 
ATOM     13  C   LIG    1        3.414   2.425   2.200  0.00  0.00    +0.020 A 
ATOM     14  C   LIG    1        2.265   1.721   1.861  0.00  0.00    -0.100 A 
ENDBRANCH   3   5
BRANCH   2  15
ATOM     15  C   LIG    1        2.441   5.809   0.005  0.00  0.00    +0.370 C 
BRANCH  15  16
ATOM     16  N   LIG    1        3.678   6.326  -0.585  0.00  0.00    -0.530 N 
ATOM     17  C   LIG    1        4.854   6.580   0.038  0.00  0.00    +0.570 A 
ATOM     18  O   LIG    1        5.690   7.036  -0.907  0.00  0.00    +0.010 OA
ATOM     19  N   LIG    1        5.141   7.081  -1.984  0.00  0.00    -0.310 NA
ATOM     20  O   LIG    1        5.102   6.424   1.219  0.00  0.00    -0.470 OA
ATOM     21  C   LIG    1        3.910   6.672  -1.909  0.00  0.00    +0.280 A 
BRANCH  21  22
ATOM     22  C   LIG    1        2.939   6.590  -3.024  0.00  0.00    -0.030 A 
ATOM     23  C   LIG    1        3.232   5.827  -4.153  0.00  0.00    +0.080 A 
ATOM     24  C   LIG    1        2.323   5.754  -5.189  0.00  0.00    +0.030 A 
ATOM     25  C   LIG    1        1.122   6.436  -5.109  0.00  0.00    +0.060 A 
ATOM     26  C   LIG    1        0.825   7.196  -3.992  0.00  0.00    +0.040 A 
ATOM     27  C   LIG    1        1.723   7.272  -2.946  0.00  0.00    -0.020 A 
ATOM     28 CL   LIG    1        1.345   8.220  -1.542  0.00  0.00    -0.050 Cl
ENDBRANCH  21  22
ENDBRANCH  15  16
ENDBRANCH   2  15
TORSDOF 4
