REMARK  Name = ZINCpk00000xIlmK.0
REMARK                            x       y       z     vdW  Elec       q    Type
REMARK                         _______ _______ _______ _____ _____    ______ ____
ROOT
ATOM      1  O   LIG    1        1.239   8.128  -0.674  0.00  0.00    -0.580 OA
ATOM      2  C   LIG    1        1.086   7.355  -1.601  0.00  0.00    +0.710 C 
ATOM      3  N   LIG    1        0.847   6.051  -1.358  0.00  0.00    -0.740 N 
ATOM      4  H   LIG    1        0.725   5.435  -2.097  0.00  0.00    +0.400 HD
ATOM      5  N   LIG    1        1.156   7.802  -2.870  0.00  0.00    -0.750 N 
ATOM      6  H   LIG    1        1.034   7.186  -3.609  0.00  0.00    +0.400 HD
ENDROOT
BRANCH   3   7
ATOM      7  C   LIG    1        0.771   5.565   0.022  0.00  0.00    +0.350 C 
BRANCH   7   8
ATOM      8  C   LIG    1        0.496   4.083   0.018  0.00  0.00    -0.100 A 
ATOM      9  C   LIG    1       -0.808   3.624   0.028  0.00  0.00    +0.050 A 
ATOM     10  C   LIG    1       -1.065   2.265   0.019  0.00  0.00    +0.040 A 
ATOM     11  C   LIG    1       -0.016   1.361   0.009  0.00  0.00    +0.040 A 
ATOM     12  O   LIG    1        0.002  -0.004   0.002  0.00  0.00    -0.310 OA
ATOM     13  C   LIG    1        1.336  -0.373   0.399  0.00  0.00    +0.430 C 
ATOM     14  O   LIG    1        2.139   0.749  -0.014  0.00  0.00    -0.310 OA
ATOM     15  C   LIG    1        1.297   1.824  -0.001  0.00  0.00    +0.030 A 
ATOM     16  C   LIG    1        1.548   3.186   0.004  0.00  0.00    +0.060 A 
ENDBRANCH   7   8
ENDBRANCH   3   7
BRANCH   5  17
ATOM     17  C   LIG    1        1.416   9.220  -3.134  0.00  0.00    +0.290 C 
BRANCH  17  18
ATOM     18  C   LIG    1        1.445   9.460  -4.644  0.00  0.00    +0.160 C 
BRANCH  18  19
ATOM     19  C   LIG    1        1.713  10.918  -4.916  0.00  0.00    +0.140 A 
ATOM     20  N   LIG    1        2.888  11.474  -5.066  0.00  0.00    -0.240 NA
ATOM     21  N   LIG    1        2.760  12.735  -5.286  0.00  0.00    -0.290 NA
ATOM     22  C   LIG    1        1.476  13.055  -5.287  0.00  0.00    +0.190 A 
ATOM     23  C   LIG    1        0.779  14.265  -5.473  0.00  0.00    +0.080 A 
ATOM     24  C   LIG    1       -0.580  14.261  -5.428  0.00  0.00    +0.060 A 
ATOM     25  C   LIG    1       -1.267  13.059  -5.186  0.00  0.00    +0.030 A 
ATOM     26  C   LIG    1       -0.586  11.909  -5.005  0.00  0.00    +0.230 A 
ATOM     27  N   LIG    1        0.777  11.896  -5.055  0.00  0.00    -0.390 N 
ENDBRANCH  18  19
ENDBRANCH  17  18
ENDBRANCH   5  17
TORSDOF 5
