REMARK  Name = ZINCvU00000005Tw.0
REMARK                            x       y       z     vdW  Elec       q    Type
REMARK                         _______ _______ _______ _____ _____    ______ ____
ROOT
ATOM      1  N   LIG    1       -3.347   5.578   0.234  0.00  0.00    -0.720 N 
ATOM      2  H   LIG    1       -3.243   4.616   0.163  0.00  0.00    +0.400 HD
ATOM      3  C   LIG    1       -4.329   6.095   0.999  0.00  0.00    +0.520 C 
ATOM      4  O   LIG    1       -4.459   7.297   1.088  0.00  0.00    -0.530 OA
ENDROOT
BRANCH   3   5
ATOM      5  C   LIG    1       -5.264   5.179   1.745  0.00  0.00    -0.010 C 
ATOM      6  C   LIG    1       -6.005   4.284   0.748  0.00  0.00    +0.040 C 
ATOM      7  C   LIG    1       -6.929   3.330   1.512  0.00  0.00    +0.280 C 
ATOM      8  N   LIG    1       -7.809   4.122   2.382  0.00  0.00    -0.610 N 
ATOM      9  C   LIG    1       -7.204   5.080   3.316  0.00  0.00    +0.270 C 
ATOM     10  C   LIG    1       -9.148   3.970   2.325  0.00  0.00    +0.560 C 
ATOM     11  O   LIG    1       -9.642   3.251   1.479  0.00  0.00    -0.530 OA
ATOM     12  C   LIG    1       -6.277   6.014   2.532  0.00  0.00    +0.060 C 
BRANCH  10  13
ATOM     13  C   LIG    1      -10.014   4.679   3.290  0.00  0.00    -0.130 A 
ATOM     14  C   LIG    1       -9.589   4.866   4.606  0.00  0.00    +0.060 A 
ATOM     15  C   LIG    1      -10.399   5.532   5.502  0.00  0.00    +0.020 A 
ATOM     16  C   LIG    1      -11.637   6.007   5.099  0.00  0.00    -0.010 A 
ATOM     17  C   LIG    1      -12.066   5.819   3.795  0.00  0.00    +0.030 A 
ATOM     18 CL   LIG    1      -12.654   6.839   6.233  0.00  0.00    -0.060 Cl
ATOM     19  C   LIG    1      -11.262   5.159   2.890  0.00  0.00    +0.090 A 
ENDBRANCH  10  13
ENDBRANCH   3   5
BRANCH   1  20
ATOM     20  C   LIG    1       -2.438   6.469  -0.491  0.00  0.00    +0.250 C 
BRANCH  20  21
ATOM     21  C   LIG    1       -1.867   5.735  -1.707  0.00  0.00    -0.060 C 
ATOM     22  C   LIG    1       -1.103   4.495  -1.241  0.00  0.00    +0.030 C 
ATOM     23  C   LIG    1       -0.532   3.761  -2.457  0.00  0.00    -0.020 C 
ATOM     24  C   LIG    1       -1.676   3.338  -3.380  0.00  0.00    +0.010 C 
ATOM     25  C   LIG    1       -2.441   4.579  -3.846  0.00  0.00    -0.020 C 
ATOM     26  C   LIG    1       -1.491   5.509  -4.603  0.00  0.00    +0.010 C 
ATOM     27  C   LIG    1       -0.347   5.932  -3.679  0.00  0.00    -0.020 C 
ATOM     28  C   LIG    1        0.418   4.691  -3.214  0.00  0.00    +0.010 C 
ATOM     29  C   LIG    1       -3.011   5.312  -2.631  0.00  0.00    +0.020 C 
ATOM     30  C   LIG    1       -0.917   6.665  -2.464  0.00  0.00    +0.030 C 
ENDBRANCH  20  21
BRANCH  20  32
ATOM     31  C   LIG    1       -1.852   7.732   1.583  0.00  0.00    +0.010 C 
ATOM     32  C   LIG    1       -1.294   6.891   0.433  0.00  0.00    -0.010 C 
ENDBRANCH  20  32
ENDBRANCH   1  20
TORSDOF 5
