REMARK  Name = ZINCvU0000000HpD.0
REMARK                            x       y       z     vdW  Elec       q    Type
REMARK                         _______ _______ _______ _____ _____    ______ ____
ROOT
ATOM      1  C   LIG    1        3.531  -2.066   0.067  0.00  0.00    +0.160 C 
ATOM      2  C   LIG    1        3.465  -2.470   1.543  0.00  0.00    +0.030 C 
ATOM      3  C   LIG    1        3.471  -3.997   1.649  0.00  0.00    +0.180 C 
ATOM      4  N   LIG    1        4.692  -4.528   1.031  0.00  0.00    -0.520 NA
ATOM      5  C   LIG    1        4.753  -4.194  -0.398  0.00  0.00    +0.200 C 
ATOM      6  C   LIG    1        4.787  -2.673  -0.565  0.00  0.00    +0.060 C 
ENDROOT
BRANCH   4   7
ATOM      7  C   LIG    1        4.797  -5.979   1.236  0.00  0.00    +0.260 C 
ATOM      8  C   LIG    1        6.128  -6.479   0.672  0.00  0.00    +0.080 C 
BRANCH   7   9
ATOM      9  C   LIG    1        4.731  -6.284   2.711  0.00  0.00    +0.160 A 
ATOM     10  N   LIG    1        5.373  -5.656   3.656  0.00  0.00    -0.250 NA
ATOM     11  N   LIG    1        5.080  -6.178   4.795  0.00  0.00    -0.280 NA
ATOM     12  C   LIG    1        4.240  -7.170   4.613  0.00  0.00    +0.210 A 
ATOM     13  O   LIG    1        4.003  -7.255   3.289  0.00  0.00    -0.220 OA
BRANCH  12  14
ATOM     14  C   LIG    1        3.661  -8.033   5.665  0.00  0.00    -0.030 A 
ATOM     15  C   LIG    1        2.770  -9.051   5.324  0.00  0.00    +0.040 A 
ATOM     16  C   LIG    1        2.237  -9.856   6.309  0.00  0.00    +0.010 A 
ATOM     17  C   LIG    1        2.575  -9.648   7.634  0.00  0.00    -0.060 A 
ATOM     18  C   LIG    1        3.454  -8.637   7.980  0.00  0.00    -0.090 A 
ATOM     19  C   LIG    1        3.817  -8.418   9.426  0.00  0.00    +0.100 C 
ATOM     20  C   LIG    1        1.985 -10.528   8.706  0.00  0.00    +0.110 C 
ATOM     21  C   LIG    1        3.998  -7.828   7.003  0.00  0.00    +0.080 A 
ENDBRANCH  12  14
ENDBRANCH   7   9
ENDBRANCH   4   7
BRANCH   1  22
ATOM     22  O   LIG    1        3.585  -0.642  -0.036  0.00  0.00    -0.290 OA
BRANCH  22  28
ATOM     23  C   LIG    1        2.368   1.399  -0.233  0.00  0.00    +0.100 A 
ATOM     24  C   LIG    1        1.157   2.072  -0.216  0.00  0.00    -0.040 A 
ATOM     25  C   LIG    1       -0.017   1.378   0.012  0.00  0.00    +0.010 A 
ATOM     26  C   LIG    1        0.014   0.012   0.222  0.00  0.00    +0.010 A 
ATOM     27  C   LIG    1        1.219  -0.666   0.207  0.00  0.00    -0.050 A 
ATOM     28  C   LIG    1        2.399   0.024  -0.020  0.00  0.00    +0.100 A 
BRANCH  23  29
ATOM     29  O   LIG    1        3.524   2.080  -0.456  0.00  0.00    -0.300 OA
BRANCH  29  31
ATOM     30  C   LIG    1        4.808   4.079  -0.899  0.00  0.00    +0.070 C 
ATOM     31  C   LIG    1        3.416   3.490  -0.666  0.00  0.00    +0.170 C 
ENDBRANCH  29  31
ENDBRANCH  23  29
ENDBRANCH  22  28
ENDBRANCH   1  22
TORSDOF 7
