REMARK  Name = ZINCvU0000000J2r.0
REMARK                            x       y       z     vdW  Elec       q    Type
REMARK                         _______ _______ _______ _____ _____    ______ ____
ROOT
ATOM      1  N   LIG    1       -1.058  -0.502  -0.878  0.00  0.00    -0.690 N 
ATOM      2  H   LIG    1       -1.840   0.045  -1.053  0.00  0.00    +0.420 HD
ENDROOT
BRANCH   1   3
ATOM      3  C   LIG    1       -0.943  -1.754  -1.462  0.00  0.00    +0.460 A 
ATOM      4  C   LIG    1        0.182  -2.547  -1.222  0.00  0.00    -0.080 A 
ATOM      5  C   LIG    1        0.251  -3.791  -1.821  0.00  0.00    +0.130 A 
ATOM      6  N   LIG    1       -0.737  -4.187  -2.607  0.00  0.00    -0.510 NA
ATOM      7  C   LIG    1       -1.791  -3.411  -2.821  0.00  0.00    +0.410 A 
ATOM      8  N   LIG    1       -1.898  -2.215  -2.261  0.00  0.00    -0.540 NA
BRANCH   7   9
ATOM      9  C   LIG    1       -2.877  -3.894  -3.710  0.00  0.00    -0.010 A 
ATOM     10  C   LIG    1       -4.005  -3.109  -3.956  0.00  0.00    +0.030 A 
ATOM     11  C   LIG    1       -4.989  -3.594  -4.794  0.00  0.00    +0.250 A 
ATOM     12  N   LIG    1       -4.879  -4.786  -5.349  0.00  0.00    -0.470 NA
ATOM     13  C   LIG    1       -3.833  -5.561  -5.138  0.00  0.00    +0.250 A 
ATOM     14  C   LIG    1       -2.800  -5.150  -4.318  0.00  0.00    +0.030 A 
ENDBRANCH   7   9
BRANCH   5  15
ATOM     15  C   LIG    1        1.442  -4.684  -1.586  0.00  0.00    +0.520 C 
ATOM     16  F   LIG    1        1.484  -5.062  -0.240  0.00  0.00    -0.170 F 
ATOM     17  F   LIG    1        2.615  -3.993  -1.913  0.00  0.00    -0.160 F 
ATOM     18  F   LIG    1        1.335  -5.825  -2.389  0.00  0.00    -0.160 F 
ENDBRANCH   5  15
ENDBRANCH   1   3
BRANCH   1  19
ATOM     19  C   LIG    1        0.002  -0.004   0.002  0.00  0.00    +0.360 C 
BRANCH  19  24
ATOM     20  C   LIG    1       -0.076   5.774   0.033  0.00  0.00    +0.090 C 
ATOM     21  C   LIG    1       -0.056   4.267   0.025  0.00  0.00    -0.080 A 
ATOM     22  C   LIG    1        1.151   3.592   0.010  0.00  0.00    +0.010 A 
ATOM     23  C   LIG    1        1.169   2.210   0.003  0.00  0.00    +0.050 A 
ATOM     24  C   LIG    1       -0.018   1.503   0.010  0.00  0.00    -0.090 A 
ATOM     25  C   LIG    1       -1.225   2.178   0.020  0.00  0.00    +0.010 A 
ATOM     26  C   LIG    1       -1.244   3.560   0.032  0.00  0.00    +0.000 A 
ENDBRANCH  19  24
BRANCH  19  27
ATOM     27  C   LIG    1       -0.224  -0.517   1.401  0.00  0.00    +0.110 A 
ATOM     28  C   LIG    1       -1.255  -1.405   1.644  0.00  0.00    -0.030 A 
ATOM     29  C   LIG    1       -1.452  -1.875   2.933  0.00  0.00    +0.070 A 
ATOM     30  C   LIG    1       -0.608  -1.424   3.936  0.00  0.00    -0.030 A 
ATOM     31  C   LIG    1        0.399  -0.531   3.619  0.00  0.00    +0.270 A 
ATOM     32  N   LIG    1        0.559  -0.109   2.380  0.00  0.00    -0.470 NA
ENDBRANCH  19  27
ENDBRANCH   1  19
TORSDOF 6
