REMARK  Name = ZINCpe00000yD2NB.2
REMARK                            x       y       z     vdW  Elec       q    Type
REMARK                         _______ _______ _______ _____ _____    ______ ____
ROOT
ATOM      1  C   LIG    1       -2.714   4.796   4.670  0.00  0.00    +0.520 C 
ATOM      2  N   LIG    1       -2.597   4.548   3.350  0.00  0.00    -0.640 N 
ATOM      3  C   LIG    1       -1.962   3.480   2.551  0.00  0.00    +0.280 C 
ATOM      4  C   LIG    1       -2.953   3.867   1.454  0.00  0.00    -0.090 C 
ATOM      5  C   LIG    1       -4.252   3.048   1.408  0.00  0.00    +0.210 C 
ATOM      6  N   LIG    1       -4.682   3.119  -0.015  0.00  0.00    -0.510 NA
ATOM      7  C   LIG    1       -3.416   3.029  -0.788  0.00  0.00    +0.190 C 
ATOM      8  C   LIG    1       -5.583   2.008  -0.348  0.00  0.00    +0.180 C 
ATOM      9  C   LIG    1       -2.400   3.864   0.025  0.00  0.00    +0.080 C 
ATOM     10  C   LIG    1       -3.053   5.237   2.125  0.00  0.00    +0.320 C 
ATOM     11  O   LIG    1       -2.149   4.084   5.473  0.00  0.00    -0.530 OA
ENDROOT
BRANCH   9  12
ATOM     12  C   LIG    1       -1.039   3.218  -0.011  0.00  0.00    +0.230 A 
ATOM     13  C   LIG    1       -0.918   1.837   0.018  0.00  0.00    -0.150 A 
ATOM     14  C   LIG    1        0.352   1.283  -0.011  0.00  0.00    +0.370 A 
ATOM     15  N   LIG    1        1.404   2.083  -0.076  0.00  0.00    -0.570 NA
ATOM     16  C   LIG    1        1.253   3.399  -0.108  0.00  0.00    +0.570 A 
ATOM     17  N   LIG    1        0.053   3.960  -0.076  0.00  0.00    -0.570 NA
BRANCH  16  18
ATOM     18  N   LIG    1        2.375   4.206  -0.176  0.00  0.00    -0.820 N 
ATOM     19  H   LIG    1        2.278   5.171  -0.200  0.00  0.00    +0.420 HD
ATOM     20  H   LIG    1        3.259   3.807  -0.200  0.00  0.00    +0.420 HD
ENDBRANCH  16  18
ENDBRANCH   9  12
BRANCH   1  21
ATOM     21  C   LIG    1       -3.546   5.957   5.148  0.00  0.00    +0.110 C 
ATOM     22  C   LIG    1       -3.115   6.367   6.571  0.00  0.00    +0.030 C 
ATOM     23  C   LIG    1       -4.440   6.756   7.273  0.00  0.00    +0.020 C 
ATOM     24  C   LIG    1       -5.442   5.715   6.714  0.00  0.00    +0.030 C 
ATOM     25  C   LIG    1       -5.026   5.543   5.239  0.00  0.00    +0.060 C 
BRANCH  21  27
ATOM     26  C   LIG    1       -2.053   7.510   4.096  0.00  0.00    +0.200 C 
ATOM     27  O   LIG    1       -3.401   7.064   4.255  0.00  0.00    -0.360 OA
ENDBRANCH  21  27
ENDBRANCH   1  21
TORSDOF 4
