REMARK  Name = ZINCrD00000eL8eE.0
REMARK                            x       y       z     vdW  Elec       q    Type
REMARK                         _______ _______ _______ _____ _____    ______ ____
ROOT
ATOM      1  N   LIG    1       -2.591  -3.304   0.305  0.00  0.00    -0.540 NA
ATOM      2  C   LIG    1       -1.245  -3.313   0.908  0.00  0.00    +0.270 C 
ATOM      3  C   LIG    1       -0.512  -2.093   0.378  0.00  0.00    -0.220 A 
ATOM      4  C   LIG    1       -0.873  -0.819   0.631  0.00  0.00    +0.110 A 
ATOM      5  N   LIG    1        0.002  -0.004   0.002  0.00  0.00    -0.330 N 
ATOM      6  N   LIG    1        0.931  -0.819  -0.666  0.00  0.00    -0.290 NA
ATOM      7  C   LIG    1       -2.067  -0.423   1.481  0.00  0.00    +0.120 C 
ATOM      8  C   LIG    1       -3.321  -0.935   0.753  0.00  0.00    -0.050 C 
ATOM      9  C   LIG    1       -4.548  -0.185   1.275  0.00  0.00    +0.040 C 
ATOM     10  C   LIG    1       -3.173  -0.676  -0.748  0.00  0.00    +0.040 C 
ATOM     11  C   LIG    1        0.622  -2.072  -0.432  0.00  0.00    +0.270 A 
ATOM     12  C   LIG    1       -3.507  -2.415   0.986  0.00  0.00    +0.180 C 
ENDROOT
BRANCH   5  13
ATOM     13  C   LIG    1       -0.017   1.395   0.010  0.00  0.00    +0.210 A 
ATOM     14  C   LIG    1       -1.222   2.093   0.019  0.00  0.00    -0.050 A 
ATOM     15  C   LIG    1       -1.198   3.473   0.031  0.00  0.00    +0.290 A 
ATOM     16  N   LIG    1       -0.054   4.130   0.024  0.00  0.00    -0.490 NA
ATOM     17  C   LIG    1        1.108   3.504   0.010  0.00  0.00    +0.290 A 
ATOM     18  C   LIG    1        1.169   2.126   0.002  0.00  0.00    -0.020 A 
ENDBRANCH   5  13
BRANCH   1  19
ATOM     19  C   LIG    1       -3.140  -4.664   0.223  0.00  0.00    +0.290 C 
BRANCH  19  23
ATOM     20  C   LIG    1       -1.256  -6.670  -2.616  0.00  0.00    +0.000 A 
ATOM     21  N   LIG    1       -0.702  -6.838  -1.462  0.00  0.00    -0.470 NA
ATOM     22  C   LIG    1       -1.247  -6.215  -0.437  0.00  0.00    +0.210 A 
ATOM     23  C   LIG    1       -2.320  -5.480  -0.743  0.00  0.00    -0.210 A 
ATOM     24  S   LIG    1       -2.612  -5.638  -2.473  0.00  0.00    +0.160 S 
BRANCH  20  26
ATOM     25  C   LIG    1       -1.161  -8.778  -3.918  0.00  0.00    +0.040 C 
ATOM     26  C   LIG    1       -0.780  -7.296  -3.901  0.00  0.00    +0.310 C 
BRANCH  26  27
ATOM     27  O   LIG    1        0.640  -7.169  -3.995  0.00  0.00    -0.550 OA
ATOM     28  H   LIG    1        1.123  -7.596  -3.274  0.00  0.00    +0.390 HD
ENDBRANCH  26  27
ENDBRANCH  20  26
ENDBRANCH  19  23
ENDBRANCH   1  19
TORSDOF 5
