REMARK  Name = ZINCAx0000000baX.1
REMARK                            x       y       z     vdW  Elec       q    Type
REMARK                         _______ _______ _______ _____ _____    ______ ____
ROOT
ATOM      1  C   LIG    1        0.618  -1.857  -1.593  0.00  0.00    -0.690 A 
ATOM      2  C   LIG    1        1.114  -2.331  -2.792  0.00  0.00    +0.150 A 
ATOM      3  C   LIG    1        1.743  -1.464  -3.675  0.00  0.00    +0.090 A 
ATOM      4  C   LIG    1        1.869  -0.119  -3.354  0.00  0.00    +0.130 A 
ATOM      5  C   LIG    1        1.367   0.356  -2.158  0.00  0.00    -0.070 A 
ATOM      6  C   LIG    1        0.739  -0.511  -1.276  0.00  0.00    +0.220 A 
ENDROOT
BRANCH   3   7
ATOM      7  N   LIG    1        2.251  -1.946  -4.888  0.00  0.00    -0.670 N 
ATOM      8  H   LIG    1        1.793  -2.661  -5.356  0.00  0.00    +0.420 HD
ATOM      9  C   LIG    1        3.377  -1.415  -5.406  0.00  0.00    +0.520 C 
ATOM     10  O   LIG    1        3.999  -0.584  -4.779  0.00  0.00    -0.500 OA
BRANCH   9  11
ATOM     11  C   LIG    1        3.862  -1.854  -6.763  0.00  0.00    +0.270 C 
BRANCH  11  12
ATOM     12  O   LIG    1        5.064  -1.154  -7.089  0.00  0.00    -0.260 OA
BRANCH  12  13
ATOM     13  C   LIG    1        5.636  -1.435  -8.287  0.00  0.00    +0.340 A 
ATOM     14  N   LIG    1        5.087  -2.311  -9.083  0.00  0.00    -0.320 NA
ATOM     15  N   LIG    1        5.628  -2.641 -10.325  0.00  0.00    -0.510 N 
ATOM     16  H   LIG    1        5.177  -3.300 -10.876  0.00  0.00    +0.440 HD
ATOM     17  C   LIG    1        6.761  -2.068 -10.783  0.00  0.00    +0.530 A 
ATOM     18  C   LIG    1        7.439  -1.071  -9.944  0.00  0.00    -0.110 A 
ATOM     19  C   LIG    1        8.613  -0.440 -10.353  0.00  0.00    +0.090 A 
ATOM     20  C   LIG    1        9.208   0.488  -9.527  0.00  0.00    +0.040 A 
ATOM     21  C   LIG    1        8.651   0.799  -8.293  0.00  0.00    +0.050 A 
ATOM     22  C   LIG    1        7.492   0.188  -7.870  0.00  0.00    +0.070 A 
ATOM     23  O   LIG    1        7.213  -2.373 -11.872  0.00  0.00    -0.520 OA
ATOM     24  C   LIG    1        6.868  -0.751  -8.692  0.00  0.00    -0.060 A 
ENDBRANCH  12  13
ENDBRANCH  11  12
ENDBRANCH   9  11
ENDBRANCH   3   7
BRANCH   1  25
ATOM     25  S   LIG    1       -0.174  -2.958  -0.469  0.00  0.00    +2.700 S 
ATOM     26  O   LIG    1       -0.135  -4.244  -1.073  0.00  0.00    -0.950 OA
ATOM     27  O   LIG    1       -1.381  -2.324  -0.069  0.00  0.00    -0.940 OA
BRANCH  25  28
ATOM     28  N   LIG    1        0.779  -3.048   0.882  0.00  0.00    -1.050 N 
ATOM     29  H   LIG    1        0.427  -2.770   1.743  0.00  0.00    +0.430 HD
BRANCH  28  33
ATOM     30  C   LIG    1        4.687  -4.467   0.589  0.00  0.00    +0.120 A 
ATOM     31  C   LIG    1        4.421  -3.311   1.308  0.00  0.00    +0.010 A 
ATOM     32  C   LIG    1        3.127  -2.840   1.406  0.00  0.00    +0.050 A 
ATOM     33  C   LIG    1        2.091  -3.524   0.784  0.00  0.00    +0.100 A 
ATOM     34  C   LIG    1        2.357  -4.684   0.069  0.00  0.00    +0.050 A 
ATOM     35  C   LIG    1        3.653  -5.151  -0.033  0.00  0.00    -0.050 A 
BRANCH  30  37
ATOM     36  C   LIG    1        6.163  -6.125  -0.264  0.00  0.00    +0.250 C 
ATOM     37  O   LIG    1        5.962  -4.929   0.493  0.00  0.00    -0.320 OA
ENDBRANCH  30  37
ENDBRANCH  28  33
ENDBRANCH  25  28
ENDBRANCH   1  25
BRANCH   6  38
ATOM     38  O   LIG    1        0.246  -0.043  -0.099  0.00  0.00    -0.310 OA
ATOM     39  C   LIG    1        0.309   1.368   0.116  0.00  0.00    +0.250 C 
ENDBRANCH   6  38
TORSDOF 9
