REMARK  Name = ZINCpk00000xIcTH.0
REMARK                            x       y       z     vdW  Elec       q    Type
REMARK                         _______ _______ _______ _____ _____    ______ ____
ROOT
ATOM      1  N   LIG    1        0.585  -0.664  -1.018  0.00  0.00    -0.660 N 
ATOM      2  H   LIG    1        1.260  -0.171  -1.510  0.00  0.00    +0.420 HD
ATOM      3  C   LIG    1       -0.424  -0.007  -0.413  0.00  0.00    +0.530 C 
ATOM      4  O   LIG    1       -1.322  -0.629   0.116  0.00  0.00    -0.490 OA
ENDROOT
BRANCH   1   9
ATOM      5  C   LIG    1        0.136  -4.105   0.201  0.00  0.00    -0.660 A 
ATOM      6  C   LIG    1        0.808  -4.819  -0.774  0.00  0.00    +0.130 A 
ATOM      7  C   LIG    1        1.407  -4.157  -1.831  0.00  0.00    +0.040 A 
ATOM      8  C   LIG    1        1.335  -2.780  -1.915  0.00  0.00    -0.020 A 
ATOM      9  C   LIG    1        0.660  -2.060  -0.936  0.00  0.00    +0.140 A 
ATOM     10 CL   LIG    1        2.088  -1.950  -3.241  0.00  0.00    -0.050 Cl
ATOM     11  C   LIG    1        0.065  -2.727   0.126  0.00  0.00    +0.150 A 
BRANCH   5  12
ATOM     12  S   LIG    1       -0.625  -4.953   1.545  0.00  0.00    +2.690 S 
ATOM     13  O   LIG    1       -0.868  -6.279   1.096  0.00  0.00    -0.950 OA
ATOM     14  O   LIG    1       -1.649  -4.097   2.032  0.00  0.00    -0.940 OA
BRANCH  12  16
ATOM     15  C   LIG    1        0.605  -4.011   3.762  0.00  0.00    +0.300 C 
ATOM     16  N   LIG    1        0.502  -5.068   2.753  0.00  0.00    -1.000 NA
ATOM     17  C   LIG    1        1.397  -6.226   2.812  0.00  0.00    +0.310 C 
ENDBRANCH  12  16
ENDBRANCH   5  12
ENDBRANCH   1   9
BRANCH   3  18
ATOM     18  C   LIG    1       -0.438   1.500  -0.395  0.00  0.00    +0.130 C 
BRANCH  18  19
ATOM     19  S   LIG    1       -1.911   2.079   0.484  0.00  0.00    +0.090 S 
BRANCH  19  20
ATOM     20  C   LIG    1       -1.678   3.820   0.357  0.00  0.00    +0.350 A 
ATOM     21  N   LIG    1       -0.616   4.289  -0.271  0.00  0.00    -0.550 NA
ATOM     22  C   LIG    1       -0.403   5.596  -0.389  0.00  0.00    +0.330 A 
ATOM     23  C   LIG    1       -1.290   6.487   0.144  0.00  0.00    -0.130 A 
ATOM     24  C   LIG    1       -2.424   5.997   0.815  0.00  0.00    +0.530 A 
ATOM     25  O   LIG    1       -3.238   6.764   1.303  0.00  0.00    -0.530 OA
ATOM     26  N   LIG    1       -2.599   4.661   0.904  0.00  0.00    -0.610 N 
ATOM     27  H   LIG    1       -3.377   4.301   1.359  0.00  0.00    +0.420 HD
ENDBRANCH  19  20
ENDBRANCH  18  19
ENDBRANCH   3  18
TORSDOF 6
