REMARK  Name = ZINCvU0000000HIE.0
REMARK                            x       y       z     vdW  Elec       q    Type
REMARK                         _______ _______ _______ _____ _____    ______ ____
ROOT
ATOM      1  C   LIG    1        0.004   1.050   0.125  0.00  0.00    +0.230 C 
ENDROOT
BRANCH   1   4
ATOM      2  N   LIG    1        3.566   1.736  -0.252  0.00  0.00    -0.350 N 
ATOM      3  C   LIG    1        2.512   0.895  -0.309  0.00  0.00    +0.260 A 
ATOM      4  C   LIG    1        1.409   1.592   0.048  0.00  0.00    -0.270 A 
ATOM      5  C   LIG    1        1.800   2.906   0.326  0.00  0.00    +0.270 A 
ATOM      6  N   LIG    1        3.094   2.992   0.153  0.00  0.00    -0.280 NA
BRANCH   2  11
ATOM      7  C   LIG    1        5.714   0.698   3.644  0.00  0.00    +0.010 C 
ATOM      8  C   LIG    1        5.946   0.812   2.136  0.00  0.00    -0.020 C 
ATOM      9  C   LIG    1        5.659   2.246   1.684  0.00  0.00    +0.020 C 
ATOM     10  C   LIG    1        5.892   2.360   0.176  0.00  0.00    +0.040 C 
ATOM     11  C   LIG    1        4.958   1.397  -0.559  0.00  0.00    +0.250 C 
ATOM     12  C   LIG    1        5.244  -0.036  -0.106  0.00  0.00    +0.030 C 
ATOM     13  C   LIG    1        5.012  -0.151   1.402  0.00  0.00    -0.020 C 
ATOM     14  C   LIG    1        5.299  -1.584   1.854  0.00  0.00    +0.020 C 
ENDBRANCH   2  11
ENDBRANCH   1   4
BRANCH   1  15
ATOM     15  C   LIG    1       -0.766   1.450  -1.135  0.00  0.00    +0.460 C 
ATOM     16  F   LIG    1       -0.809   2.845  -1.233  0.00  0.00    -0.170 F 
ATOM     17  F   LIG    1       -2.070   0.947  -1.064  0.00  0.00    -0.190 F 
ATOM     18  F   LIG    1       -0.124   0.923  -2.261  0.00  0.00    -0.180 F 
ENDBRANCH   1  15
BRANCH   1  19
ATOM     19  N   LIG    1       -0.670   1.603   1.307  0.00  0.00    -0.670 NA
ATOM     20  H   LIG    1       -0.010   1.780   2.050  0.00  0.00    +0.360 HD
BRANCH  19  21
ATOM     21  C   LIG    1       -1.748   0.715   1.761  0.00  0.00    +0.260 C 
BRANCH  21  22
ATOM     22  C   LIG    1       -2.415   1.314   2.973  0.00  0.00    -0.180 A 
ATOM     23  C   LIG    1       -3.523   2.060   2.837  0.00  0.00    +0.300 A 
ATOM     24  N   LIG    1       -4.163   2.623   3.904  0.00  0.00    -0.630 N 
ATOM     25  H   LIG    1       -4.960   3.152   3.746  0.00  0.00    +0.420 HD
ATOM     26  C   LIG    1       -3.725   2.467   5.169  0.00  0.00    +0.550 A 
ATOM     27  C   LIG    1       -2.520   1.668   5.417  0.00  0.00    -0.160 A 
ATOM     28  C   LIG    1       -2.015   1.470   6.701  0.00  0.00    +0.100 A 
ATOM     29  C   LIG    1       -0.878   0.710   6.871  0.00  0.00    -0.010 A 
ATOM     30  C   LIG    1       -0.235   0.141   5.780  0.00  0.00    +0.050 A 
ATOM     31  C   LIG    1       -0.712   0.322   4.511  0.00  0.00    +0.000 A 
ATOM     32  O   LIG    1       -4.322   2.985   6.096  0.00  0.00    -0.520 OA
ATOM     33  C   LIG    1       -1.863   1.083   4.309  0.00  0.00    +0.020 A 
ENDBRANCH  21  22
ENDBRANCH  19  21
ENDBRANCH   1  19
TORSDOF 6
