REMARK  Name = ZINCtV000002OJvz.0
REMARK                            x       y       z     vdW  Elec       q    Type
REMARK                         _______ _______ _______ _____ _____    ______ ____
ROOT
ATOM      1  O   LIG    1       -0.019   0.107  -2.259  0.00  0.00    -0.490 OA
ATOM      2  C   LIG    1       -0.159  -0.559  -1.255  0.00  0.00    +0.530 C 
ATOM      3  N   LIG    1       -0.304  -1.896  -1.348  0.00  0.00    -0.630 N 
ATOM      4  H   LIG    1       -0.338  -2.437  -0.544  0.00  0.00    +0.420 HD
ENDROOT
BRANCH   2   5
ATOM      5  C   LIG    1       -0.171   0.108   0.096  0.00  0.00    -0.070 C 
ATOM      6  C   LIG    1       -0.107   1.648  -0.060  0.00  0.00    +0.060 C 
ATOM      7  C   LIG    1        1.402   1.905  -0.294  0.00  0.00    +0.010 C 
ATOM      8  C   LIG    1        2.107   0.897   0.637  0.00  0.00    +0.010 C 
ATOM      9  C   LIG    1        1.106  -0.246   0.884  0.00  0.00    +0.050 C 
BRANCH   5  10
ATOM     10  C   LIG    1       -1.418  -0.299   0.884  0.00  0.00    +0.110 C 
BRANCH  10  11
ATOM     11  C   LIG    1       -2.643   0.266   0.213  0.00  0.00    -0.100 A 
ATOM     12  C   LIG    1       -3.061   1.551   0.506  0.00  0.00    +0.060 A 
ATOM     13  C   LIG    1       -4.181   2.072  -0.113  0.00  0.00    -0.010 A 
ATOM     14  C   LIG    1       -4.892   1.302  -1.018  0.00  0.00    +0.100 A 
ATOM     15  C   LIG    1       -4.477   0.013  -1.306  0.00  0.00    -0.020 A 
ATOM     16  F   LIG    1       -5.991   1.808  -1.619  0.00  0.00    -0.140 F 
ATOM     17  C   LIG    1       -3.353  -0.504  -0.690  0.00  0.00    +0.040 A 
ENDBRANCH  10  11
ENDBRANCH   5  10
ENDBRANCH   2   5
BRANCH   3  18
ATOM     18  C   LIG    1       -0.406  -2.499  -2.596  0.00  0.00    +0.240 A 
ATOM     19  N   LIG    1       -0.547  -3.772  -2.796  0.00  0.00    -0.500 NA
ATOM     20  C   LIG    1       -0.627  -4.174  -4.051  0.00  0.00    +0.100 A 
ATOM     21  C   LIG    1       -0.550  -3.195  -4.954  0.00  0.00    -0.130 A 
ATOM     22  S   LIG    1       -0.369  -1.669  -4.091  0.00  0.00    +0.240 S 
BRANCH  20  23
ATOM     23  C   LIG    1       -0.793  -5.623  -4.433  0.00  0.00    +0.170 C 
BRANCH  23  24
ATOM     24  C   LIG    1        0.310  -6.437  -3.807  0.00  0.00    -0.060 A 
ATOM     25  C   LIG    1        1.494  -6.637  -4.491  0.00  0.00    +0.020 A 
ATOM     26  C   LIG    1        2.508  -7.379  -3.915  0.00  0.00    +0.040 A 
ATOM     27  C   LIG    1        2.334  -7.930  -2.659  0.00  0.00    -0.090 A 
ATOM     28  C   LIG    1        1.147  -7.734  -1.976  0.00  0.00    +0.040 A 
ATOM     29 BR   LIG    1        3.718  -8.952  -1.874  0.00  0.00    -0.050 Br
ATOM     30  C   LIG    1        0.135  -6.987  -2.551  0.00  0.00    +0.040 A 
ENDBRANCH  23  24
ENDBRANCH  20  23
ENDBRANCH   3  18
TORSDOF 6
