REMARK  Name = ZINCrH000004uPhH.0
REMARK                            x       y       z     vdW  Elec       q    Type
REMARK                         _______ _______ _______ _____ _____    ______ ____
ROOT
ATOM      1  O   LIG    1       -1.192  -0.338  -2.393  0.00  0.00    -0.540 OA
ATOM      2  C   LIG    1       -1.865  -0.643  -1.427  0.00  0.00    +0.600 C 
ATOM      3  N   LIG    1       -1.359  -0.513  -0.185  0.00  0.00    -0.730 N 
ATOM      4  H   LIG    1       -1.896  -0.756   0.585  0.00  0.00    +0.400 HD
ENDROOT
BRANCH   3   5
ATOM      5  C   LIG    1        0.002  -0.004   0.002  0.00  0.00    +0.300 C 
ATOM      6  C   LIG    1        0.557  -0.494   1.339  0.00  0.00    +0.020 C 
ATOM      7  C   LIG    1        2.078  -0.495   1.327  0.00  0.00    +0.020 C 
ATOM      8  C   LIG    1        2.681   0.893   1.268  0.00  0.00    +0.220 C 
ATOM      9  O   LIG    1        2.361   1.536   0.029  0.00  0.00    -0.320 OA
ATOM     10  C   LIG    1        1.176   2.204   0.003  0.00  0.00    +0.130 A 
ATOM     11  C   LIG    1        1.169   3.593  -0.018  0.00  0.00    -0.030 A 
ATOM     12  C   LIG    1       -0.037   4.272  -0.013  0.00  0.00    +0.110 A 
ATOM     13  C   LIG    1       -1.231   3.571   0.011  0.00  0.00    -0.020 A 
ATOM     14  C   LIG    1       -1.222   2.188   0.020  0.00  0.00    +0.080 A 
ATOM     15  F   LIG    1       -0.049   5.623  -0.032  0.00  0.00    -0.140 F 
ATOM     16  C   LIG    1       -0.018   1.513   0.010  0.00  0.00    -0.130 A 
ENDBRANCH   3   5
BRANCH   2  17
ATOM     17  C   LIG    1       -3.235  -1.155  -1.615  0.00  0.00    -0.300 A 
ATOM     18  C   LIG    1       -3.882  -1.341  -2.821  0.00  0.00    +0.320 A 
ATOM     19  N   LIG    1       -5.106  -1.821  -2.550  0.00  0.00    -0.350 N 
ATOM     20  N   LIG    1       -5.238  -1.942  -1.162  0.00  0.00    -0.280 NA
ATOM     21  C   LIG    1       -4.128  -1.554  -0.596  0.00  0.00    +0.270 A 
BRANCH  19  22
ATOM     22  C   LIG    1       -6.130  -2.162  -3.540  0.00  0.00    +0.380 C 
BRANCH  22  23
ATOM     23  C   LIG    1       -6.573  -3.588  -3.335  0.00  0.00    -0.120 A 
ATOM     24  C   LIG    1       -5.927  -4.614  -3.999  0.00  0.00    +0.020 A 
ATOM     25  C   LIG    1       -6.330  -5.923  -3.808  0.00  0.00    +0.010 A 
ATOM     26  C   LIG    1       -7.385  -6.204  -2.960  0.00  0.00    +0.010 A 
ATOM     27  C   LIG    1       -8.034  -5.177  -2.300  0.00  0.00    +0.010 A 
ATOM     28  C   LIG    1       -7.628  -3.869  -2.488  0.00  0.00    +0.050 A 
ENDBRANCH  22  23
ENDBRANCH  19  22
ENDBRANCH   2  17
TORSDOF 4
