REMARK  Name = ZINCrD00000F5LDK.0
REMARK                            x       y       z     vdW  Elec       q    Type
REMARK                         _______ _______ _______ _____ _____    ______ ____
ROOT
ATOM      1  O   LIG    1        2.751   1.476   0.338  0.00  0.00    -0.490 OA
ATOM      2  C   LIG    1        3.750   2.167   0.300  0.00  0.00    +0.580 C 
ATOM      3  N   LIG    1        3.651   3.478   0.003  0.00  0.00    -0.600 N 
ENDROOT
BRANCH   2   4
ATOM      4  C   LIG    1        5.074   1.571   0.580  0.00  0.00    -0.240 A 
ATOM      5  C   LIG    1        6.218   2.009  -0.096  0.00  0.00    +0.320 A 
ATOM      6  N   LIG    1        7.381   1.448   0.187  0.00  0.00    -0.510 NA
ATOM      7  C   LIG    1        7.471   0.491   1.089  0.00  0.00    +0.530 A 
ATOM      8  N   LIG    1        6.419   0.048   1.749  0.00  0.00    -0.510 NA
ATOM      9  C   LIG    1        5.217   0.552   1.530  0.00  0.00    +0.390 A 
ENDBRANCH   2   4
BRANCH   3  10
ATOM     10  C   LIG    1        2.332   4.098  -0.144  0.00  0.00    +0.320 C 
BRANCH  10  11
ATOM     11  C   LIG    1        1.825   4.548   1.228  0.00  0.00    +0.140 C 
ATOM     12  O   LIG    1        1.750   3.421   2.103  0.00  0.00    -0.360 OA
ATOM     13  C   LIG    1        1.210   3.688   3.398  0.00  0.00    +0.210 C 
ATOM     14  C   LIG    1       -0.192   4.307   3.237  0.00  0.00    -0.040 C 
ATOM     15  C   LIG    1       -0.962   3.433   2.219  0.00  0.00    +0.020 C 
ATOM     16  C   LIG    1       -0.563   3.998   0.816  0.00  0.00    +0.010 C 
ATOM     17  C   LIG    1        0.013   5.658   2.497  0.00  0.00    +0.020 C 
ATOM     18  C   LIG    1        0.420   5.163   1.082  0.00  0.00    -0.020 C 
ENDBRANCH  10  11
ENDBRANCH   3  10
BRANCH   3  19
ATOM     19  C   LIG    1        4.863   4.283  -0.174  0.00  0.00    +0.390 C 
BRANCH  19  20
ATOM     20  C   LIG    1        4.993   4.683  -1.621  0.00  0.00    +0.030 A 
ATOM     21  N   LIG    1        4.497   5.756  -2.138  0.00  0.00    -0.450 NA
ATOM     22  C   LIG    1        4.708   5.957  -3.424  0.00  0.00    +0.290 A 
ATOM     23  C   LIG    1        5.413   4.995  -4.026  0.00  0.00    -0.320 A 
ATOM     24  S   LIG    1        5.814   3.778  -2.817  0.00  0.00    +0.190 S 
BRANCH  23  25
ATOM     25  C   LIG    1        5.798   4.957  -5.483  0.00  0.00    +0.480 C 
ATOM     26  F   LIG    1        6.575   6.079  -5.789  0.00  0.00    -0.190 F 
ATOM     27  F   LIG    1        4.641   4.963  -6.270  0.00  0.00    -0.190 F 
ENDBRANCH  23  25
ENDBRANCH  19  20
ENDBRANCH   3  19
TORSDOF 6
