REMARK  Name = ZINCqH0000007UcB.0
REMARK                            x       y       z     vdW  Elec       q    Type
REMARK                         _______ _______ _______ _____ _____    ______ ____
ROOT
ATOM      1  N   LIG    1        4.131  -1.499   1.387  0.00  0.00    -1.030 NA
ATOM      2  C   LIG    1        4.652  -1.199   2.731  0.00  0.00    +0.300 C 
ATOM      3  C   LIG    1        3.696  -2.267   3.273  0.00  0.00    -0.080 C 
ATOM      4  C   LIG    1        4.300  -3.139   4.370  0.00  0.00    +0.040 C 
ATOM      5  C   LIG    1        4.315  -2.357   5.686  0.00  0.00    +0.000 C 
ATOM      6  C   LIG    1        2.891  -1.920   6.034  0.00  0.00    +0.000 C 
ATOM      7  C   LIG    1        2.354  -0.992   4.943  0.00  0.00    +0.000 C 
ATOM      8  C   LIG    1        2.302  -1.749   3.612  0.00  0.00    +0.040 C 
ATOM      9  C   LIG    1        3.821  -2.855   1.867  0.00  0.00    +0.310 C 
ENDROOT
BRANCH   9  10
ATOM     10  C   LIG    1        4.967  -3.822   1.719  0.00  0.00    -0.080 A 
ATOM     11  C   LIG    1        6.258  -3.348   1.582  0.00  0.00    +0.010 A 
ATOM     12  C   LIG    1        7.310  -4.235   1.450  0.00  0.00    +0.000 A 
ATOM     13  C   LIG    1        7.070  -5.596   1.448  0.00  0.00    +0.000 A 
ATOM     14  C   LIG    1        5.778  -6.071   1.580  0.00  0.00    +0.000 A 
ATOM     15  C   LIG    1        4.727  -5.184   1.716  0.00  0.00    +0.020 A 
ENDBRANCH   9  10
BRANCH   1  16
ATOM     16  S   LIG    1        3.972  -0.675  -0.040  0.00  0.00    +2.730 S 
ATOM     17  O   LIG    1        4.934   0.371  -0.009  0.00  0.00    -0.950 OA
ATOM     18  O   LIG    1        3.924  -1.656  -1.067  0.00  0.00    -0.930 OA
BRANCH  16  24
ATOM     19  C   LIG    1        1.228  -0.664  -0.013  0.00  0.00    +0.270 A 
ATOM     20  C   LIG    1        0.002  -0.004   0.002  0.00  0.00    -0.130 A 
ATOM     21  C   LIG    1       -0.017   1.376   0.010  0.00  0.00    +0.360 A 
ATOM     22  N   LIG    1        1.107   2.067   0.003  0.00  0.00    -0.510 NA
ATOM     23  C   LIG    1        2.288   1.478  -0.012  0.00  0.00    +0.410 A 
ATOM     24  C   LIG    1        2.391   0.102  -0.020  0.00  0.00    -0.770 A 
BRANCH  19  26
ATOM     25  C   LIG    1        0.045  -2.725  -0.012  0.00  0.00    +0.270 C 
ATOM     26  O   LIG    1        1.288  -2.021  -0.021  0.00  0.00    -0.300 OA
ENDBRANCH  19  26
ENDBRANCH  16  24
ENDBRANCH   1  16
TORSDOF 4
