REMARK  Name = ZINCpe000000YnzR.0
REMARK                            x       y       z     vdW  Elec       q    Type
REMARK                         _______ _______ _______ _____ _____    ______ ____
ROOT
ATOM      1  C   LIG    1       -5.709   5.210   1.202  0.00  0.00    +0.320 C 
ATOM      2  C   LIG    1       -7.019   4.780   0.508  0.00  0.00    +0.060 C 
ATOM      3  C   LIG    1       -6.782   5.193  -0.969  0.00  0.00    +0.050 C 
ATOM      4  C   LIG    1       -5.269   4.916  -1.132  0.00  0.00    +0.270 C 
ATOM      5  N   LIG    1       -4.672   5.292   0.163  0.00  0.00    -0.600 N 
ATOM      6  C   LIG    1       -3.389   5.656   0.360  0.00  0.00    +0.520 C 
ATOM      7  O   LIG    1       -3.007   5.951   1.473  0.00  0.00    -0.510 OA
ENDROOT
BRANCH   1  13
ATOM      8  C   LIG    1       -5.879   5.508   4.312  0.00  0.00    +0.350 C 
ATOM      9  N   LIG    1       -5.398   4.333   3.581  0.00  0.00    -0.470 N 
ATOM     10  C   LIG    1       -4.944   3.173   4.112  0.00  0.00    +0.380 A 
ATOM     11  N   LIG    1       -4.616   2.393   3.118  0.00  0.00    -0.290 NA
ATOM     12  N   LIG    1       -4.844   2.993   2.004  0.00  0.00    -0.280 NA
ATOM     13  C   LIG    1       -5.318   4.187   2.237  0.00  0.00    +0.160 A 
ENDBRANCH   1  13
BRANCH   6  14
ATOM     14  C   LIG    1       -2.430   5.696  -0.802  0.00  0.00    +0.380 C 
BRANCH  14  15
ATOM     15  N   LIG    1       -1.109   6.119  -0.330  0.00  0.00    -0.370 N 
ATOM     16  N   LIG    1       -0.633   7.434  -0.188  0.00  0.00    -0.070 NA
ATOM     17  N   LIG    1        0.574   7.349   0.255  0.00  0.00    -0.030 NA
ATOM     18  N   LIG    1        0.908   6.119   0.411  0.00  0.00    -0.320 NA
ATOM     19  C   LIG    1       -0.083   5.325   0.064  0.00  0.00    +0.310 A 
BRANCH  19  20
ATOM     20  C   LIG    1       -0.079   3.845   0.101  0.00  0.00    -0.050 A 
ATOM     21  C   LIG    1        1.129   3.148   0.111  0.00  0.00    +0.080 A 
ATOM     22  C   LIG    1        1.126   1.768   0.147  0.00  0.00    +0.020 A 
ATOM     23  C   LIG    1       -0.071   1.077   0.172  0.00  0.00    +0.040 A 
ATOM     24  C   LIG    1       -1.273   1.763   0.157  0.00  0.00    +0.030 A 
ATOM     25  C   LIG    1       -1.283   3.142   0.127  0.00  0.00    +0.020 A 
ENDBRANCH  19  20
ENDBRANCH  14  15
ENDBRANCH   6  14
TORSDOF 4
