REMARK  Name = ZINCtV00001bB3hQ.1
REMARK                            x       y       z     vdW  Elec       q    Type
REMARK                         _______ _______ _______ _____ _____    ______ ____
ROOT
ATOM      1  N   LIG    1       -1.303  -2.059  -0.007  0.00  0.00    -0.550 N 
ATOM      2  H   LIG    1       -0.483  -2.576  -0.011  0.00  0.00    +0.400 HD
ENDROOT
BRANCH   1   3
ATOM      3  C   LIG    1       -1.249  -0.677  -0.010  0.00  0.00    +0.510 A 
ATOM      4  C   LIG    1        0.002  -0.004  -0.019  0.00  0.00    -0.220 A 
ATOM      5  C   LIG    1        1.349  -0.531  -0.025  0.00  0.00    +0.060 A 
ATOM      6  C   LIG    1        2.308   0.396  -0.032  0.00  0.00    -0.130 A 
ATOM      7  S   LIG    1        1.628   2.013  -0.033  0.00  0.00    +0.200 S 
ATOM      8  C   LIG    1       -0.017   1.395  -0.022  0.00  0.00    +0.120 A 
ATOM      9  N   LIG    1       -1.196   2.029  -0.013  0.00  0.00    -0.530 NA
ATOM     10  C   LIG    1       -2.326   1.360  -0.010  0.00  0.00    +0.570 A 
ATOM     11  N   LIG    1       -2.363   0.040  -0.006  0.00  0.00    -0.550 NA
BRANCH   6  12
ATOM     12  C   LIG    1        3.756   0.099  -0.039  0.00  0.00    -0.020 A 
ATOM     13  C   LIG    1        4.201  -1.224  -0.033  0.00  0.00    +0.020 A 
ATOM     14  C   LIG    1        5.554  -1.494  -0.045  0.00  0.00    +0.020 A 
ATOM     15  C   LIG    1        6.469  -0.456  -0.053  0.00  0.00    +0.020 A 
ATOM     16  C   LIG    1        6.035   0.857  -0.053  0.00  0.00    +0.020 A 
ATOM     17  C   LIG    1        4.685   1.141  -0.047  0.00  0.00    +0.010 A 
ENDBRANCH   6  12
ENDBRANCH   1   3
BRANCH   1  20
ATOM     18  C   LIG    1       -1.319  -4.814  -0.001  0.00  0.00    +0.090 C 
ATOM     19  C   LIG    1       -2.594  -4.010   0.004  0.00  0.00    +0.140 C 
ATOM     20  N   LIG    1       -2.543  -2.711   0.001  0.00  0.00    -0.220 NA
BRANCH  19  21
ATOM     21  C   LIG    1       -3.895  -4.695   0.013  0.00  0.00    -0.040 A 
ATOM     22  C   LIG    1       -3.970  -6.078  -0.098  0.00  0.00    +0.050 A 
ATOM     23  C   LIG    1       -5.200  -6.722  -0.090  0.00  0.00    +0.000 A 
ATOM     24  C   LIG    1       -6.369  -6.035   0.026  0.00  0.00    +0.050 A 
ATOM     25  C   LIG    1       -6.370  -4.634   0.142  0.00  0.00    -0.060 A 
ATOM     26  C   LIG    1       -7.569  -3.911   0.262  0.00  0.00    +0.020 A 
ATOM     27  C   LIG    1       -7.529  -2.555   0.372  0.00  0.00    +0.010 A 
ATOM     28  C   LIG    1       -6.316  -1.870   0.367  0.00  0.00    +0.010 A 
ATOM     29  C   LIG    1       -5.134  -2.540   0.253  0.00  0.00    +0.070 A 
ATOM     30  C   LIG    1       -5.138  -3.936   0.145  0.00  0.00    -0.030 A 
ENDBRANCH  19  21
ENDBRANCH   1  20
TORSDOF 4
