REMARK  Name = ZINCtV00001bB3hQ.0
REMARK                            x       y       z     vdW  Elec       q    Type
REMARK                         _______ _______ _______ _____ _____    ______ ____
ROOT
ATOM      1  C   LIG    1        6.927   0.745  -1.139  0.00  0.00    +0.350 A 
ATOM      2  C   LIG    1        8.260   0.295  -1.349  0.00  0.00    -0.120 A 
ATOM      3  C   LIG    1        8.822  -0.974  -1.169  0.00  0.00    +0.060 A 
ATOM      4  C   LIG    1       10.123  -1.075  -1.456  0.00  0.00    -0.120 A 
ATOM      5  S   LIG    1       10.763   0.469  -1.993  0.00  0.00    +0.210 S 
ATOM      6  C   LIG    1        9.194   1.240  -1.808  0.00  0.00    +0.080 A 
ATOM      7  N   LIG    1        8.798   2.495  -2.023  0.00  0.00    -0.470 NA
ATOM      8  C   LIG    1        7.551   2.860  -1.814  0.00  0.00    +0.530 A 
ATOM      9  N   LIG    1        6.633   2.016  -1.389  0.00  0.00    -0.500 NA
ENDROOT
BRANCH   4  10
ATOM     10  C   LIG    1       10.915  -2.317  -1.339  0.00  0.00    -0.030 A 
ATOM     11  C   LIG    1       10.310  -3.495  -0.895  0.00  0.00    +0.040 A 
ATOM     12  C   LIG    1       11.054  -4.652  -0.793  0.00  0.00    +0.020 A 
ATOM     13  C   LIG    1       12.399  -4.644  -1.117  0.00  0.00    +0.020 A 
ATOM     14  C   LIG    1       13.006  -3.479  -1.552  0.00  0.00    +0.020 A 
ATOM     15  C   LIG    1       12.272  -2.317  -1.665  0.00  0.00    +0.010 A 
ENDBRANCH   4  10
BRANCH   1  17
ATOM     16  N   LIG    1        4.803   0.286  -0.514  0.00  0.00    -0.140 NA
ATOM     17  N   LIG    1        5.962  -0.118  -0.693  0.00  0.00    -0.200 NA
BRANCH  16  19
ATOM     18  C   LIG    1        4.119  -1.104   1.378  0.00  0.00    +0.070 C 
ATOM     19  C   LIG    1        3.771  -0.637  -0.037  0.00  0.00    +0.200 C 
BRANCH  19  20
ATOM     20  C   LIG    1        2.438   0.064  -0.021  0.00  0.00    -0.070 A 
ATOM     21  C   LIG    1        2.380   1.424  -0.013  0.00  0.00    +0.060 A 
ATOM     22  C   LIG    1        1.156   2.091   0.002  0.00  0.00    +0.010 A 
ATOM     23  C   LIG    1       -0.017   1.401   0.010  0.00  0.00    +0.030 A 
ATOM     24  C   LIG    1        0.002  -0.004   0.002  0.00  0.00    -0.050 A 
ATOM     25  C   LIG    1       -1.188  -0.750   0.009  0.00  0.00    +0.030 A 
ATOM     26  C   LIG    1       -1.131  -2.110   0.001  0.00  0.00    +0.000 A 
ATOM     27  C   LIG    1        0.092  -2.776  -0.015  0.00  0.00    +0.010 A 
ATOM     28  C   LIG    1        1.266  -2.087  -0.021  0.00  0.00    +0.010 A 
ATOM     29  C   LIG    1        1.247  -0.682  -0.013  0.00  0.00    -0.040 A 
ENDBRANCH  19  20
ENDBRANCH  16  19
ENDBRANCH   1  17
TORSDOF 4
