REMARK  Name = ZINCrD000000AAAL.0
REMARK                            x       y       z     vdW  Elec       q    Type
REMARK                         _______ _______ _______ _____ _____    ______ ____
ROOT
ATOM      1  O   LIG    1        5.975   0.810  -4.290  0.00  0.00    -0.520 OA
ATOM      2  C   LIG    1        6.708   0.569  -3.355  0.00  0.00    +0.520 C 
ATOM      3  N   LIG    1        7.298  -0.639  -3.255  0.00  0.00    -0.620 N 
ATOM      4  C   LIG    1        8.194  -0.943  -2.131  0.00  0.00    +0.270 C 
ATOM      5  C   LIG    1        7.679  -2.211  -1.429  0.00  0.00    +0.270 C 
ATOM      6  N   LIG    1        7.441  -3.245  -2.445  0.00  0.00    -0.610 N 
ATOM      7  C   LIG    1        6.550  -2.939  -3.572  0.00  0.00    +0.290 C 
ATOM      8  C   LIG    1        8.030  -4.454  -2.345  0.00  0.00    +0.560 C 
ATOM      9  O   LIG    1        7.775  -5.323  -3.155  0.00  0.00    -0.530 OA
ATOM     10  C   LIG    1        7.060  -1.673  -4.272  0.00  0.00    +0.280 C 
ENDROOT
BRANCH   8  11
ATOM     11  C   LIG    1        8.988  -4.721  -1.251  0.00  0.00    -0.130 A 
ATOM     12  C   LIG    1        8.651  -4.407   0.067  0.00  0.00    +0.030 A 
ATOM     13  C   LIG    1        9.547  -4.663   1.084  0.00  0.00    +0.010 A 
ATOM     14  C   LIG    1       10.780  -5.221   0.800  0.00  0.00    +0.030 A 
ATOM     15  C   LIG    1       11.123  -5.530  -0.505  0.00  0.00    +0.010 A 
ATOM     16  C   LIG    1       10.234  -5.284  -1.531  0.00  0.00    +0.060 A 
ENDBRANCH   8  11
BRANCH   2  17
ATOM     17  C   LIG    1        6.961   1.620  -2.305  0.00  0.00    +0.120 C 
BRANCH  17  18
ATOM     18  C   LIG    1        6.191   2.869  -2.648  0.00  0.00    -0.060 A 
ATOM     19  C   LIG    1        6.793   3.877  -3.336  0.00  0.00    +0.020 A 
ATOM     20  C   LIG    1        6.097   5.040  -3.662  0.00  0.00    +0.010 A 
ATOM     21  C   LIG    1        4.794   5.200  -3.302  0.00  0.00    +0.030 A 
ATOM     22  C   LIG    1        4.138   4.181  -2.591  0.00  0.00    -0.050 A 
ATOM     23  C   LIG    1        2.794   4.310  -2.203  0.00  0.00    +0.030 A 
ATOM     24  C   LIG    1        2.191   3.301  -1.516  0.00  0.00    +0.000 A 
ATOM     25  C   LIG    1        2.888   2.139  -1.190  0.00  0.00    +0.010 A 
ATOM     26  C   LIG    1        4.191   1.979  -1.549  0.00  0.00    +0.010 A 
ATOM     27  C   LIG    1        4.846   2.999  -2.260  0.00  0.00    -0.030 A 
ENDBRANCH  17  18
ENDBRANCH   2  17
TORSDOF 3
