REMARK  Name = ZINCkj000005kSA1.0
REMARK                            x       y       z     vdW  Elec       q    Type
REMARK                         _______ _______ _______ _____ _____    ______ ____
ROOT
ATOM      1  C   LIG    1       -4.150   3.203   4.732  0.00  0.00    +0.580 C 
ATOM      2  N   LIG    1       -3.930   3.297   3.405  0.00  0.00    -0.730 N 
ATOM      3  H   LIG    1       -4.658   3.530   2.809  0.00  0.00    +0.410 HD
ATOM      4  O   LIG    1       -3.237   2.911   5.480  0.00  0.00    -0.510 OA
ENDROOT
BRANCH   1  12
ATOM      5  C   LIG    1       -7.143   3.348   9.751  0.00  0.00    +0.190 C 
ATOM      6  C   LIG    1       -7.725   3.631   8.390  0.00  0.00    +0.080 A 
ATOM      7  N   LIG    1       -8.954   3.946   8.107  0.00  0.00    -0.300 NA
ATOM      8  O   LIG    1       -9.148   4.120   6.927  0.00  0.00    +0.090 OA
ATOM      9  C   LIG    1       -8.044   3.946   6.180  0.00  0.00    +0.240 A 
ATOM     10  N   LIG    1       -7.767   4.022   4.888  0.00  0.00    -0.460 NA
ATOM     11  C   LIG    1       -6.556   3.799   4.426  0.00  0.00    +0.370 A 
ATOM     12  C   LIG    1       -5.499   3.456   5.277  0.00  0.00    -0.220 A 
ATOM     13  C   LIG    1       -5.739   3.361   6.652  0.00  0.00    +0.240 A 
ATOM     14  C   LIG    1       -7.027   3.610   7.101  0.00  0.00    -0.230 A 
ENDBRANCH   1  12
BRANCH   2  15
ATOM     15  C   LIG    1       -2.592   3.046   2.865  0.00  0.00    +0.280 C 
BRANCH  15  16
ATOM     16  C   LIG    1       -2.615   3.217   1.345  0.00  0.00    +0.260 C 
BRANCH  16  17
ATOM     17  N   LIG    1       -1.273   2.966   0.803  0.00  0.00    -0.390 N 
ATOM     18  C   LIG    1       -0.814   1.623   1.220  0.00  0.00    +0.250 C 
ATOM     19  C   LIG    1       -0.013   1.086   0.008  0.00  0.00    +0.080 C 
ATOM     20  C   LIG    1       -0.838   1.637  -1.184  0.00  0.00    +0.070 C 
ATOM     21  C   LIG    1       -1.316   3.011  -0.670  0.00  0.00    +0.260 C 
ATOM     22  H   LIG    1       -0.631   3.665   1.145  0.00  0.00    +0.430 HD
ENDBRANCH  16  17
ENDBRANCH  15  16
ENDBRANCH   2  15
TORSDOF 4
