REMARK  Name = ZINCrH000004vIvD.0
REMARK                            x       y       z     vdW  Elec       q    Type
REMARK                         _______ _______ _______ _____ _____    ______ ____
ROOT
ATOM      1  C   LIG    1       -3.371  -2.125   1.187  0.00  0.00    +0.530 C 
ATOM      2  N   LIG    1       -2.292  -2.792   0.730  0.00  0.00    -0.650 N 
ATOM      3  H   LIG    1       -2.318  -3.758   0.650  0.00  0.00    +0.420 HD
ATOM      4  O   LIG    1       -3.377  -0.912   1.193  0.00  0.00    -0.480 OA
ENDROOT
BRANCH   1   9
ATOM      5  O   LIG    1       -5.993  -1.143   4.333  0.00  0.00    -0.480 OA
ATOM      6  C   LIG    1       -5.433  -1.933   3.602  0.00  0.00    +0.540 C 
ATOM      7  C   LIG    1       -4.432  -2.972   4.055  0.00  0.00    +0.110 C 
ATOM      8  C   LIG    1       -4.220  -3.867   2.819  0.00  0.00    +0.120 C 
ATOM      9  C   LIG    1       -4.571  -2.887   1.689  0.00  0.00    +0.120 C 
ATOM     10  S   LIG    1       -5.499  -3.712   0.346  0.00  0.00    -0.070 S 
ATOM     11  C   LIG    1       -6.654  -2.375   0.141  0.00  0.00    -0.120 A 
ATOM     12  C   LIG    1       -7.529  -2.060  -0.877  0.00  0.00    +0.090 A 
ATOM     13  C   LIG    1       -8.332  -0.938  -0.774  0.00  0.00    +0.020 A 
ATOM     14  C   LIG    1       -8.244  -0.145   0.355  0.00  0.00    +0.050 A 
ATOM     15  C   LIG    1       -7.370  -0.457   1.372  0.00  0.00    +0.020 A 
ATOM     16  C   LIG    1       -6.546  -1.588   1.290  0.00  0.00    +0.160 A 
ATOM     17  N   LIG    1       -5.616  -2.010   2.260  0.00  0.00    -0.550 N 
ENDBRANCH   1   9
BRANCH   2  18
ATOM     18  C   LIG    1       -1.134  -2.089   0.372  0.00  0.00    +0.180 A 
ATOM     19  C   LIG    1       -0.876  -0.846   0.932  0.00  0.00    +0.040 A 
ATOM     20  C   LIG    1        0.270  -0.151   0.578  0.00  0.00    +0.090 A 
ATOM     21  C   LIG    1        1.160  -0.701  -0.337  0.00  0.00    +0.040 A 
ATOM     22  O   LIG    1        2.294  -0.036  -0.692  0.00  0.00    -0.300 OA
ATOM     23  C   LIG    1        2.338   1.364  -0.398  0.00  0.00    +0.230 C 
ATOM     24  C   LIG    1        1.847   1.568   1.042  0.00  0.00    +0.230 C 
ATOM     25  C   LIG    1        0.898  -1.943  -0.897  0.00  0.00    +0.090 A 
ATOM     26  O   LIG    1        0.509   1.069   1.135  0.00  0.00    -0.300 OA
ATOM     27  C   LIG    1       -0.245  -2.636  -0.544  0.00  0.00    -0.120 A 
ATOM     28 BR   LIG    1       -0.598  -4.328  -1.310  0.00  0.00    -0.030 Br
ENDBRANCH   2  18
TORSDOF 2
