REMARK  Name = ZINCrH00000No4wX.0
REMARK                            x       y       z     vdW  Elec       q    Type
REMARK                         _______ _______ _______ _____ _____    ______ ____
ROOT
ATOM      1  C   LIG    1        0.274   5.729   0.274  0.00  0.00    -0.100 C 
ATOM      2  C   LIG    1       -1.032   6.185   0.324  0.00  0.00    +0.310 C 
ENDROOT
BRANCH   2   3
ATOM      3  C   LIG    1       -2.151   5.225   0.268  0.00  0.00    -0.110 A 
ATOM      4  C   LIG    1       -2.361   4.330   1.320  0.00  0.00    +0.090 A 
ATOM      5  C   LIG    1       -3.412   3.439   1.263  0.00  0.00    -0.020 A 
ATOM      6  C   LIG    1       -4.251   3.422   0.163  0.00  0.00    +0.030 A 
ATOM      7  C   LIG    1       -4.045   4.302  -0.886  0.00  0.00    +0.000 A 
ATOM      8  C   LIG    1       -3.002   5.202  -0.841  0.00  0.00    +0.120 A 
ENDBRANCH   2   3
BRANCH   1   9
ATOM      9  C   LIG    1        0.549   4.300   0.018  0.00  0.00    +0.200 A 
ATOM     10  C   LIG    1        1.869   3.855  -0.081  0.00  0.00    -0.040 A 
ATOM     11  C   LIG    1        2.109   2.515  -0.321  0.00  0.00    +0.060 A 
ATOM     12  C   LIG    1        1.024   1.659  -0.453  0.00  0.00    -0.050 A 
ATOM     13  C   LIG    1       -0.258   2.167  -0.349  0.00  0.00    +0.270 A 
ATOM     14  N   LIG    1       -0.462   3.447  -0.115  0.00  0.00    -0.460 NA
ENDBRANCH   1   9
BRANCH   1  16
ATOM     15  N   LIG    1        2.220   7.368   0.626  0.00  0.00    -0.410 NA
ATOM     16  C   LIG    1        1.359   6.643   0.470  0.00  0.00    +0.250 C 
ENDBRANCH   1  16
BRANCH   2  17
ATOM     17  N   LIG    1       -1.288   7.533   0.425  0.00  0.00    -1.030 N 
ATOM     18  H   LIG    1       -0.556   8.169   0.385  0.00  0.00    +0.430 HD
BRANCH  17  19
ATOM     19  S   LIG    1       -2.842   8.069   0.617  0.00  0.00    +2.680 S 
ATOM     20  O   LIG    1       -3.620   7.406  -0.370  0.00  0.00    -0.920 OA
ATOM     21  O   LIG    1       -2.768   9.484   0.728  0.00  0.00    -0.930 OA
BRANCH  19  22
ATOM     22  C   LIG    1       -3.409   7.477   2.177  0.00  0.00    -0.700 A 
ATOM     23  C   LIG    1       -4.191   6.339   2.241  0.00  0.00    +0.180 A 
ATOM     24  C   LIG    1       -4.632   5.871   3.465  0.00  0.00    -0.020 A 
ATOM     25  C   LIG    1       -4.300   6.549   4.625  0.00  0.00    +0.170 A 
ATOM     26  C   LIG    1       -3.521   7.692   4.559  0.00  0.00    -0.030 A 
ATOM     27  F   LIG    1       -4.735   6.096   5.821  0.00  0.00    -0.130 F 
ATOM     28  C   LIG    1       -3.077   8.155   3.335  0.00  0.00    +0.160 A 
ENDBRANCH  19  22
ENDBRANCH  17  19
ENDBRANCH   2  17
TORSDOF 6
