REMARK  Name = ZINCrg000000nPrj.0
REMARK                            x       y       z     vdW  Elec       q    Type
REMARK                         _______ _______ _______ _____ _____    ______ ____
ROOT
ATOM      1  N   LIG    1       -8.186   3.039   1.423  0.00  0.00    -1.010 NA
ATOM      2  C   LIG    1       -8.197   2.131   0.266  0.00  0.00    +0.310 C 
ATOM      3  C   LIG    1       -7.047   1.131   0.420  0.00  0.00    +0.180 C 
ATOM      4  N   LIG    1       -5.789   1.863   0.625  0.00  0.00    -0.520 NA
ATOM      5  C   LIG    1       -5.822   2.643   1.869  0.00  0.00    +0.180 C 
ATOM      6  C   LIG    1       -6.923   3.705   1.774  0.00  0.00    +0.310 C 
ENDROOT
BRANCH   1   7
ATOM      7  S   LIG    1       -9.561   3.303   2.309  0.00  0.00    +2.780 S 
ATOM      8  O   LIG    1      -10.649   2.892   1.492  0.00  0.00    -0.970 OA
ATOM      9  O   LIG    1       -9.445   4.613   2.848  0.00  0.00    -0.970 OA
BRANCH   7  10
ATOM     10  N   LIG    1       -9.523   2.262   3.596  0.00  0.00    -1.010 NA
BRANCH  10  12
ATOM     11  C   LIG    1       -9.710   3.263   5.820  0.00  0.00    +0.020 C 
ATOM     12  C   LIG    1       -8.769   2.616   4.802  0.00  0.00    +0.270 C 
ENDBRANCH  10  12
BRANCH  10  13
ATOM     13  C   LIG    1      -10.242   0.988   3.530  0.00  0.00    +0.280 C 
ATOM     14  C   LIG    1       -9.271  -0.126   3.134  0.00  0.00    +0.020 C 
ENDBRANCH  10  13
ENDBRANCH   7  10
ENDBRANCH   1   7
BRANCH   4  15
ATOM     15  C   LIG    1       -4.639   0.950   0.606  0.00  0.00    +0.220 C 
BRANCH  15  16
ATOM     16  C   LIG    1       -3.363   1.750   0.571  0.00  0.00    +0.510 C 
ATOM     17  N   LIG    1       -2.172   1.119   0.549  0.00  0.00    -0.680 N 
ATOM     18  H   LIG    1       -2.137   0.152   0.480  0.00  0.00    +0.410 HD
ATOM     19  O   LIG    1       -3.407   2.962   0.562  0.00  0.00    -0.490 OA
BRANCH  17  20
ATOM     20  C   LIG    1       -0.992   1.855   0.625  0.00  0.00    +0.180 A 
ATOM     21  C   LIG    1       -0.950   3.022   1.382  0.00  0.00    +0.000 A 
ATOM     22  C   LIG    1        0.211   3.747   1.465  0.00  0.00    +0.100 A 
ATOM     23  C   LIG    1        1.354   3.314   0.781  0.00  0.00    -0.190 A 
ATOM     24  C   LIG    1        1.306   2.142   0.016  0.00  0.00    +0.090 A 
ATOM     25  C   LIG    1        0.141   1.424  -0.061  0.00  0.00    -0.030 A 
BRANCH  23  26
ATOM     26  C   LIG    1        2.600   4.087   0.866  0.00  0.00    +0.390 C 
ATOM     27  O   LIG    1        2.640   5.102   1.529  0.00  0.00    -0.460 OA
ATOM     28  C   LIG    1        3.829   3.619   0.130  0.00  0.00    +0.080 C 
ENDBRANCH  23  26
ENDBRANCH  17  20
ENDBRANCH  15  16
ENDBRANCH   4  15
TORSDOF 8
