REMARK  Name = ZINCqH0000005s0E.0
REMARK                            x       y       z     vdW  Elec       q    Type
REMARK                         _______ _______ _______ _____ _____    ______ ____
ROOT
ATOM      1  N   LIG    1       -0.642   1.942   1.437  0.00  0.00    -0.960 NA
ENDROOT
BRANCH   1   2
ATOM      2  S   LIG    1       -0.486   1.976  -0.211  0.00  0.00    +2.680 S 
ATOM      3  O   LIG    1       -1.787   2.213  -0.732  0.00  0.00    -0.930 OA
ATOM      4  O   LIG    1        0.627   2.813  -0.492  0.00  0.00    -0.920 OA
BRANCH   2   5
ATOM      5  C   LIG    1       -0.032   0.353  -0.727  0.00  0.00    -0.680 A 
ATOM      6  C   LIG    1        1.303  -0.005  -0.786  0.00  0.00    +0.060 A 
ATOM      7  C   LIG    1        1.659  -1.281  -1.185  0.00  0.00    +0.020 A 
ATOM      8  C   LIG    1        0.682  -2.194  -1.536  0.00  0.00    +0.110 A 
ATOM      9  C   LIG    1       -0.651  -1.834  -1.482  0.00  0.00    +0.020 A 
ATOM     10 CL   LIG    1        2.530   1.144  -0.353  0.00  0.00    -0.010 Cl
ATOM     11  C   LIG    1       -1.009  -0.561  -1.077  0.00  0.00    +0.060 A 
ATOM     12 CL   LIG    1       -2.684  -0.109  -1.010  0.00  0.00    -0.010 Cl
ENDBRANCH   2   5
ENDBRANCH   1   2
BRANCH   1  13
ATOM     13  C   LIG    1        0.507   2.262   2.288  0.00  0.00    +0.210 C 
ATOM     14  C   LIG    1        0.320   2.142   3.801  0.00  0.00    +0.030 C 
ATOM     15  C   LIG    1        0.417   3.523   3.150  0.00  0.00    +0.020 C 
ENDBRANCH   1  13
BRANCH   1  16
ATOM     16  C   LIG    1       -1.928   1.590   2.044  0.00  0.00    +0.350 C 
BRANCH  16  20
ATOM     17  C   LIG    1       -4.124   5.159   2.898  0.00  0.00    -0.130 A 
ATOM     18  C   LIG    1       -4.172   4.595   1.622  0.00  0.00    +0.080 A 
ATOM     19  C   LIG    1       -3.461   3.443   1.353  0.00  0.00    +0.040 A 
ATOM     20  C   LIG    1       -2.702   2.848   2.345  0.00  0.00    -0.090 A 
ATOM     21  C   LIG    1       -2.654   3.399   3.613  0.00  0.00    +0.020 A 
ATOM     22  C   LIG    1       -3.356   4.553   3.894  0.00  0.00    +0.040 A 
BRANCH  17  26
ATOM     23  C   LIG    1       -5.588   8.157   4.719  0.00  0.00    +0.290 C 
ATOM     24  N   LIG    1       -4.835   6.934   4.426  0.00  0.00    -0.730 N 
ATOM     25  H   LIG    1       -4.302   6.516   5.120  0.00  0.00    +0.400 HD
ATOM     26  C   LIG    1       -4.884   6.392   3.193  0.00  0.00    +0.560 C 
ATOM     27  O   LIG    1       -5.552   6.917   2.324  0.00  0.00    -0.530 OA
ENDBRANCH  17  26
ENDBRANCH  16  20
ENDBRANCH   1  16
TORSDOF 6
