REMARK  Name = ZINCpk00000y6y93.0
REMARK                            x       y       z     vdW  Elec       q    Type
REMARK                         _______ _______ _______ _____ _____    ______ ____
ROOT
ATOM      1  C   LIG    1        3.442   3.507  -0.113  0.00  0.00    +0.520 C 
ATOM      2  N   LIG    1        3.510   2.164  -0.019  0.00  0.00    -0.670 N 
ATOM      3  H   LIG    1        4.373   1.725   0.038  0.00  0.00    +0.420 HD
ATOM      4  O   LIG    1        2.364   4.062  -0.100  0.00  0.00    -0.510 OA
ENDROOT
BRANCH   1   9
ATOM      5  C   LIG    1        7.068   7.256   1.401  0.00  0.00    +0.650 C 
ATOM      6  N   LIG    1        6.549   6.288   0.620  0.00  0.00    -0.600 N 
ATOM      7  C   LIG    1        5.636   6.625  -0.481  0.00  0.00    +0.310 C 
ATOM      8  C   LIG    1        4.351   5.805  -0.324  0.00  0.00    +0.050 C 
ATOM      9  C   LIG    1        4.706   4.319  -0.234  0.00  0.00    +0.010 C 
ATOM     10  C   LIG    1        5.587   4.077   0.995  0.00  0.00    +0.040 C 
ATOM     11  C   LIG    1        6.886   4.877   0.852  0.00  0.00    +0.290 C 
ATOM     12  O   LIG    1        6.782   8.419   1.198  0.00  0.00    -0.570 OA
BRANCH   5  13
ATOM     13  O   LIG    1        7.904   6.933   2.406  0.00  0.00    -0.370 OA
BRANCH  13  15
ATOM     14  C   LIG    1        9.349   7.469   4.291  0.00  0.00    +0.070 C 
ATOM     15  C   LIG    1        8.425   8.027   3.207  0.00  0.00    +0.220 C 
ENDBRANCH  13  15
ENDBRANCH   5  13
ENDBRANCH   1   9
BRANCH   2  16
ATOM     16  C   LIG    1        2.336   1.404  -0.006  0.00  0.00    +0.120 A 
ATOM     17  C   LIG    1        2.300   0.154  -0.610  0.00  0.00    +0.290 A 
ATOM     18  N   LIG    1        1.197  -0.568  -0.601  0.00  0.00    -0.440 NA
ATOM     19  C   LIG    1        0.091  -0.141  -0.025  0.00  0.00    +0.310 A 
ATOM     20  C   LIG    1        0.046   1.097   0.601  0.00  0.00    +0.020 A 
ATOM     21  C   LIG    1        1.188   1.889   0.614  0.00  0.00    +0.080 A 
BRANCH  20  22
ATOM     22  O   LIG    1       -1.099   1.529   1.192  0.00  0.00    -0.650 OA
BRANCH  22  23
ATOM     23  S   LIG    1       -1.225   1.135   2.657  0.00  0.00    +2.740 S 
ATOM     24  F   LIG    1       -0.366   2.196   3.511  0.00  0.00    -0.480 F 
ATOM     25  O   LIG    1       -0.568  -0.117   2.794  0.00  0.00    -0.940 OA
ATOM     26  O   LIG    1       -2.585   1.342   3.012  0.00  0.00    -0.910 OA
ENDBRANCH  22  23
ENDBRANCH  20  22
ENDBRANCH   2  16
TORSDOF 6
