REMARK  Name = ZINCrD000000CVSY.0
REMARK                            x       y       z     vdW  Elec       q    Type
REMARK                         _______ _______ _______ _____ _____    ______ ____
ROOT
ATOM      1  O   LIG    1       -2.335  10.422   2.316  0.00  0.00    -0.530 OA
ATOM      2  C   LIG    1       -2.287  10.880   1.191  0.00  0.00    +0.700 C 
ATOM      3  N   LIG    1       -2.130  12.191   0.922  0.00  0.00    -0.710 N 
ATOM      4  H   LIG    1       -2.039  12.909   1.568  0.00  0.00    +0.440 HD
ATOM      5  C   LIG    1       -2.129  12.317  -0.540  0.00  0.00    +0.170 C 
ATOM      6  C   LIG    1       -2.301  10.898  -1.032  0.00  0.00    +0.540 C 
ATOM      7  O   LIG    1       -2.356  10.522  -2.183  0.00  0.00    -0.450 OA
ATOM      8  C   LIG    1       -3.295  13.186  -1.002  0.00  0.00    +0.050 C 
ATOM      9  C   LIG    1       -3.100  13.507  -2.490  0.00  0.00    +0.260 C 
ATOM     10  O   LIG    1       -1.907  14.280  -2.633  0.00  0.00    -0.310 OA
ATOM     11  C   LIG    1       -0.776  13.823  -2.035  0.00  0.00    +0.160 A 
ATOM     12  C   LIG    1        0.450  14.324  -2.458  0.00  0.00    -0.010 A 
ATOM     13  C   LIG    1        1.619  13.888  -1.867  0.00  0.00    +0.070 A 
ATOM     14  C   LIG    1        1.571  12.952  -0.851  0.00  0.00    -0.020 A 
ATOM     15  C   LIG    1        0.355  12.452  -0.429  0.00  0.00    +0.060 A 
ATOM     16  C   LIG    1       -0.821  12.883  -1.018  0.00  0.00    -0.180 A 
ATOM     17  N   LIG    1       -2.380  10.139   0.081  0.00  0.00    -0.570 N 
ENDROOT
BRANCH  17  18
ATOM     18  C   LIG    1       -2.552   8.684   0.074  0.00  0.00    +0.320 C 
BRANCH  18  19
ATOM     19  C   LIG    1       -1.179   8.008   0.057  0.00  0.00    +0.030 C 
BRANCH  19  20
ATOM     20  C   LIG    1       -1.359   6.489   0.050  0.00  0.00    +0.200 C 
BRANCH  20  21
ATOM     21  O   LIG    1       -0.077   5.857   0.035  0.00  0.00    -0.310 OA
BRANCH  21  22
ATOM     22  C   LIG    1       -0.059   4.498   0.027  0.00  0.00    +0.140 A 
ATOM     23  C   LIG    1        1.151   3.820   0.012  0.00  0.00    +0.000 A 
ATOM     24  C   LIG    1        1.168   2.439   0.004  0.00  0.00    +0.070 A 
ATOM     25  C   LIG    1       -0.021   1.732   0.012  0.00  0.00    -0.070 A 
ATOM     26  C   LIG    1       -1.230   2.406   0.021  0.00  0.00    +0.070 A 
ATOM     27 CL   LIG    1        0.002  -0.004   0.002  0.00  0.00    -0.070 Cl
ATOM     28  C   LIG    1       -1.250   3.788   0.034  0.00  0.00    -0.060 A 
ENDBRANCH  21  22
ENDBRANCH  20  21
ENDBRANCH  19  20
ENDBRANCH  18  19
ENDBRANCH  17  18
TORSDOF 5
