REMARK  Name = ZINCtV000002HYQT.0
REMARK                            x       y       z     vdW  Elec       q    Type
REMARK                         _______ _______ _______ _____ _____    ______ ____
ROOT
ATOM      1  C   LIG    1        1.385   5.466   1.276  0.00  0.00    +0.170 C 
ENDROOT
BRANCH   1   4
ATOM      2  C   LIG    1       -0.296   7.868   3.442  0.00  0.00    +0.300 A 
ATOM      3  N   LIG    1        0.534   6.937   3.087  0.00  0.00    -0.530 NA
ATOM      4  C   LIG    1        0.483   6.539   1.828  0.00  0.00    +0.110 A 
ATOM      5  C   LIG    1       -0.429   7.167   1.085  0.00  0.00    -0.100 A 
ATOM      6  S   LIG    1       -1.262   8.332   2.110  0.00  0.00    +0.150 S 
BRANCH   2   7
ATOM      7  N   LIG    1       -0.386   8.409   4.716  0.00  0.00    -0.630 N 
ATOM      8  H   LIG    1        0.134   8.029   5.442  0.00  0.00    +0.420 HD
BRANCH   7  13
ATOM      9  C   LIG    1       -3.792  12.839   5.682  0.00  0.00    +0.090 C 
ATOM     10  C   LIG    1       -2.887  11.662   5.426  0.00  0.00    -0.100 A 
ATOM     11  C   LIG    1       -2.767  10.664   6.375  0.00  0.00    +0.040 A 
ATOM     12  C   LIG    1       -1.939   9.584   6.143  0.00  0.00    -0.010 A 
ATOM     13  C   LIG    1       -1.225   9.500   4.954  0.00  0.00    +0.150 A 
ATOM     14  C   LIG    1       -1.343  10.508   4.005  0.00  0.00    -0.020 A 
ATOM     15  C   LIG    1       -2.178  11.582   4.241  0.00  0.00    +0.050 A 
ENDBRANCH   7  13
ENDBRANCH   2   7
ENDBRANCH   1   4
BRANCH   1  16
ATOM     16  S   LIG    1        0.595   3.850   1.476  0.00  0.00    +0.030 S 
BRANCH  16  17
ATOM     17  C   LIG    1        1.832   2.815   0.767  0.00  0.00    +0.150 A 
ATOM     18  N   LIG    1        2.980   3.204   0.262  0.00  0.00    -0.280 NA
ATOM     19  N   LIG    1        3.633   2.185  -0.172  0.00  0.00    -0.270 NA
ATOM     20  C   LIG    1        2.950   1.095   0.033  0.00  0.00    +0.190 A 
ATOM     21  N   LIG    1        1.780   1.456   0.642  0.00  0.00    -0.430 N 
BRANCH  21  22
ATOM     22  C   LIG    1        0.693   0.571   1.065  0.00  0.00    +0.200 C 
ATOM     23  C   LIG    1       -0.346   1.140   2.033  0.00  0.00    +0.070 C 
ATOM     24  C   LIG    1       -0.718   0.895   0.569  0.00  0.00    +0.060 C 
ENDBRANCH  21  22
BRANCH  20  25
ATOM     25  C   LIG    1        3.371  -0.305  -0.333  0.00  0.00    +0.250 C 
BRANCH  25  26
ATOM     26  C   LIG    1        2.895  -0.624  -1.727  0.00  0.00    -0.190 A 
ATOM     27  C   LIG    1        3.584  -0.395  -2.846  0.00  0.00    +0.040 A 
ATOM     28  C   LIG    1        2.944  -0.776  -4.013  0.00  0.00    +0.010 A 
ATOM     29  C   LIG    1        1.732  -1.306  -3.842  0.00  0.00    -0.030 A 
ATOM     30  S   LIG    1        1.344  -1.349  -2.127  0.00  0.00    +0.100 S 
ENDBRANCH  25  26
ENDBRANCH  20  25
ENDBRANCH  16  17
ENDBRANCH   1  16
TORSDOF 8
