REMARK  Name = ZINCpk000000oEmq.0
REMARK                            x       y       z     vdW  Elec       q    Type
REMARK                         _______ _______ _______ _____ _____    ______ ____
ROOT
ATOM      1  N   LIG    1       -0.011   0.966   0.007  0.00  0.00    -0.730 N 
ATOM      2  H   LIG    1        0.002  -0.004   0.002  0.00  0.00    +0.400 HD
ATOM      3  C   LIG    1        1.147   1.655   0.000  0.00  0.00    +0.530 C 
ATOM      4  O   LIG    1        1.130   2.868   0.007  0.00  0.00    -0.530 OA
ENDROOT
BRANCH   3   5
ATOM      5  C   LIG    1        2.462   0.920  -0.017  0.00  0.00    +0.000 C 
ATOM      6  C   LIG    1        2.620   0.041   1.246  0.00  0.00    +0.070 C 
ATOM      7  C   LIG    1        4.089   0.149   1.591  0.00  0.00    +0.520 C 
ATOM      8  N   LIG    1        4.639   1.195   0.951  0.00  0.00    -0.610 N 
ATOM      9  O   LIG    1        4.684  -0.600   2.337  0.00  0.00    -0.530 OA
ATOM     10  C   LIG    1        3.646   1.901   0.132  0.00  0.00    +0.310 C 
BRANCH   8  11
ATOM     11  C   LIG    1        6.049   1.580   1.055  0.00  0.00    +0.320 C 
BRANCH  11  12
ATOM     12  C   LIG    1        6.855   0.861  -0.028  0.00  0.00    +0.150 C 
BRANCH  12  13
ATOM     13  O   LIG    1        6.434   1.315  -1.316  0.00  0.00    -0.390 OA
ATOM     14  C   LIG    1        7.128   0.702  -2.404  0.00  0.00    +0.200 C 
ENDBRANCH  12  13
ENDBRANCH  11  12
ENDBRANCH   8  11
ENDBRANCH   3   5
BRANCH   1  15
ATOM     15  C   LIG    1       -1.290   1.681   0.017  0.00  0.00    +0.270 C 
BRANCH  15  16
ATOM     16  C   LIG    1       -2.439   0.671   0.017  0.00  0.00    +0.180 C 
BRANCH  16  17
ATOM     17  N   LIG    1       -3.721   1.388   0.027  0.00  0.00    -0.490 N 
BRANCH  17  18
ATOM     18  C   LIG    1       -4.786   0.513  -0.199  0.00  0.00    +0.090 A 
ATOM     19  C   LIG    1       -5.010  -0.548   0.668  0.00  0.00    -0.030 A 
ATOM     20  C   LIG    1       -6.067  -1.409   0.444  0.00  0.00    +0.000 A 
ATOM     21  C   LIG    1       -6.894  -1.222  -0.648  0.00  0.00    +0.000 A 
ATOM     22  C   LIG    1       -6.671  -0.168  -1.516  0.00  0.00    +0.010 A 
ATOM     23  C   LIG    1       -5.619   0.699  -1.295  0.00  0.00    -0.060 A 
ATOM     24  C   LIG    1       -5.376   1.847  -2.241  0.00  0.00    +0.100 C 
ENDBRANCH  17  18
BRANCH  17  26
ATOM     25  C   LIG    1       -5.115   3.050   1.164  0.00  0.00    +0.030 C 
ATOM     26  C   LIG    1       -3.903   2.124   1.285  0.00  0.00    +0.170 C 
ENDBRANCH  17  26
ENDBRANCH  16  17
ENDBRANCH  15  16
ENDBRANCH   1  15
TORSDOF 9
