REMARK  Name = ZINCb80000002J9W.0
REMARK                            x       y       z     vdW  Elec       q    Type
REMARK                         _______ _______ _______ _____ _____    ______ ____
ROOT
ATOM      1  C   LIG    1       -0.013   1.086   0.008  0.00  0.00    +0.360 C 
ENDROOT
BRANCH   1   2
ATOM      2  N   LIG    1       -0.698   1.558   1.213  0.00  0.00    -0.380 N 
ATOM      3  C   LIG    1       -1.161   0.804   2.225  0.00  0.00    +0.480 A 
ATOM      4  N   LIG    1       -1.705   1.600   3.109  0.00  0.00    -0.540 NA
ATOM      5  C   LIG    1       -1.618   2.863   2.695  0.00  0.00    +0.420 A 
ATOM      6  N   LIG    1       -1.009   2.889   1.538  0.00  0.00    -0.300 NA
ENDBRANCH   1   2
BRANCH   1   8
ATOM      7  O   LIG    1       -1.732   2.265  -1.089  0.00  0.00    -0.420 OA
ATOM      8  C   LIG    1       -0.742   1.585  -1.213  0.00  0.00    +0.370 C 
BRANCH   8   9
ATOM      9  C   LIG    1       -0.235   1.235  -2.588  0.00  0.00    -0.090 C 
ATOM     10  C   LIG    1       -0.204   2.351  -3.635  0.00  0.00    +0.060 C 
ATOM     11  C   LIG    1       -1.247   1.236  -3.736  0.00  0.00    +0.060 C 
ENDBRANCH   8   9
ENDBRANCH   1   8
TORSDOF 3
