REMARK  Name = ZINCqH0000037gEj.1
REMARK                            x       y       z     vdW  Elec       q    Type
REMARK                         _______ _______ _______ _____ _____    ______ ____
ROOT
ATOM      1  C   LIG    1        5.610   6.236  -3.003  0.00  0.00    -0.040 A 
ATOM      2  C   LIG    1        6.341   6.664  -1.911  0.00  0.00    -0.030 A 
ATOM      3  C   LIG    1        5.901   6.385  -0.629  0.00  0.00    +0.040 A 
ATOM      4  C   LIG    1        4.727   5.684  -0.438  0.00  0.00    -0.080 A 
ATOM      5  C   LIG    1        3.994   5.249  -1.533  0.00  0.00    +0.130 A 
ATOM      6  C   LIG    1        4.437   5.529  -2.817  0.00  0.00    +0.000 A 
ENDROOT
BRANCH   1   7
ATOM      7  C   LIG    1        6.092   6.541  -4.398  0.00  0.00    +0.220 C 
BRANCH   7   8
ATOM      8  N   LIG    1        5.536   7.827  -4.838  0.00  0.00    -0.680 NA
ATOM      9  H   LIG    1        5.771   8.564  -4.190  0.00  0.00    +0.350 HD
BRANCH   8  11
ATOM     10  C   LIG    1        5.065   7.485  -7.217  0.00  0.00    +0.030 C 
ATOM     11  C   LIG    1        5.986   8.158  -6.197  0.00  0.00    +0.220 C 
BRANCH  11  12
ATOM     12  C   LIG    1        5.943   9.652  -6.391  0.00  0.00    -0.240 A 
ATOM     13  C   LIG    1        6.863  10.396  -7.046  0.00  0.00    +0.230 A 
ATOM     14  N   LIG    1        6.462  11.684  -6.997  0.00  0.00    -0.380 N 
ATOM     15  N   LIG    1        5.255  11.732  -6.288  0.00  0.00    -0.300 NA
ATOM     16  C   LIG    1        7.164  12.829  -7.581  0.00  0.00    +0.360 C 
ATOM     17  C   LIG    1        4.941  10.513  -5.930  0.00  0.00    +0.260 A 
ENDBRANCH  11  12
ENDBRANCH   8  11
ENDBRANCH   7   8
ENDBRANCH   1   7
BRANCH   5  18
ATOM     18  O   LIG    1        2.841   4.554  -1.348  0.00  0.00    -0.310 OA
BRANCH  18  19
ATOM     19  C   LIG    1        2.446   4.301   0.002  0.00  0.00    +0.250 C 
BRANCH  19  20
ATOM     20  C   LIG    1        1.154   3.525   0.010  0.00  0.00    -0.100 A 
ATOM     21  C   LIG    1       -0.055   4.197   0.025  0.00  0.00    +0.070 A 
ATOM     22  C   LIG    1       -1.246   3.492   0.033  0.00  0.00    +0.020 A 
ATOM     23  C   LIG    1       -1.234   2.113   0.019  0.00  0.00    +0.080 A 
ATOM     24  C   LIG    1       -0.017   1.428   0.010  0.00  0.00    -0.030 A 
ATOM     25  C   LIG    1        1.180   2.145   0.002  0.00  0.00    +0.090 A 
BRANCH  24  26
ATOM     26  C   LIG    1        0.002  -0.004   0.002  0.00  0.00    +0.250 C 
ATOM     27  N   LIG    1        0.018  -1.140  -0.004  0.00  0.00    -0.410 NA
ENDBRANCH  24  26
ENDBRANCH  19  20
ENDBRANCH  18  19
ENDBRANCH   5  18
TORSDOF 8
