REMARK  Name = ZINCtV00000vw2No.0
REMARK                            x       y       z     vdW  Elec       q    Type
REMARK                         _______ _______ _______ _____ _____    ______ ____
ROOT
ATOM      1  S   LIG    1        2.177  -0.955   1.364  0.00  0.00    -0.600 S 
ATOM      2  C   LIG    1        0.958  -0.483   2.470  0.00  0.00    +0.560 C 
ENDROOT
BRANCH   2   3
ATOM      3  N   LIG    1        1.212  -0.482   3.793  0.00  0.00    -0.630 N 
ATOM      4  H   LIG    1        0.550  -0.139   4.414  0.00  0.00    +0.400 HD
BRANCH   3   5
ATOM      5  C   LIG    1        2.432  -0.976   4.273  0.00  0.00    +0.130 A 
ATOM      6  C   LIG    1        2.960  -2.148   3.749  0.00  0.00    +0.090 A 
ATOM      7  C   LIG    1        4.165  -2.632   4.219  0.00  0.00    +0.030 A 
ATOM      8  C   LIG    1        4.843  -1.953   5.222  0.00  0.00    +0.090 A 
ATOM      9  C   LIG    1        4.313  -0.784   5.748  0.00  0.00    +0.020 A 
ATOM     10  C   LIG    1        3.110  -0.296   5.276  0.00  0.00    +0.020 A 
BRANCH   8  11
ATOM     11  O   LIG    1        6.026  -2.433   5.687  0.00  0.00    -0.260 OA
BRANCH  11  12
ATOM     12  C   LIG    1        6.000  -3.255   6.769  0.00  0.00    +0.120 A 
ATOM     13  C   LIG    1        4.786  -3.663   7.303  0.00  0.00    -0.060 A 
ATOM     14  C   LIG    1        4.763  -4.502   8.400  0.00  0.00    +0.050 A 
ATOM     15  C   LIG    1        5.947  -4.928   8.972  0.00  0.00    -0.030 A 
ATOM     16  C   LIG    1        7.159  -4.519   8.445  0.00  0.00    +0.050 A 
ATOM     17  C   LIG    1        7.188  -3.683   7.345  0.00  0.00    -0.020 A 
ENDBRANCH  11  12
ENDBRANCH   8  11
ENDBRANCH   3   5
ENDBRANCH   2   3
BRANCH   2  18
ATOM     18  N   LIG    1       -0.256  -0.114   2.016  0.00  0.00    -0.560 N 
BRANCH  18  19
ATOM     19  C   LIG    1       -0.533  -0.116   0.577  0.00  0.00    +0.420 C 
BRANCH  19  20
ATOM     20  C   LIG    1       -0.185   1.231  -0.003  0.00  0.00    -0.210 A 
ATOM     21  C   LIG    1        1.008   1.572  -0.493  0.00  0.00    +0.070 A 
ATOM     22  C   LIG    1        1.091   2.868  -0.974  0.00  0.00    +0.000 A 
ATOM     23  C   LIG    1       -0.033   3.578  -0.874  0.00  0.00    -0.040 A 
ATOM     24  S   LIG    1       -1.292   2.591  -0.143  0.00  0.00    +0.080 S 
ENDBRANCH  19  20
ENDBRANCH  18  19
BRANCH  18  25
ATOM     25  C   LIG    1       -1.300   0.289   2.962  0.00  0.00    +0.400 C 
BRANCH  25  26
ATOM     26  C   LIG    1       -2.100  -0.920   3.373  0.00  0.00    -0.050 A 
ATOM     27  C   LIG    1       -1.829  -1.726   4.415  0.00  0.00    -0.040 A 
ATOM     28  C   LIG    1       -2.830  -2.724   4.433  0.00  0.00    -0.060 A 
ATOM     29  C   LIG    1       -3.649  -2.472   3.396  0.00  0.00    +0.190 A 
ATOM     30  O   LIG    1       -3.202  -1.379   2.757  0.00  0.00    -0.170 OA
ENDBRANCH  25  26
ENDBRANCH  18  25
ENDBRANCH   2  18
TORSDOF 9
