REMARK  Name = ZINCtV000002KP1R.0
REMARK                            x       y       z     vdW  Elec       q    Type
REMARK                         _______ _______ _______ _____ _____    ______ ____
ROOT
ATOM      1  C   LIG    1       -0.028   1.531  -0.237  0.00  0.00    +0.180 A 
ATOM      2  N   LIG    1        1.014   2.307  -0.143  0.00  0.00    -0.250 NA
ATOM      3  N   LIG    1        0.649   3.502   0.159  0.00  0.00    -0.280 NA
ATOM      4  C   LIG    1       -0.657   3.553   0.274  0.00  0.00    +0.160 A 
ATOM      5  N   LIG    1       -1.131   2.298   0.019  0.00  0.00    -0.420 N 
ENDROOT
BRANCH   5   6
ATOM      6  C   LIG    1       -2.530   1.863   0.023  0.00  0.00    +0.190 C 
ATOM      7  C   LIG    1       -3.607   2.946  -0.053  0.00  0.00    +0.070 C 
ATOM      8  C   LIG    1       -3.369   2.194   1.259  0.00  0.00    +0.060 C 
ENDBRANCH   5   6
BRANCH   1   9
ATOM      9  C   LIG    1       -0.020   0.062  -0.574  0.00  0.00    +0.350 C 
BRANCH   9  10
ATOM     10  O   LIG    1        0.085  -0.701   0.629  0.00  0.00    -0.300 OA
BRANCH  10  17
ATOM     11 CL   LIG    1        0.320  -2.136   3.204  0.00  0.00    -0.050 Cl
ATOM     12  C   LIG    1        0.212  -2.858   1.629  0.00  0.00    -0.070 A 
ATOM     13  C   LIG    1        0.227  -4.234   1.496  0.00  0.00    +0.070 A 
ATOM     14  C   LIG    1        0.147  -4.809   0.241  0.00  0.00    +0.000 A 
ATOM     15  C   LIG    1        0.047  -4.011  -0.883  0.00  0.00    +0.060 A 
ATOM     16  C   LIG    1        0.026  -2.635  -0.756  0.00  0.00    -0.060 A 
ATOM     17  C   LIG    1        0.106  -2.054   0.501  0.00  0.00    +0.140 A 
ENDBRANCH  10  17
ENDBRANCH   9  10
ENDBRANCH   1   9
BRANCH   4  18
ATOM     18  S   LIG    1       -1.619   4.974   0.674  0.00  0.00    +0.040 S 
BRANCH  18  19
ATOM     19  C   LIG    1       -0.303   6.205   0.851  0.00  0.00    +0.190 C 
BRANCH  19  20
ATOM     20  C   LIG    1       -0.907   7.539   1.204  0.00  0.00    +0.080 A 
ATOM     21  C   LIG    1       -1.105   7.916   2.470  0.00  0.00    -0.040 A 
ATOM     22  S   LIG    1       -1.823   9.526   2.462  0.00  0.00    +0.130 S 
ATOM     23  C   LIG    1       -1.783   9.530   0.701  0.00  0.00    +0.140 A 
ATOM     24  N   LIG    1       -1.267   8.407   0.285  0.00  0.00    -0.450 NA
BRANCH  23  25
ATOM     25  C   LIG    1       -2.251  10.627  -0.161  0.00  0.00    -0.140 A 
ATOM     26  C   LIG    1       -2.785  11.789   0.275  0.00  0.00    +0.040 A 
ATOM     27  C   LIG    1       -3.147  12.666  -0.725  0.00  0.00    +0.010 A 
ATOM     28  C   LIG    1       -2.924  12.231  -1.969  0.00  0.00    -0.040 A 
ATOM     29  S   LIG    1       -2.209  10.625  -1.919  0.00  0.00    +0.190 S 
ENDBRANCH  23  25
ENDBRANCH  19  20
ENDBRANCH  18  19
ENDBRANCH   4  18
TORSDOF 8
