REMARK  Name = ZINCkj000005luIt.0
REMARK                            x       y       z     vdW  Elec       q    Type
REMARK                         _______ _______ _______ _____ _____    ______ ____
ROOT
ATOM      1  N   LIG    1        0.071   1.048   2.381  0.00  0.00    -0.710 N 
ATOM      2  H   LIG    1        1.038   0.975   2.350  0.00  0.00    +0.420 HD
ENDROOT
BRANCH   1   7
ATOM      3  C   LIG    1       -0.642   0.112   5.855  0.00  0.00    +0.490 A 
ATOM      4  N   LIG    1       -1.968   0.233   5.826  0.00  0.00    -0.590 NA
ATOM      5  C   LIG    1       -2.589   0.602   4.724  0.00  0.00    +0.600 A 
ATOM      6  N   LIG    1       -1.935   0.870   3.612  0.00  0.00    -0.600 NA
ATOM      7  C   LIG    1       -0.608   0.768   3.557  0.00  0.00    +0.480 A 
ATOM      8  C   LIG    1        0.087   0.381   4.700  0.00  0.00    -0.280 A 
ATOM      9 CL   LIG    1        1.817   0.239   4.684  0.00  0.00    -0.050 Cl
BRANCH   3  10
ATOM     10  N   LIG    1        0.004  -0.277   7.020  0.00  0.00    -0.820 N 
ATOM     11  H   LIG    1       -0.511  -0.463   7.820  0.00  0.00    +0.420 HD
ATOM     12  H   LIG    1        0.970  -0.363   7.033  0.00  0.00    +0.420 HD
ENDBRANCH   3  10
ENDBRANCH   1   7
BRANCH   1  13
ATOM     13  C   LIG    1       -0.671   1.455   1.185  0.00  0.00    +0.260 C 
ATOM     14  C   LIG    1        0.143   1.108  -0.065  0.00  0.00    +0.050 C 
ATOM     15  C   LIG    1       -0.601   1.607  -1.306  0.00  0.00    +0.280 C 
ATOM     16  N   LIG    1       -0.778   3.061  -1.224  0.00  0.00    -0.380 N 
ATOM     17  C   LIG    1       -1.619   3.396  -0.068  0.00  0.00    +0.260 C 
ATOM     18  H   LIG    1        0.123   3.504  -1.122  0.00  0.00    +0.420 HD
ATOM     19  C   LIG    1       -0.914   2.966   1.221  0.00  0.00    +0.050 C 
BRANCH  16  20
ATOM     20  C   LIG    1       -1.424   3.545  -2.451  0.00  0.00    +0.150 C 
ATOM     21  C   LIG    1       -1.575   5.082  -2.414  0.00  0.00    +0.050 C 
ATOM     22  C   LIG    1       -0.744   5.570  -3.621  0.00  0.00    +0.240 C 
ATOM     23  O   LIG    1       -0.704   4.442  -4.522  0.00  0.00    -0.340 OA
ATOM     24  C   LIG    1       -0.519   3.286  -3.676  0.00  0.00    +0.230 C 
ENDBRANCH  16  20
ENDBRANCH   1  13
TORSDOF 4
