REMARK  Name = ZINCpk00000KfLs5.0
REMARK                            x       y       z     vdW  Elec       q    Type
REMARK                         _______ _______ _______ _____ _____    ______ ____
ROOT
ATOM      1  C   LIG    1        2.260  -4.685  -3.222  0.00  0.00    +0.280 C 
ENDROOT
BRANCH   1   6
ATOM      2  O   LIG    1        2.102  -2.000  -3.029  0.00  0.00    -0.590 OA
ATOM      3  C   LIG    1        1.514  -2.621  -2.164  0.00  0.00    +0.700 C 
ATOM      4  N   LIG    1        0.845  -1.961  -1.198  0.00  0.00    -0.750 N 
ATOM      5  H   LIG    1        0.376  -2.457  -0.508  0.00  0.00    +0.400 HD
ATOM      6  N   LIG    1        1.532  -3.968  -2.172  0.00  0.00    -0.750 N 
ATOM      7  H   LIG    1        1.064  -4.464  -1.482  0.00  0.00    +0.400 HD
BRANCH   4   8
ATOM      8  C   LIG    1        0.825  -0.496  -1.190  0.00  0.00    +0.300 C 
BRANCH   8   9
ATOM      9  C   LIG    1        0.002  -0.004   0.002  0.00  0.00    +0.100 C 
BRANCH   9  10
ATOM     10  C   LIG    1       -0.018   1.503   0.010  0.00  0.00    +0.130 A 
ATOM     11  C   LIG    1       -1.229   2.169   0.020  0.00  0.00    -0.030 A 
ATOM     12  C   LIG    1       -1.237   3.556   0.032  0.00  0.00    +0.070 A 
ATOM     13  C   LIG    1       -0.021   4.223   0.024  0.00  0.00    -0.040 A 
ATOM     14  C   LIG    1        1.150   3.488   0.009  0.00  0.00    +0.270 A 
ATOM     15  N   LIG    1        1.119   2.170   0.003  0.00  0.00    -0.480 NA
ENDBRANCH   9  10
ENDBRANCH   8   9
ENDBRANCH   4   8
ENDBRANCH   1   6
BRANCH   1  16
ATOM     16  C   LIG    1        2.122  -6.193  -3.000  0.00  0.00    +0.020 C 
BRANCH  16  17
ATOM     17  C   LIG    1        2.882  -6.942  -4.096  0.00  0.00    +0.280 C 
BRANCH  17  18
ATOM     18  N   LIG    1        2.750  -8.385  -3.884  0.00  0.00    -0.730 N 
ATOM     19  H   LIG    1        2.237  -8.720  -3.131  0.00  0.00    +0.400 HD
ATOM     20  C   LIG    1        3.342  -9.248  -4.733  0.00  0.00    +0.560 C 
ATOM     21  O   LIG    1        3.985  -8.829  -5.676  0.00  0.00    -0.530 OA
BRANCH  20  22
ATOM     22  C   LIG    1        3.209 -10.705  -4.518  0.00  0.00    -0.120 A 
ATOM     23  C   LIG    1        2.476 -11.189  -3.433  0.00  0.00    +0.030 A 
ATOM     24  C   LIG    1        2.350 -12.549  -3.239  0.00  0.00    +0.030 A 
ATOM     25  C   LIG    1        2.956 -13.436  -4.109  0.00  0.00    +0.020 A 
ATOM     26  C   LIG    1        3.691 -12.964  -5.188  0.00  0.00    +0.100 A 
ATOM     27  C   LIG    1        3.820 -11.601  -5.396  0.00  0.00    +0.050 A 
BRANCH  26  28
ATOM     28  O   LIG    1        4.285 -13.840  -6.041  0.00  0.00    -0.500 OA
ATOM     29  H   LIG    1        5.186 -14.086  -5.788  0.00  0.00    +0.390 HD
ENDBRANCH  26  28
ENDBRANCH  20  22
ENDBRANCH  17  18
ENDBRANCH  16  17
ENDBRANCH   1  16
TORSDOF 9
