REMARK  Name = ZINCpk00000y5Nc3.0
REMARK                            x       y       z     vdW  Elec       q    Type
REMARK                         _______ _______ _______ _____ _____    ______ ____
ROOT
ATOM      1  C   LIG    1       -2.156   1.023   1.294  0.00  0.00    +0.140 C 
ATOM      2  C   LIG    1       -0.730   1.580   1.266  0.00  0.00    +0.050 C 
ATOM      3  C   LIG    1       -0.013   1.086   0.008  0.00  0.00    +0.030 C 
ATOM      4  C   LIG    1       -0.755   1.594  -1.232  0.00  0.00    +0.250 C 
ATOM      5  N   LIG    1       -2.163   1.185  -1.141  0.00  0.00    -0.600 N 
ATOM      6  C   LIG    1       -2.747   0.505  -2.148  0.00  0.00    +0.520 C 
ATOM      7  O   LIG    1       -3.910   0.173  -2.061  0.00  0.00    -0.510 OA
ATOM      8  C   LIG    1       -2.923   1.530   0.068  0.00  0.00    +0.280 C 
ENDROOT
BRANCH   1   9
ATOM      9  O   LIG    1       -2.110  -0.405   1.270  0.00  0.00    -0.550 OA
ATOM     10  H   LIG    1       -2.980  -0.827   1.283  0.00  0.00    +0.390 HD
ENDBRANCH   1   9
BRANCH   1  11
ATOM     11  C   LIG    1       -2.863   1.490   2.567  0.00  0.00    +0.050 C 
BRANCH  11  15
ATOM     12  N   LIG    1       -5.083   1.227   3.627  0.00  0.00    -0.850 N 
ATOM     13  H   LIG    1       -5.987   0.875   3.643  0.00  0.00    +0.400 HD
ATOM     14  H   LIG    1       -4.766   1.782   4.356  0.00  0.00    +0.400 HD
ATOM     15  C   LIG    1       -4.267   0.943   2.592  0.00  0.00    +0.520 C 
ATOM     16  O   LIG    1       -4.663   0.249   1.680  0.00  0.00    -0.540 OA
ENDBRANCH  11  15
ENDBRANCH   1  11
BRANCH   6  17
ATOM     17  C   LIG    1       -1.955   0.159  -3.382  0.00  0.00    +0.220 C 
BRANCH  17  18
ATOM     18  O   LIG    1       -2.787  -0.556  -4.298  0.00  0.00    -0.290 OA
BRANCH  18  19
ATOM     19  C   LIG    1       -2.222  -0.946  -5.471  0.00  0.00    +0.130 A 
ATOM     20  C   LIG    1       -2.970  -1.632  -6.384  0.00  0.00    -0.010 A 
ATOM     21  C   LIG    1       -2.388  -2.036  -7.596  0.00  0.00    -0.010 A 
ATOM     22  C   LIG    1       -3.126  -2.744  -8.560  0.00  0.00    +0.020 A 
ATOM     23  C   LIG    1       -2.528  -3.120  -9.724  0.00  0.00    +0.020 A 
ATOM     24  C   LIG    1       -1.193  -2.812  -9.976  0.00  0.00    -0.010 A 
ATOM     25  C   LIG    1       -0.447  -2.128  -9.066  0.00  0.00    +0.040 A 
ATOM     26  C   LIG    1       -1.029  -1.723  -7.853  0.00  0.00    -0.080 A 
ATOM     27  C   LIG    1       -0.288  -1.015  -6.890  0.00  0.00    +0.070 A 
ATOM     28  C   LIG    1       -0.884  -0.634  -5.729  0.00  0.00    -0.060 A 
ENDBRANCH  18  19
ENDBRANCH  17  18
ENDBRANCH   6  17
TORSDOF 6
