REMARK  Name = ZINCrH000004mXyP.0
REMARK                            x       y       z     vdW  Elec       q    Type
REMARK                         _______ _______ _______ _____ _____    ______ ____
ROOT
ATOM      1  N   LIG    1        0.002  -0.004   0.002  0.00  0.00    -0.740 N 
ATOM      2  H   LIG    1       -0.831  -0.500   0.007  0.00  0.00    +0.400 HD
ATOM      3  C   LIG    1       -0.016   1.344   0.009  0.00  0.00    +0.710 C 
ATOM      4  N   LIG    1       -1.192   2.002   0.019  0.00  0.00    -0.740 N 
ATOM      5  H   LIG    1       -2.026   1.505   0.020  0.00  0.00    +0.400 HD
ATOM      6  O   LIG    1        1.028   1.966   0.003  0.00  0.00    -0.590 OA
ENDROOT
BRANCH   1   7
ATOM      7  C   LIG    1        1.281  -0.719  -0.014  0.00  0.00    +0.310 C 
ATOM      8  C   LIG    1        1.773  -0.851  -1.456  0.00  0.00    +0.040 C 
BRANCH   7  12
ATOM      9  C   LIG    1        0.759  -4.611   1.675  0.00  0.00    +0.100 A 
ATOM     10  C   LIG    1        1.900  -3.877   1.960  0.00  0.00    -0.040 A 
ATOM     11  C   LIG    1        2.066  -2.619   1.412  0.00  0.00    +0.070 A 
ATOM     12  C   LIG    1        1.096  -2.091   0.581  0.00  0.00    -0.100 A 
ATOM     13  C   LIG    1       -0.046  -2.818   0.298  0.00  0.00    +0.030 A 
ATOM     14  C   LIG    1       -0.215  -4.080   0.840  0.00  0.00    +0.070 A 
ATOM     15  F   LIG    1       -1.329  -4.792   0.560  0.00  0.00    -0.130 F 
BRANCH   9  17
ATOM     16  C   LIG    1        1.636  -6.332   3.063  0.00  0.00    +0.250 C 
ATOM     17  O   LIG    1        0.594  -5.849   2.213  0.00  0.00    -0.310 OA
ENDBRANCH   9  17
ENDBRANCH   7  12
ENDBRANCH   1   7
BRANCH   4  18
ATOM     18  C   LIG    1       -1.212   3.466   0.027  0.00  0.00    +0.340 C 
BRANCH  18  19
ATOM     19  C   LIG    1       -2.640   3.949   0.036  0.00  0.00    -0.100 A 
ATOM     20  C   LIG    1       -3.296   4.182  -1.159  0.00  0.00    +0.030 A 
ATOM     21  C   LIG    1       -4.605   4.620  -1.156  0.00  0.00    +0.030 A 
ATOM     22  C   LIG    1       -5.262   4.837   0.053  0.00  0.00    -0.010 A 
ATOM     23  C   LIG    1       -4.594   4.606   1.254  0.00  0.00    +0.040 A 
ATOM     24  C   LIG    1       -3.287   4.164   1.240  0.00  0.00    +0.030 A 
BRANCH  22  25
ATOM     25  C   LIG    1       -6.667   5.314   0.063  0.00  0.00    +0.110 A 
ATOM     26  N   LIG    1       -7.396   5.557   1.132  0.00  0.00    -0.280 NA
ATOM     27  N   LIG    1       -8.659   5.988   0.709  0.00  0.00    -0.470 N 
ATOM     28  H   LIG    1       -9.398   6.237   1.286  0.00  0.00    +0.440 HD
ATOM     29  C   LIG    1       -8.671   5.997  -0.641  0.00  0.00    +0.240 A 
ATOM     30  C   LIG    1       -7.456   5.592  -1.071  0.00  0.00    -0.110 A 
ENDBRANCH  22  25
ENDBRANCH  18  19
ENDBRANCH   4  18
TORSDOF 6
