REMARK  Name = ZINCDN00000008Yr.0
REMARK                            x       y       z     vdW  Elec       q    Type
REMARK                         _______ _______ _______ _____ _____    ______ ____
ROOT
ATOM      1  CA  LIG    1       -1.384   2.209  -0.402  0.00  0.00    +0.050 C 
ATOM      2  C   LIG    1       -1.419   3.498   0.017  0.00  0.00    +0.130 C 
ENDROOT
BRANCH   2   3
ATOM      3  C   LIG    1       -0.214   4.332  -0.076  0.00  0.00    -0.210 A 
ATOM      4  C   LIG    1        1.079   3.957   0.232  0.00  0.00    +0.350 A 
ATOM      5  N   LIG    1        1.880   5.017   0.007  0.00  0.00    -0.310 N 
ATOM      6  N   LIG    1        1.116   6.094  -0.451  0.00  0.00    -0.290 NA
ATOM      7  C   LIG    1       -0.145   5.729  -0.522  0.00  0.00    +0.140 A 
BRANCH   5   8
ATOM      8  C   LIG    1        3.267   5.036   0.203  0.00  0.00    +0.160 A 
ATOM      9  C   LIG    1        3.920   3.903   0.669  0.00  0.00    +0.010 A 
ATOM     10  C   LIG    1        5.288   3.923   0.854  0.00  0.00    +0.040 A 
ATOM     11  C   LIG    1        6.006   5.075   0.588  0.00  0.00    +0.000 A 
ATOM     12  C   LIG    1        5.358   6.207   0.129  0.00  0.00    +0.030 A 
ATOM     13  C   LIG    1        3.991   6.191  -0.064  0.00  0.00    +0.010 A 
ENDBRANCH   5   8
BRANCH   7  14
ATOM     14  C   LIG    1       -1.282   6.569  -0.966  0.00  0.00    -0.050 A 
ATOM     15  C   LIG    1       -1.306   7.938  -0.683  0.00  0.00    +0.090 A 
ATOM     16  C   LIG    1       -2.391   8.680  -1.119  0.00  0.00    -0.030 A 
ATOM     17  C   LIG    1       -3.406   8.048  -1.814  0.00  0.00    +0.260 A 
ATOM     18  N   LIG    1       -3.356   6.754  -2.067  0.00  0.00    -0.480 NA
ATOM     19  C   LIG    1       -2.342   6.009  -1.677  0.00  0.00    +0.290 A 
ENDBRANCH   7  14
ENDBRANCH   2   3
BRANCH   1  22
ATOM     20  N   LIG    1       -0.134   0.403  -1.459  0.00  0.00    -0.670 N 
ATOM     21  H   LIG    1       -0.836  -0.209  -1.188  0.00  0.00    +0.390 HD
ATOM     22  C   LIG    1       -0.223   1.711  -1.146  0.00  0.00    +0.550 C 
ATOM     23  O   LIG    1        0.657   2.480  -1.486  0.00  0.00    -0.540 OA
BRANCH  20  24
ATOM     24  CA  LIG    1        1.024  -0.093  -2.207  0.00  0.00    +0.160 C 
BRANCH  24  25
ATOM     25  C   LIG    1        2.149  -0.393  -1.252  0.00  0.00    +0.490 C 
ATOM     26  OXT LIG    1        3.263  -0.643  -1.680  0.00  0.00    -0.700 OA
ATOM     27  O   LIG    1        1.946  -0.385  -0.049  0.00  0.00    -0.670 OA
ENDBRANCH  24  25
BRANCH  24  28
ATOM     28  CB  LIG    1        0.637  -1.370  -2.956  0.00  0.00    -0.020 C 
ATOM     29  CG2 LIG    1       -0.506  -1.066  -3.927  0.00  0.00    +0.000 C 
BRANCH  28  31
ATOM     30  CD1 LIG    1        1.496  -3.231  -4.386  0.00  0.00    +0.000 C 
ATOM     31  CG1 LIG    1        1.845  -1.889  -3.738  0.00  0.00    +0.020 C 
ENDBRANCH  28  31
ENDBRANCH  24  28
ENDBRANCH  20  24
ENDBRANCH   1  22
BRANCH   1  32
ATOM     32  N   LIG    1       -2.459   1.354  -0.125  0.00  0.00    -0.680 N 
ATOM     33  H   LIG    1       -3.339   1.549  -0.482  0.00  0.00    +0.400 HD
ATOM     34  C   LIG    1       -2.269   0.259   0.637  0.00  0.00    +0.540 C 
ATOM     35  O   LIG    1       -1.150  -0.034   1.012  0.00  0.00    -0.470 OA
BRANCH  34  36
ATOM     36  C   LIG    1       -3.420  -0.586   1.018  0.00  0.00    -0.130 A 
ATOM     37  C   LIG    1       -4.707  -0.249   0.594  0.00  0.00    +0.040 A 
ATOM     38  C   LIG    1       -5.777  -1.044   0.949  0.00  0.00    +0.000 A 
ATOM     39  C   LIG    1       -5.578  -2.168   1.732  0.00  0.00    +0.030 A 
ATOM     40  C   LIG    1       -4.306  -2.505   2.159  0.00  0.00    +0.000 A 
ATOM     41  C   LIG    1       -3.227  -1.721   1.808  0.00  0.00    +0.080 A 
ENDBRANCH  34  36
ENDBRANCH   1  32
TORSDOF 10
