REMARK  Name = ZINCpk00000y6tGl.0
REMARK                            x       y       z     vdW  Elec       q    Type
REMARK                         _______ _______ _______ _____ _____    ______ ____
ROOT
ATOM      1  C   LIG    1        2.228  -4.268   2.776  0.00  0.00    +0.610 C 
ATOM      2  N   LIG    1        1.848  -3.549   1.701  0.00  0.00    -0.600 N 
ATOM      3  C   LIG    1        0.917  -4.000   0.651  0.00  0.00    +0.270 C 
ATOM      4  C   LIG    1        0.340  -2.697   0.045  0.00  0.00    +0.090 C 
ATOM      5  C   LIG    1        1.578  -1.762   0.081  0.00  0.00    +0.210 C 
ATOM      6  C   LIG    1        2.292  -2.184   1.382  0.00  0.00    +0.260 C 
ATOM      7  O   LIG    1        3.024  -3.803   3.568  0.00  0.00    -0.540 OA
ENDROOT
BRANCH   1  11
ATOM      8  C   LIG    1        0.629  -7.550   2.764  0.00  0.00    +0.030 A 
ATOM      9  N   LIG    1        1.225  -7.516   3.928  0.00  0.00    -0.270 NA
ATOM     10  N   LIG    1        1.847  -6.404   4.093  0.00  0.00    -0.260 N 
ATOM     11  C   LIG    1        1.680  -5.617   2.989  0.00  0.00    -0.040 A 
ATOM     12  C   LIG    1        2.617  -6.037   5.284  0.00  0.00    +0.360 C 
ATOM     13  C   LIG    1        0.887  -6.340   2.115  0.00  0.00    -0.020 A 
BRANCH   8  15
ATOM     14  C   LIG    1       -1.674  -8.436   2.520  0.00  0.00    +0.040 C 
ATOM     15  C   LIG    1       -0.195  -8.689   2.221  0.00  0.00    +0.070 C 
ATOM     16  C   LIG    1        0.010  -8.792   0.709  0.00  0.00    +0.040 C 
ENDBRANCH   8  15
ENDBRANCH   1  11
BRANCH   5  17
ATOM     17  C   LIG    1        1.154  -0.318   0.150  0.00  0.00    -0.050 A 
ATOM     18  C   LIG    1        1.963   0.767   0.101  0.00  0.00    +0.150 A 
ATOM     19  N   LIG    1        1.152   1.846   0.196  0.00  0.00    -0.280 N 
ATOM     20  N   LIG    1       -0.062   1.431   0.296  0.00  0.00    -0.080 NA
ATOM     21  N   LIG    1       -0.095   0.145   0.272  0.00  0.00    -0.250 NA
BRANCH  19  22
ATOM     22  C   LIG    1        1.582   3.246   0.186  0.00  0.00    +0.250 C 
ATOM     23  C   LIG    1        2.782   3.405  -0.749  0.00  0.00    +0.060 C 
ATOM     24  C   LIG    1        1.980   3.667   1.603  0.00  0.00    +0.060 C 
ENDBRANCH  19  22
ENDBRANCH   5  17
BRANCH   5  25
ATOM     25  O   LIG    1        2.415  -1.988  -1.055  0.00  0.00    -0.530 OA
ATOM     26  H   LIG    1        3.222  -1.455  -1.061  0.00  0.00    +0.380 HD
ENDBRANCH   5  25
TORSDOF 5
