REMARK  Name = ZINCrH000004tP8y.0
REMARK                            x       y       z     vdW  Elec       q    Type
REMARK                         _______ _______ _______ _____ _____    ______ ____
ROOT
ATOM      1  O   LIG    1       -0.658  -0.730  -0.145  0.00  0.00    -0.490 OA
ATOM      2  C   LIG    1        0.197   0.122  -0.262  0.00  0.00    +0.520 C 
ATOM      3  N   LIG    1       -0.104   1.415  -0.031  0.00  0.00    -0.560 N 
ENDROOT
BRANCH   3   4
ATOM      4  C   LIG    1       -1.486   1.804   0.262  0.00  0.00    +0.260 C 
ATOM      5  C   LIG    1       -2.013   1.061   1.508  0.00  0.00    +0.090 C 
ATOM      6  C   LIG    1       -3.476   0.798   1.224  0.00  0.00    -0.090 A 
ATOM      7  C   LIG    1       -4.510   0.460   2.080  0.00  0.00    +0.010 A 
ATOM      8  C   LIG    1       -5.786   0.267   1.587  0.00  0.00    +0.000 A 
ATOM      9  C   LIG    1       -6.032   0.411   0.235  0.00  0.00    +0.000 A 
ATOM     10  C   LIG    1       -5.002   0.749  -0.621  0.00  0.00    +0.010 A 
ATOM     11  C   LIG    1       -3.723   0.943  -0.129  0.00  0.00    -0.090 A 
ATOM     12  C   LIG    1       -2.441   1.312  -0.846  0.00  0.00    +0.090 C 
ENDBRANCH   3   4
BRANCH   3  13
ATOM     13  C   LIG    1        0.901   2.387  -0.077  0.00  0.00    +0.120 A 
ATOM     14  C   LIG    1        1.897   2.404   0.891  0.00  0.00    +0.010 A 
ATOM     15  C   LIG    1        2.891   3.362   0.840  0.00  0.00    +0.030 A 
ATOM     16  C   LIG    1        2.890   4.309  -0.167  0.00  0.00    +0.020 A 
ATOM     17  C   LIG    1        1.897   4.298  -1.130  0.00  0.00    +0.030 A 
ATOM     18  C   LIG    1        0.903   3.340  -1.087  0.00  0.00    +0.010 A 
ENDBRANCH   3  13
BRANCH   2  19
ATOM     19  C   LIG    1        1.597  -0.265  -0.664  0.00  0.00    +0.200 C 
BRANCH  19  20
ATOM     20  O   LIG    1        1.678  -1.685  -0.799  0.00  0.00    -0.360 OA
BRANCH  20  21
ATOM     21  C   LIG    1        2.971  -2.160  -1.181  0.00  0.00    +0.240 C 
BRANCH  21  22
ATOM     22  C   LIG    1        2.941  -3.663  -1.293  0.00  0.00    -0.050 A 
ATOM     23  C   LIG    1        3.238  -4.462  -0.199  0.00  0.00    -0.010 A 
ATOM     24  C   LIG    1        3.197  -5.836  -0.339  0.00  0.00    +0.260 A 
ATOM     25  N   LIG    1        2.889  -6.388  -1.497  0.00  0.00    -0.480 NA
ATOM     26  C   LIG    1        2.606  -5.659  -2.558  0.00  0.00    +0.260 A 
ATOM     27  C   LIG    1        2.623  -4.279  -2.493  0.00  0.00    -0.010 A 
ENDBRANCH  21  22
ENDBRANCH  20  21
ENDBRANCH  19  20
ENDBRANCH   2  19
TORSDOF 6
