REMARK  Name = ZINCpe000000W3Fy.0
REMARK                            x       y       z     vdW  Elec       q    Type
REMARK                         _______ _______ _______ _____ _____    ______ ____
ROOT
ATOM      1  C   LIG    1       -1.187   1.624   0.017  0.00  0.00    +0.510 C 
ATOM      2  N   LIG    1       -0.011   0.966   0.007  0.00  0.00    -0.650 N 
ATOM      3  H   LIG    1        0.002  -0.004   0.002  0.00  0.00    +0.410 HD
ATOM      4  O   LIG    1       -1.204   2.837   0.023  0.00  0.00    -0.490 OA
ENDROOT
BRANCH   2   5
ATOM      5  C   LIG    1        1.187   1.680  -0.000  0.00  0.00    +0.300 A 
ATOM      6  C   LIG    1        1.316   3.034  -0.000  0.00  0.00    -0.110 A 
ATOM      7  C   LIG    1        2.681   3.334  -0.007  0.00  0.00    +0.250 A 
ATOM      8  N   LIG    1        3.349   2.209  -0.019  0.00  0.00    -0.280 NA
ATOM      9  N   LIG    1        2.432   1.151  -0.015  0.00  0.00    -0.380 N 
BRANCH   9  10
ATOM     10  C   LIG    1        2.763  -0.276  -0.024  0.00  0.00    +0.250 C 
ATOM     11  C   LIG    1        3.660  -0.619   1.183  0.00  0.00    +0.030 C 
ATOM     12  C   LIG    1        4.651  -1.674   0.633  0.00  0.00    +0.020 C 
ATOM     13  C   LIG    1        4.934  -1.161  -0.801  0.00  0.00    +0.020 C 
ATOM     14  C   LIG    1        3.573  -0.621  -1.286  0.00  0.00    +0.030 C 
ENDBRANCH   9  10
ENDBRANCH   2   5
BRANCH   1  15
ATOM     15  C   LIG    1       -2.482   0.853   0.018  0.00  0.00    +0.380 C 
BRANCH  15  20
ATOM     16  C   LIG    1       -5.293   3.188   0.679  0.00  0.00    +0.130 C 
ATOM     17  N   LIG    1       -5.204   3.116  -0.790  0.00  0.00    -0.710 N 
ATOM     18  H   LIG    1       -5.765   3.583  -1.429  0.00  0.00    +0.450 HD
ATOM     19  C   LIG    1       -4.192   2.276  -1.073  0.00  0.00    +0.710 C 
ATOM     20  N   LIG    1       -3.608   1.789   0.029  0.00  0.00    -0.560 N 
ATOM     21  O   LIG    1       -3.846   1.990  -2.202  0.00  0.00    -0.530 OA
ATOM     22  C   LIG    1       -5.046   4.619   1.163  0.00  0.00    +0.090 C 
ATOM     23  C   LIG    1       -4.189   2.263   1.149  0.00  0.00    +0.540 C 
ATOM     24  O   LIG    1       -3.888   2.005   2.295  0.00  0.00    -0.450 OA
BRANCH  16  25
ATOM     25  C   LIG    1       -6.656   2.686   1.160  0.00  0.00    +0.210 C 
BRANCH  25  27
ATOM     26  C   LIG    1       -9.012   3.050   0.911  0.00  0.00    +0.210 C 
ATOM     27  O   LIG    1       -7.692   3.441   0.528  0.00  0.00    -0.380 OA
ENDBRANCH  25  27
ENDBRANCH  16  25
ENDBRANCH  15  20
ENDBRANCH   1  15
TORSDOF 6
