REMARK  Name = ZINCkj00000GeSkt.1
REMARK                            x       y       z     vdW  Elec       q    Type
REMARK                         _______ _______ _______ _____ _____    ______ ____
ROOT
ATOM      1  N   LIG    1       -0.430   3.000   1.536  0.00  0.00    -0.750 N 
ATOM      2  H   LIG    1       -0.968   3.722   1.175  0.00  0.00    +0.400 HD
ATOM      3  C   LIG    1        0.642   3.278   2.303  0.00  0.00    +0.700 C 
ATOM      4  N   LIG    1        0.967   4.558   2.570  0.00  0.00    -0.730 N 
ATOM      5  H   LIG    1        0.429   5.280   2.208  0.00  0.00    +0.400 HD
ATOM      6  O   LIG    1        1.317   2.373   2.756  0.00  0.00    -0.580 OA
ENDROOT
BRANCH   1  10
ATOM      7  N   LIG    1       -0.770   1.597  -1.154  0.00  0.00    -0.390 N 
ATOM      8  C   LIG    1       -2.162   1.847  -0.734  0.00  0.00    +0.250 C 
ATOM      9  C   LIG    1       -2.257   1.496   0.765  0.00  0.00    +0.010 C 
ATOM     10  C   LIG    1       -0.783   1.608   1.246  0.00  0.00    +0.290 C 
ATOM     11  C   LIG    1       -3.148   2.499   1.500  0.00  0.00    +0.070 C 
ATOM     12  C   LIG    1       -0.013   1.086   0.008  0.00  0.00    +0.260 C 
ATOM     13  H   LIG    1       -0.355   2.457  -1.478  0.00  0.00    +0.420 HD
BRANCH   7  15
ATOM     14  C   LIG    1       -1.566   1.118  -3.420  0.00  0.00    +0.090 C 
ATOM     15  C   LIG    1       -0.751   0.600  -2.233  0.00  0.00    +0.160 C 
ATOM     16  C   LIG    1        0.693   0.354  -2.675  0.00  0.00    +0.090 C 
ENDBRANCH   7  15
ENDBRANCH   1  10
BRANCH   4  17
ATOM     17  C   LIG    1        2.133   4.860   3.404  0.00  0.00    +0.340 C 
BRANCH  17  18
ATOM     18  C   LIG    1        2.275   6.354   3.547  0.00  0.00    -0.200 C 
ATOM     19  C   LIG    1        1.753   6.931   4.588  0.00  0.00    +0.020 C 
ATOM     20  C   LIG    1        1.839   8.415   4.817  0.00  0.00    +0.050 C 
ATOM     21  C   LIG    1        2.923   9.013   3.916  0.00  0.00    +0.210 C 
ATOM     22  O   LIG    1        2.736   8.509   2.588  0.00  0.00    -0.380 OA
ATOM     23  C   LIG    1        3.010   7.111   2.477  0.00  0.00    +0.270 C 
ENDBRANCH  17  18
ENDBRANCH   4  17
TORSDOF 4
