REMARK  Name = ZINCkj00000GeSkt.0
REMARK                            x       y       z     vdW  Elec       q    Type
REMARK                         _______ _______ _______ _____ _____    ______ ____
ROOT
ATOM      1  N   LIG    1       -3.050   2.858   0.984  0.00  0.00    -0.740 N 
ATOM      2  H   LIG    1       -2.976   3.561   0.320  0.00  0.00    +0.400 HD
ATOM      3  C   LIG    1       -3.693   3.092   2.145  0.00  0.00    +0.700 C 
ATOM      4  N   LIG    1       -4.234   4.304   2.383  0.00  0.00    -0.730 N 
ATOM      5  H   LIG    1       -4.160   5.007   1.719  0.00  0.00    +0.400 HD
ATOM      6  O   LIG    1       -3.786   2.211   2.978  0.00  0.00    -0.580 OA
ENDROOT
BRANCH   1  10
ATOM      7  N   LIG    1       -0.207   1.205  -0.108  0.00  0.00    -0.390 N 
ATOM      8  C   LIG    1       -1.061   1.630  -1.247  0.00  0.00    +0.260 C 
ATOM      9  C   LIG    1       -2.486   1.231  -0.789  0.00  0.00    +0.000 C 
ATOM     10  C   LIG    1       -2.462   1.541   0.726  0.00  0.00    +0.290 C 
ATOM     11  C   LIG    1       -3.541   2.079  -1.502  0.00  0.00    +0.070 C 
ATOM     12  C   LIG    1       -0.971   1.533   1.115  0.00  0.00    +0.250 C 
ATOM     13  H   LIG    1       -0.034   0.212  -0.154  0.00  0.00    +0.430 HD
BRANCH   7  15
ATOM     14  C   LIG    1        1.920   1.511   1.067  0.00  0.00    +0.080 C 
ATOM     15  C   LIG    1        1.063   1.943  -0.125  0.00  0.00    +0.160 C 
ATOM     16  C   LIG    1        1.811   1.642  -1.425  0.00  0.00    +0.080 C 
ENDBRANCH   7  15
ENDBRANCH   1  10
BRANCH   4  17
ATOM     17  C   LIG    1       -4.934   4.559   3.645  0.00  0.00    +0.340 C 
BRANCH  17  18
ATOM     18  C   LIG    1       -5.440   5.978   3.661  0.00  0.00    -0.200 C 
ATOM     19  C   LIG    1       -6.662   6.206   3.282  0.00  0.00    +0.020 C 
ATOM     20  C   LIG    1       -7.257   7.587   3.259  0.00  0.00    +0.050 C 
ATOM     21  C   LIG    1       -6.392   8.534   4.096  0.00  0.00    +0.210 C 
ATOM     22  O   LIG    1       -5.022   8.344   3.722  0.00  0.00    -0.380 OA
ATOM     23  C   LIG    1       -4.508   7.068   4.109  0.00  0.00    +0.270 C 
ENDBRANCH  17  18
ENDBRANCH   4  17
TORSDOF 4
