REMARK  Name = ZINCrD000000fFbn.0
REMARK                            x       y       z     vdW  Elec       q    Type
REMARK                         _______ _______ _______ _____ _____    ______ ____
ROOT
ATOM      1  C   LIG    1       -0.116   7.577  -1.584  0.00  0.00    +0.560 C 
ATOM      2  N   LIG    1       -0.096   6.250  -1.345  0.00  0.00    -0.720 N 
ATOM      3  H   LIG    1       -0.094   5.624  -2.086  0.00  0.00    +0.400 HD
ATOM      4  O   LIG    1       -0.118   8.361  -0.656  0.00  0.00    -0.530 OA
ENDROOT
BRANCH   1   9
ATOM      5  C   LIG    1       -0.175   9.910  -4.527  0.00  0.00    -0.120 A 
ATOM      6  C   LIG    1       -0.173   9.014  -5.581  0.00  0.00    +0.060 A 
ATOM      7  C   LIG    1       -0.152   7.652  -5.339  0.00  0.00    +0.000 A 
ATOM      8  C   LIG    1       -0.128   7.178  -4.044  0.00  0.00    +0.050 A 
ATOM      9  C   LIG    1       -0.136   8.077  -2.975  0.00  0.00    -0.140 A 
ATOM     10  C   LIG    1       -0.157   9.450  -3.226  0.00  0.00    +0.100 A 
BRANCH   5  11
ATOM     11  C   LIG    1       -0.198  11.392  -4.800  0.00  0.00    +0.320 C 
BRANCH  11  14
ATOM     12  C   LIG    1        2.815  13.711  -5.247  0.00  0.00    +0.110 C 
ATOM     13  C   LIG    1        1.402  13.197  -5.143  0.00  0.00    +0.510 C 
ATOM     14  N   LIG    1        1.176  11.891  -4.901  0.00  0.00    -0.730 N 
ATOM     15  H   LIG    1        1.922  11.281  -4.793  0.00  0.00    +0.400 HD
ATOM     16  O   LIG    1        0.468  13.960  -5.277  0.00  0.00    -0.550 OA
ENDBRANCH  11  14
ENDBRANCH   5  11
ENDBRANCH   1   9
BRANCH   2  17
ATOM     17  C   LIG    1       -0.076   5.755   0.033  0.00  0.00    +0.320 C 
BRANCH  17  18
ATOM     18  C   LIG    1       -0.056   4.248   0.025  0.00  0.00    -0.110 A 
ATOM     19  C   LIG    1        1.153   3.575   0.010  0.00  0.00    +0.040 A 
ATOM     20  C   LIG    1        1.177   2.195   0.003  0.00  0.00    +0.020 A 
ATOM     21  C   LIG    1       -0.018   1.480   0.010  0.00  0.00    -0.030 A 
ATOM     22  C   LIG    1       -1.233   2.163   0.020  0.00  0.00    +0.020 A 
ATOM     23  C   LIG    1       -1.245   3.543   0.032  0.00  0.00    +0.040 A 
BRANCH  21  24
ATOM     24  C   LIG    1        0.002  -0.004   0.002  0.00  0.00    -0.100 A 
ATOM     25  C   LIG    1       -1.192  -0.730   0.009  0.00  0.00    +0.070 A 
ATOM     26  C   LIG    1       -1.119  -2.113   0.001  0.00  0.00    -0.030 A 
ATOM     27  C   LIG    1        0.121  -2.725  -0.015  0.00  0.00    +0.260 A 
ATOM     28  N   LIG    1        1.231  -2.013  -0.021  0.00  0.00    -0.480 NA
ATOM     29  C   LIG    1        1.212  -0.696  -0.019  0.00  0.00    +0.270 A 
ENDBRANCH  21  24
ENDBRANCH  17  18
ENDBRANCH   2  17
TORSDOF 6
