REMARK  Name = ZINCpk00000y6uIM.0
REMARK                            x       y       z     vdW  Elec       q    Type
REMARK                         _______ _______ _______ _____ _____    ______ ____
ROOT
ATOM      1  C   LIG    1       -5.723   1.651   2.900  0.00  0.00    -0.030 C 
ATOM      2  C   LIG    1       -4.959   1.456   4.212  0.00  0.00    +0.060 C 
ATOM      3  C   LIG    1       -4.427   0.021   4.280  0.00  0.00    +0.270 C 
ATOM      4  N   LIG    1       -5.549  -0.908   4.091  0.00  0.00    -0.610 N 
ATOM      5  C   LIG    1       -6.404  -0.752   2.907  0.00  0.00    +0.280 C 
ATOM      6  C   LIG    1       -5.789  -1.886   4.987  0.00  0.00    +0.510 C 
ATOM      7  O   LIG    1       -6.781  -2.576   4.881  0.00  0.00    -0.550 OA
ATOM      8  C   LIG    1       -4.824  -2.123   6.120  0.00  0.00    +0.100 C 
ATOM      9  C   LIG    1       -6.914   0.692   2.854  0.00  0.00    +0.040 C 
ENDROOT
BRANCH   1  10
ATOM     10  C   LIG    1       -6.219   3.072   2.814  0.00  0.00    -0.080 A 
ATOM     11  C   LIG    1       -7.577   3.332   2.821  0.00  0.00    +0.020 A 
ATOM     12  C   LIG    1       -8.031   4.635   2.746  0.00  0.00    +0.000 A 
ATOM     13  C   LIG    1       -7.128   5.678   2.656  0.00  0.00    +0.000 A 
ATOM     14  C   LIG    1       -5.771   5.418   2.644  0.00  0.00    +0.010 A 
ATOM     15  C   LIG    1       -5.316   4.115   2.723  0.00  0.00    +0.010 A 
ENDBRANCH   1  10
BRANCH   1  18
ATOM     16  N   LIG    1       -5.303   1.300   0.487  0.00  0.00    -0.720 N 
ATOM     17  H   LIG    1       -6.258   1.383   0.340  0.00  0.00    +0.400 HD
ATOM     18  C   LIG    1       -4.806   1.369   1.738  0.00  0.00    +0.530 C 
ATOM     19  O   LIG    1       -3.619   1.203   1.929  0.00  0.00    -0.530 OA
BRANCH  16  20
ATOM     20  C   LIG    1       -4.402   1.098  -0.650  0.00  0.00    +0.310 C 
BRANCH  20  22
ATOM     21  C   LIG    1       -4.906   1.885  -2.924  0.00  0.00    -0.020 C 
ATOM     22  C   LIG    1       -5.204   1.058  -1.925  0.00  0.00    +0.070 C 
BRANCH  21  23
ATOM     23  C   LIG    1       -5.684   1.842  -4.170  0.00  0.00    +0.490 C 
ATOM     24  O   LIG    1       -6.602   1.054  -4.287  0.00  0.00    -0.510 OA
BRANCH  23  26
ATOM     25  C   LIG    1       -6.190   2.577  -6.385  0.00  0.00    +0.270 C 
ATOM     26  O   LIG    1       -5.379   2.676  -5.185  0.00  0.00    -0.350 OA
ENDBRANCH  23  26
ENDBRANCH  21  23
ENDBRANCH  20  22
ENDBRANCH  16  20
ENDBRANCH   1  18
TORSDOF 6
