REMARK  Name = ZINCrg00000bFldi.0
REMARK                            x       y       z     vdW  Elec       q    Type
REMARK                         _______ _______ _______ _____ _____    ______ ____
ROOT
ATOM      1  C   LIG    1       -1.959  10.896   4.627  0.00  0.00    +0.520 C 
ATOM      2  N   LIG    1       -1.636   9.627   4.310  0.00  0.00    -0.720 N 
ATOM      3  H   LIG    1       -1.310   9.024   4.996  0.00  0.00    +0.410 HD
ATOM      4  O   LIG    1       -2.367  11.651   3.770  0.00  0.00    -0.540 OA
ENDROOT
BRANCH   1   5
ATOM      5  C   LIG    1       -1.813  11.378   6.048  0.00  0.00    +0.080 C 
BRANCH   5   6
ATOM      6  C   LIG    1       -2.243  12.844   6.136  0.00  0.00    +0.220 C 
BRANCH   6   7
ATOM      7  O   LIG    1       -2.104  13.301   7.483  0.00  0.00    -0.320 OA
BRANCH   7  13
ATOM      8  C   LIG    1       -3.754  17.594   5.849  0.00  0.00    +0.090 C 
ATOM      9  C   LIG    1       -3.254  16.714   6.965  0.00  0.00    -0.040 A 
ATOM     10  C   LIG    1       -3.144  17.219   8.248  0.00  0.00    -0.040 A 
ATOM     11  C   LIG    1       -2.686  16.414   9.274  0.00  0.00    -0.040 A 
ATOM     12  C   LIG    1       -2.337  15.101   9.020  0.00  0.00    -0.030 A 
ATOM     13  C   LIG    1       -2.447  14.592   7.735  0.00  0.00    +0.140 A 
ATOM     14  C   LIG    1       -2.567  16.968  10.670  0.00  0.00    +0.090 C 
ATOM     15  C   LIG    1       -2.901  15.403   6.705  0.00  0.00    -0.080 A 
ENDBRANCH   7  13
ENDBRANCH   6   7
ENDBRANCH   5   6
ENDBRANCH   1   5
BRANCH   2  16
ATOM     16  C   LIG    1       -1.778   9.159   2.929  0.00  0.00    +0.250 C 
BRANCH  16  17
ATOM     17  C   LIG    1       -1.348   7.693   2.841  0.00  0.00    +0.210 C 
BRANCH  17  18
ATOM     18  O   LIG    1        0.016   7.572   3.247  0.00  0.00    -0.550 OA
ATOM     19  H   LIG    1        0.634   8.083   2.707  0.00  0.00    +0.380 HD
ENDBRANCH  17  18
BRANCH  17  20
ATOM     20  C   LIG    1       -1.497   7.204   1.399  0.00  0.00    +0.250 C 
BRANCH  20  21
ATOM     21  N   LIG    1       -1.200   5.770   1.337  0.00  0.00    -0.720 N 
ATOM     22  H   LIG    1       -0.955   5.290   2.143  0.00  0.00    +0.410 HD
ATOM     23  C   LIG    1       -1.267   5.119   0.159  0.00  0.00    +0.560 C 
ATOM     24  O   LIG    1       -1.574   5.721  -0.853  0.00  0.00    -0.540 OA
BRANCH  23  25
ATOM     25  C   LIG    1       -0.969   3.680   0.096  0.00  0.00    -0.230 C 
ATOM     26  C   LIG    1       -1.042   3.067  -1.072  0.00  0.00    +0.080 C 
ATOM     27  C   LIG    1       -0.761   1.597  -1.226  0.00  0.00    +0.060 C 
ATOM     28  C   LIG    1       -0.013   1.086   0.008  0.00  0.00    +0.210 C 
ATOM     29  O   LIG    1       -0.691   1.552   1.181  0.00  0.00    -0.370 OA
ATOM     30  C   LIG    1       -0.592   2.965   1.363  0.00  0.00    +0.270 C 
ENDBRANCH  23  25
ENDBRANCH  20  21
ENDBRANCH  17  20
ENDBRANCH  16  17
ENDBRANCH   2  16
TORSDOF 10
