REMARK  Name = ZINCtV00000L6jkt.0
REMARK                            x       y       z     vdW  Elec       q    Type
REMARK                         _______ _______ _______ _____ _____    ______ ____
ROOT
ATOM      1  C   LIG    1       -2.247   4.070   5.299  0.00  0.00    +0.480 A 
ATOM      2  C   LIG    1       -1.249   4.844   4.745  0.00  0.00    -0.150 A 
ATOM      3  C   LIG    1       -0.845   6.006   5.402  0.00  0.00    +0.240 A 
ATOM      4  N   LIG    1       -1.410   6.358   6.537  0.00  0.00    -0.500 NA
ATOM      5  C   LIG    1       -2.379   5.619   7.087  0.00  0.00    +0.320 A 
ATOM      6  C   LIG    1       -3.130   5.766   8.259  0.00  0.00    -0.220 A 
ATOM      7  C   LIG    1       -4.010   4.678   8.327  0.00  0.00    +0.150 A 
ATOM      8  N   LIG    1       -3.821   3.916   7.278  0.00  0.00    -0.330 NA
ATOM      9  C   LIG    1        0.244   6.862   4.809  0.00  0.00    +0.150 C 
ATOM     10  N   LIG    1       -2.817   4.472   6.479  0.00  0.00    -0.340 N 
ENDROOT
BRANCH   6  11
ATOM     11  C   LIG    1       -3.015   6.866   9.245  0.00  0.00    +0.020 A 
ATOM     12  C   LIG    1       -2.586   6.600  10.545  0.00  0.00    +0.010 A 
ATOM     13  C   LIG    1       -2.476   7.630  11.456  0.00  0.00    +0.000 A 
ATOM     14  C   LIG    1       -2.802   8.922  11.086  0.00  0.00    +0.000 A 
ATOM     15  C   LIG    1       -3.234   9.192   9.800  0.00  0.00    +0.000 A 
ATOM     16  C   LIG    1       -3.343   8.171   8.878  0.00  0.00    +0.020 A 
ENDBRANCH   6  11
BRANCH   1  17
ATOM     17  N   LIG    1       -2.668   2.916   4.674  0.00  0.00    -0.650 N 
ATOM     18  H   LIG    1       -3.434   2.429   5.018  0.00  0.00    +0.420 HD
BRANCH  17  22
ATOM     19  C   LIG    1       -0.654   1.515   1.308  0.00  0.00    -0.090 A 
ATOM     20  C   LIG    1       -2.037   1.514   1.335  0.00  0.00    +0.040 A 
ATOM     21  C   LIG    1       -2.708   1.973   2.451  0.00  0.00    +0.000 A 
ATOM     22  C   LIG    1       -1.992   2.446   3.544  0.00  0.00    +0.140 A 
ATOM     23  C   LIG    1       -0.604   2.451   3.511  0.00  0.00    -0.010 A 
ATOM     24  C   LIG    1        0.061   1.986   2.394  0.00  0.00    +0.040 A 
BRANCH  19  25
ATOM     25  C   LIG    1        0.074   1.008   0.090  0.00  0.00    +0.060 C 
BRANCH  25  26
ATOM     26  C   LIG    1        0.339  -0.491   0.242  0.00  0.00    +0.010 C 
BRANCH  26  28
ATOM     27  C   LIG    1        1.343  -2.506  -0.843  0.00  0.00    +0.000 C 
ATOM     28  C   LIG    1        1.079  -1.006  -0.994  0.00  0.00    -0.010 C 
ENDBRANCH  26  28
ENDBRANCH  25  26
ENDBRANCH  19  25
ENDBRANCH  17  22
ENDBRANCH   1  17
BRANCH   7  29
ATOM     29  C   LIG    1       -5.010   4.426   9.426  0.00  0.00    +0.120 C 
ATOM     30  C   LIG    1       -6.338   5.097   9.070  0.00  0.00    +0.050 C 
ENDBRANCH   7  29
TORSDOF 7
