REMARK  Name = ZINCvU0000000BYC.1
REMARK                            x       y       z     vdW  Elec       q    Type
REMARK                         _______ _______ _______ _____ _____    ______ ____
ROOT
ATOM      1  C   LIG    1       -4.437  -3.810  -0.071  0.00  0.00    +0.270 C 
ENDROOT
BRANCH   1   2
ATOM      2  C   LIG    1       -5.508  -3.520  -1.091  0.00  0.00    -0.060 A 
ATOM      3  C   LIG    1       -5.167  -3.133  -2.350  0.00  0.00    +0.040 A 
ATOM      4  C   LIG    1       -6.143  -2.865  -3.308  0.00  0.00    +0.010 A 
ATOM      5  C   LIG    1       -7.466  -2.972  -3.009  0.00  0.00    +0.020 A 
ATOM      6  C   LIG    1       -7.858  -3.365  -1.718  0.00  0.00    -0.050 A 
ATOM      7  C   LIG    1       -9.214  -3.486  -1.372  0.00  0.00    +0.030 A 
ATOM      8  C   LIG    1       -9.556  -3.868  -0.111  0.00  0.00    +0.000 A 
ATOM      9  C   LIG    1       -8.580  -4.141   0.846  0.00  0.00    +0.010 A 
ATOM     10  C   LIG    1       -7.256  -4.034   0.546  0.00  0.00    +0.010 A 
ATOM     11  C   LIG    1       -6.865  -3.642  -0.745  0.00  0.00    -0.040 A 
ENDBRANCH   1   2
BRANCH   1  12
ATOM     12  C   LIG    1       -4.149  -5.289  -0.053  0.00  0.00    -0.110 A 
ATOM     13  C   LIG    1       -3.336  -5.847  -1.022  0.00  0.00    +0.010 A 
ATOM     14  C   LIG    1       -3.068  -7.203  -1.003  0.00  0.00    +0.010 A 
ATOM     15  C   LIG    1       -3.620  -8.003  -0.020  0.00  0.00    +0.000 A 
ATOM     16  C   LIG    1       -4.436  -7.446   0.947  0.00  0.00    +0.010 A 
ATOM     17  C   LIG    1       -4.701  -6.089   0.930  0.00  0.00    +0.010 A 
ENDBRANCH   1  12
BRANCH   1  18
ATOM     18  N   LIG    1       -3.214  -3.077  -0.423  0.00  0.00    -0.670 NA
ATOM     19  H   LIG    1       -2.692  -3.565  -1.136  0.00  0.00    +0.340 HD
BRANCH  18  20
ATOM     20  C   LIG    1       -2.384  -2.837   0.764  0.00  0.00    +0.240 C 
BRANCH  20  23
ATOM     21  C   LIG    1        1.141  -2.088  -0.371  0.00  0.00    +0.140 A 
ATOM     22  C   LIG    1       -0.004  -2.778  -0.005  0.00  0.00    -0.060 A 
ATOM     23  C   LIG    1       -1.141  -2.084   0.365  0.00  0.00    -0.040 A 
ATOM     24  C   LIG    1       -1.141  -0.702   0.369  0.00  0.00    +0.020 A 
ATOM     25  C   LIG    1        0.002  -0.004   0.002  0.00  0.00    +0.090 A 
ATOM     26  O   LIG    1       -0.016   1.357   0.009  0.00  0.00    -0.300 OA
ATOM     27  C   LIG    1        1.254   2.018   0.001  0.00  0.00    +0.220 C 
ATOM     28  C   LIG    1        2.135   1.351  -1.064  0.00  0.00    +0.220 C 
ATOM     29  O   LIG    1        2.280  -0.032  -0.723  0.00  0.00    -0.300 OA
ATOM     30  C   LIG    1        1.146  -0.697  -0.367  0.00  0.00    +0.020 A 
BRANCH  21  32
ATOM     31  C   LIG    1        2.183  -4.198  -0.716  0.00  0.00    +0.250 C 
ATOM     32  O   LIG    1        2.260  -2.771  -0.735  0.00  0.00    -0.300 OA
ENDBRANCH  21  32
ENDBRANCH  20  23
ENDBRANCH  18  20
ENDBRANCH   1  18
TORSDOF 6
