REMARK  Name = ZINCkj000005j6na.0
REMARK                            x       y       z     vdW  Elec       q    Type
REMARK                         _______ _______ _______ _____ _____    ______ ____
ROOT
ATOM      1  N   LIG    1        1.124   3.510   3.834  0.00  0.00    -0.510 N 
ATOM      2  H   LIG    1        1.869   2.848   3.990  0.00  0.00    +0.430 HD
ATOM      3  H   LIG    1        0.433   3.418   4.564  0.00  0.00    +0.430 HD
ENDROOT
BRANCH   1   5
ATOM      4  C   LIG    1        0.525   5.883   3.732  0.00  0.00    +0.100 C 
ATOM      5  C   LIG    1        1.670   4.874   3.844  0.00  0.00    +0.170 C 
BRANCH   5   6
ATOM      6  C   LIG    1        2.429   5.109   5.152  0.00  0.00    +0.130 C 
BRANCH   6   7
ATOM      7  C   LIG    1        3.629   4.198   5.206  0.00  0.00    -0.170 A 
ATOM      8  C   LIG    1        3.547   2.985   5.862  0.00  0.00    +0.030 A 
ATOM      9  C   LIG    1        4.646   2.147   5.907  0.00  0.00    +0.020 A 
ATOM     10  C   LIG    1        5.831   2.527   5.305  0.00  0.00    +0.070 A 
ATOM     11  C   LIG    1        5.917   3.743   4.653  0.00  0.00    +0.010 A 
ATOM     12  C   LIG    1        4.816   4.580   4.602  0.00  0.00    +0.110 A 
ATOM     13  F   LIG    1        4.899   5.768   3.964  0.00  0.00    -0.130 F 
ENDBRANCH   6   7
ENDBRANCH   5   6
ENDBRANCH   1   5
BRANCH   1  14
ATOM     14  C   LIG    1        0.498   3.244   2.532  0.00  0.00    +0.240 C 
BRANCH  14  15
ATOM     15  C   LIG    1       -0.071   1.823   2.521  0.00  0.00    +0.340 C 
BRANCH  15  16
ATOM     16  N   LIG    1       -0.696   1.557   1.222  0.00  0.00    -0.990 NA
ATOM     17  C   LIG    1       -0.013   1.086   0.008  0.00  0.00    +0.260 C 
ATOM     18  C   LIG    1       -0.752   1.593  -1.245  0.00  0.00    +0.090 C 
ATOM     19  C   LIG    1       -2.255   1.330  -0.937  0.00  0.00    -0.290 C 
ATOM     20  S   LIG    1       -2.313   1.733   0.852  0.00  0.00    +2.570 S 
ATOM     21  O   LIG    1       -2.978   0.716   1.587  0.00  0.00    -0.940 OA
ATOM     22  O   LIG    1       -2.594   3.110   1.060  0.00  0.00    -0.950 OA
ENDBRANCH  15  16
ENDBRANCH  14  15
ENDBRANCH   1  14
TORSDOF 6
