REMARK  Name = ZINCpe00000MJK0y.0
REMARK                            x       y       z     vdW  Elec       q    Type
REMARK                         _______ _______ _______ _____ _____    ______ ____
ROOT
ATOM      1  C   LIG    1       -4.237   2.823  -1.771  0.00  0.00    +0.520 C 
ATOM      2  N   LIG    1       -3.582   2.390  -0.675  0.00  0.00    -0.620 N 
ATOM      3  C   LIG    1       -4.085   2.703   0.669  0.00  0.00    +0.260 C 
ATOM      4  C   LIG    1       -2.959   3.358   1.476  0.00  0.00    +0.010 C 
ATOM      5  C   LIG    1       -1.729   2.448   1.461  0.00  0.00    +0.030 C 
ATOM      6  C   LIG    1       -1.247   2.263   0.021  0.00  0.00    +0.080 C 
ATOM      7  C   LIG    1       -2.353   1.596  -0.803  0.00  0.00    +0.290 C 
ATOM      8  O   LIG    1       -3.812   2.558  -2.875  0.00  0.00    -0.530 OA
ENDROOT
BRANCH   6   9
ATOM      9  C   LIG    1       -0.017   1.393   0.010  0.00  0.00    +0.040 A 
ATOM     10  N   LIG    1        1.223   1.811   0.000  0.00  0.00    -0.260 NA
ATOM     11  N   LIG    1        2.041   0.821  -0.013  0.00  0.00    -0.380 N 
ATOM     12  H   LIG    1        3.008   0.895  -0.022  0.00  0.00    +0.440 HD
ATOM     13  C   LIG    1        1.341  -0.352  -0.013  0.00  0.00    -0.040 A 
ATOM     14  C   LIG    1        0.002  -0.004   0.002  0.00  0.00    +0.030 A 
BRANCH  13  15
ATOM     15  C   LIG    1        1.900  -1.714  -0.026  0.00  0.00    +0.600 C 
ATOM     16  O   LIG    1        1.156  -2.676  -0.024  0.00  0.00    -0.520 OA
ATOM     17  N   LIG    1        3.236  -1.894  -0.039  0.00  0.00    -0.850 N 
ATOM     18  H   LIG    1        3.603  -2.792  -0.048  0.00  0.00    +0.410 HD
ATOM     19  H   LIG    1        3.829  -1.127  -0.041  0.00  0.00    +0.400 HD
ENDBRANCH  13  15
ENDBRANCH   6   9
BRANCH   1  20
ATOM     20  C   LIG    1       -5.497   3.637  -1.624  0.00  0.00    +0.140 C 
BRANCH  20  28
ATOM     21  C   LIG    1       -4.771   6.235  -3.286  0.00  0.00    +0.150 C 
ATOM     22  C   LIG    1       -5.708   5.138  -3.723  0.00  0.00    +0.090 A 
ATOM     23  N   LIG    1       -6.360   5.093  -4.857  0.00  0.00    -0.300 NA
ATOM     24  N   LIG    1       -7.124   3.918  -4.875  0.00  0.00    -0.370 N 
ATOM     25  C   LIG    1       -6.902   3.261  -3.718  0.00  0.00    +0.100 A 
ATOM     26  C   LIG    1       -7.519   1.947  -3.310  0.00  0.00    +0.140 C 
ATOM     27  C   LIG    1       -8.008   3.482  -5.959  0.00  0.00    +0.350 C 
ATOM     28  C   LIG    1       -6.028   3.992  -2.989  0.00  0.00    -0.220 A 
ENDBRANCH  20  28
ENDBRANCH   1  20
TORSDOF 4
