REMARK  Name = ZINCvU00000007L7.0
REMARK                            x       y       z     vdW  Elec       q    Type
REMARK                         _______ _______ _______ _____ _____    ______ ____
ROOT
ATOM      1  C   LIG    1       -0.018   1.503   0.010  0.00  0.00    -0.300 C 
ENDROOT
BRANCH   1   5
ATOM      2  C   LIG    1        0.382  -2.072  -0.632  0.00  0.00    +0.060 A 
ATOM      3  C   LIG    1       -0.286  -2.132   0.551  0.00  0.00    -0.040 A 
ATOM      4  C   LIG    1       -0.521  -0.802   0.953  0.00  0.00    +0.000 A 
ATOM      5  C   LIG    1        0.002  -0.004   0.002  0.00  0.00    -0.020 A 
ATOM      6  O   LIG    1        0.550  -0.775  -0.952  0.00  0.00    -0.160 OA
BRANCH   2  10
ATOM      7  C   LIG    1        1.712  -5.398  -2.917  0.00  0.00    +0.140 A 
ATOM      8  C   LIG    1        1.952  -4.107  -3.368  0.00  0.00    -0.010 A 
ATOM      9  C   LIG    1        1.522  -3.025  -2.630  0.00  0.00    +0.080 A 
ATOM     10  C   LIG    1        0.844  -3.229  -1.427  0.00  0.00    -0.060 A 
ATOM     11  C   LIG    1        0.609  -4.528  -0.974  0.00  0.00    +0.080 A 
ATOM     12  C   LIG    1        1.037  -5.605  -1.721  0.00  0.00    -0.070 A 
BRANCH   7  14
ATOM     13  C   LIG    1        1.857  -7.762  -3.125  0.00  0.00    +0.240 C 
ATOM     14  O   LIG    1        2.137  -6.462  -3.647  0.00  0.00    -0.310 OA
ENDBRANCH   7  14
ENDBRANCH   2  10
ENDBRANCH   1   5
BRANCH   1  15
ATOM     15  S   LIG    1       -0.896   2.104  -1.459  0.00  0.00    +2.490 S 
ATOM     16  O   LIG    1       -0.764   3.514  -1.577  0.00  0.00    -0.900 OA
ATOM     17  O   LIG    1       -2.165   1.474  -1.575  0.00  0.00    -0.920 OA
BRANCH  15  18
ATOM     18  C   LIG    1        0.030   1.466  -2.816  0.00  0.00    -0.660 A 
ATOM     19  C   LIG    1        1.068   2.205  -3.353  0.00  0.00    +0.120 A 
ATOM     20  C   LIG    1        1.798   1.702  -4.414  0.00  0.00    -0.010 A 
ATOM     21  C   LIG    1        1.483   0.465  -4.945  0.00  0.00    +0.070 A 
ATOM     22  C   LIG    1        0.442  -0.271  -4.411  0.00  0.00    -0.010 A 
ATOM     23  C   LIG    1       -0.284   0.229  -3.347  0.00  0.00    +0.140 A 
ENDBRANCH  15  18
ENDBRANCH   1  15
BRANCH   1  24
ATOM     24  C   LIG    1        1.417   2.032  -0.001  0.00  0.00    +0.100 C 
BRANCH  24  25
ATOM     25  C   LIG    1        1.400   3.534   0.132  0.00  0.00    +0.410 C 
ATOM     26  O   LIG    1        0.342   4.122   0.225  0.00  0.00    -0.390 OA
BRANCH  25  27
ATOM     27  C   LIG    1        2.614   4.256   0.146  0.00  0.00    -0.120 A 
ATOM     28  C   LIG    1        2.745   5.625   0.261  0.00  0.00    +0.070 A 
ATOM     29  C   LIG    1        4.120   5.898   0.230  0.00  0.00    -0.070 A 
ATOM     30  C   LIG    1        4.760   4.713   0.101  0.00  0.00    +0.220 A 
ATOM     31  O   LIG    1        3.854   3.729   0.057  0.00  0.00    -0.160 OA
ENDBRANCH  25  27
ENDBRANCH  24  25
ENDBRANCH   1  24
TORSDOF 8
