REMARK  Name = ZINCpk000000o4Vs.0
REMARK                            x       y       z     vdW  Elec       q    Type
REMARK                         _______ _______ _______ _____ _____    ______ ____
ROOT
ATOM      1  C   LIG    1        0.466   0.769  -6.571  0.00  0.00    +0.570 C 
ATOM      2  N   LIG    1        1.602   0.130  -6.911  0.00  0.00    -0.610 N 
ATOM      3  C   LIG    1        2.473  -0.451  -5.880  0.00  0.00    +0.260 C 
ATOM      4  C   LIG    1        2.719  -1.925  -6.215  0.00  0.00    +0.020 C 
ATOM      5  C   LIG    1        3.271  -2.035  -7.638  0.00  0.00    +0.030 C 
ATOM      6  C   LIG    1        2.247  -1.479  -8.629  0.00  0.00    +0.230 C 
ATOM      7  C   LIG    1        1.992  -0.005  -8.322  0.00  0.00    +0.270 C 
ATOM      8  O   LIG    1       -0.299   1.151  -7.436  0.00  0.00    -0.540 OA
ENDROOT
BRANCH   1  12
ATOM      9  C   LIG    1       -0.446   1.444  -2.479  0.00  0.00    +0.260 A 
ATOM     10  C   LIG    1        0.855   1.629  -2.941  0.00  0.00    -0.060 A 
ATOM     11  C   LIG    1        1.154   1.407  -4.265  0.00  0.00    +0.090 A 
ATOM     12  C   LIG    1        0.149   1.004  -5.149  0.00  0.00    -0.180 A 
ATOM     13  C   LIG    1       -1.157   0.823  -4.684  0.00  0.00    +0.110 A 
ATOM     14  C   LIG    1       -1.450   1.042  -3.357  0.00  0.00    -0.030 A 
BRANCH   9  18
ATOM     15  C   LIG    1       -3.262   1.702   1.560  0.00  0.00    +0.180 C 
ATOM     16  C   LIG    1       -2.033   1.779   0.690  0.00  0.00    +0.080 C 
ATOM     17  N   LIG    1       -2.000   1.522  -0.553  0.00  0.00    -0.240 NA
ATOM     18  N   LIG    1       -0.745   1.664  -1.139  0.00  0.00    -0.480 N 
ATOM     19  C   LIG    1        0.214   2.089  -0.105  0.00  0.00    +0.240 C 
ATOM     20  C   LIG    1       -0.651   2.178   1.169  0.00  0.00    +0.060 C 
ENDBRANCH   9  18
ENDBRANCH   1  12
BRANCH   6  21
ATOM     21  N   LIG    1        2.763  -1.614  -9.993  0.00  0.00    -1.110 NA
ATOM     22  H   LIG    1        3.712  -1.512 -10.165  0.00  0.00    +0.420 HD
BRANCH  21  23
ATOM     23  S   LIG    1        1.726  -1.943 -11.242  0.00  0.00    +2.610 S 
ATOM     24  O   LIG    1        0.984  -3.069 -10.795  0.00  0.00    -0.950 OA
ATOM     25  O   LIG    1        2.568  -2.027 -12.384  0.00  0.00    -0.960 OA
ATOM     26  C   LIG    1        0.661  -0.478 -11.343  0.00  0.00    -0.290 C 
ENDBRANCH  21  23
ENDBRANCH   6  21
TORSDOF 4
