REMARK  Name = ZINCrD000000AjBi.0
REMARK                            x       y       z     vdW  Elec       q    Type
REMARK                         _______ _______ _______ _____ _____    ______ ____
ROOT
ATOM      1  O   LIG    1        4.911  -5.672   0.630  0.00  0.00    -0.540 OA
ATOM      2  C   LIG    1        4.452  -5.037   1.556  0.00  0.00    +0.520 C 
ATOM      3  N   LIG    1        3.800  -3.881   1.322  0.00  0.00    -0.720 N 
ATOM      4  H   LIG    1        3.433  -3.373   2.062  0.00  0.00    +0.400 HD
ENDROOT
BRANCH   3   5
ATOM      5  C   LIG    1        3.645  -3.391  -0.050  0.00  0.00    +0.380 C 
BRANCH   5   6
ATOM      6  C   LIG    1        2.885  -2.090  -0.037  0.00  0.00    +0.040 A 
ATOM      7  C   LIG    1        3.434  -0.856  -0.035  0.00  0.00    +0.120 A 
ATOM      8  N   LIG    1        2.405   0.045  -0.021  0.00  0.00    -0.360 N 
ATOM      9  C   LIG    1        2.372   1.409  -0.013  0.00  0.00    +0.220 A 
ATOM     10  C   LIG    1        1.194   2.068   0.002  0.00  0.00    +0.010 A 
ATOM     11  C   LIG    1       -0.016   1.356   0.009  0.00  0.00    +0.050 A 
ATOM     12  C   LIG    1        0.002  -0.004   0.002  0.00  0.00    +0.070 A 
ATOM     13  C   LIG    1        1.240  -0.678  -0.013  0.00  0.00    +0.230 A 
ATOM     14  N   LIG    1        1.556  -1.965  -0.023  0.00  0.00    -0.480 NA
ENDBRANCH   5   6
ENDBRANCH   3   5
BRANCH   2  15
ATOM     15  C   LIG    1        4.612  -5.540   2.967  0.00  0.00    +0.070 C 
BRANCH  15  16
ATOM     16  C   LIG    1        5.383  -6.861   2.953  0.00  0.00    +0.210 C 
BRANCH  16  17
ATOM     17  C   LIG    1        5.543  -7.364   4.365  0.00  0.00    +0.200 A 
ATOM     18  N   LIG    1        4.706  -8.146   4.988  0.00  0.00    -0.470 NA
ATOM     19  C   LIG    1        5.175  -8.387   6.222  0.00  0.00    +0.180 A 
ATOM     20  C   LIG    1        6.345  -7.713   6.354  0.00  0.00    -0.010 A 
ATOM     21  O   LIG    1        6.564  -7.076   5.183  0.00  0.00    -0.190 OA
BRANCH  20  22
ATOM     22  C   LIG    1        7.214  -7.682   7.550  0.00  0.00    -0.030 A 
ATOM     23  C   LIG    1        8.399  -6.944   7.536  0.00  0.00    +0.070 A 
ATOM     24  C   LIG    1        9.204  -6.916   8.655  0.00  0.00    -0.010 A 
ATOM     25  C   LIG    1        8.843  -7.625   9.790  0.00  0.00    +0.110 A 
ATOM     26  C   LIG    1        7.670  -8.363   9.807  0.00  0.00    +0.000 A 
ATOM     27  F   LIG    1        9.637  -7.597  10.882  0.00  0.00    -0.130 F 
ATOM     28  C   LIG    1        6.856  -8.395   8.695  0.00  0.00    +0.070 A 
ENDBRANCH  20  22
ENDBRANCH  16  17
ENDBRANCH  15  16
ENDBRANCH   2  15
TORSDOF 6
