REMARK  Name = ZINCvU00000004wF.0
REMARK                            x       y       z     vdW  Elec       q    Type
REMARK                         _______ _______ _______ _____ _____    ______ ____
ROOT
ATOM      1  C   LIG    1       -5.500  -0.028  -1.488  0.00  0.00    +0.560 C 
ATOM      2  N   LIG    1       -4.897   0.333  -2.638  0.00  0.00    -0.720 N 
ATOM      3  H   LIG    1       -4.136   0.934  -2.619  0.00  0.00    +0.400 HD
ATOM      4  O   LIG    1       -6.454  -0.781  -1.511  0.00  0.00    -0.500 OA
ENDROOT
BRANCH   1   9
ATOM      5  C   LIG    1       -3.446   1.840   1.041  0.00  0.00    -0.690 A 
ATOM      6  C   LIG    1       -4.067   1.468   2.221  0.00  0.00    +0.180 A 
ATOM      7  C   LIG    1       -5.152   0.611   2.199  0.00  0.00    +0.010 A 
ATOM      8  C   LIG    1       -5.624   0.120   0.997  0.00  0.00    +0.060 A 
ATOM      9  C   LIG    1       -5.002   0.492  -0.198  0.00  0.00    -0.150 A 
ATOM     10 CL   LIG    1       -6.987  -0.954   0.971  0.00  0.00    -0.010 Cl
ATOM     11  C   LIG    1       -3.910   1.362  -0.167  0.00  0.00    +0.170 A 
BRANCH   5  12
ATOM     12  S   LIG    1       -2.065   2.933   1.082  0.00  0.00    +2.690 S 
ATOM     13  O   LIG    1       -2.004   3.550  -0.197  0.00  0.00    -0.950 OA
ATOM     14  O   LIG    1       -2.169   3.666   2.295  0.00  0.00    -0.940 OA
BRANCH  12  15
ATOM     15  N   LIG    1       -0.704   1.998   1.216  0.00  0.00    -0.990 NA
ATOM     16  C   LIG    1       -0.186   1.644   2.540  0.00  0.00    +0.300 C 
BRANCH  15  18
ATOM     17  C   LIG    1        0.002  -0.004   0.002  0.00  0.00    +0.020 C 
ATOM     18  C   LIG    1       -0.019   1.526   0.010  0.00  0.00    +0.240 C 
ATOM     19  C   LIG    1        1.417   2.055  -0.000  0.00  0.00    +0.030 C 
ENDBRANCH  15  18
ENDBRANCH  12  15
ENDBRANCH   5  12
ENDBRANCH   1   9
BRANCH   2  20
ATOM     20  C   LIG    1       -5.392  -0.183  -3.917  0.00  0.00    +0.390 C 
BRANCH  20  21
ATOM     21  C   LIG    1       -4.275  -0.171  -4.929  0.00  0.00    -0.110 A 
ATOM     22  C   LIG    1       -3.397   0.896  -4.975  0.00  0.00    +0.050 A 
ATOM     23  C   LIG    1       -2.369   0.906  -5.899  0.00  0.00    -0.010 A 
ATOM     24  C   LIG    1       -2.226  -0.148  -6.785  0.00  0.00    +0.110 A 
ATOM     25  C   LIG    1       -3.109  -1.213  -6.742  0.00  0.00    -0.010 A 
ATOM     26  F   LIG    1       -1.225  -0.137  -7.693  0.00  0.00    -0.140 F 
ATOM     27  C   LIG    1       -4.133  -1.223  -5.814  0.00  0.00    +0.070 A 
ENDBRANCH  20  21
BRANCH  20  28
ATOM     28  C   LIG    1       -6.522   0.685  -4.405  0.00  0.00    -0.190 A 
ATOM     29  C   LIG    1       -7.633   0.242  -4.996  0.00  0.00    +0.020 A 
ATOM     30  C   LIG    1       -8.535   1.228  -5.358  0.00  0.00    +0.010 A 
ATOM     31  C   LIG    1       -8.153   2.473  -5.069  0.00  0.00    -0.040 A 
ATOM     32  S   LIG    1       -6.576   2.440  -4.291  0.00  0.00    +0.110 S 
ENDBRANCH  20  28
ENDBRANCH   2  20
TORSDOF 7
