REMARK  Name = ZINCrH000004meOd.0
REMARK                            x       y       z     vdW  Elec       q    Type
REMARK                         _______ _______ _______ _____ _____    ______ ____
ROOT
ATOM      1  N   LIG    1       -0.021  -0.007   0.011  0.00  0.00    -0.700 N 
ATOM      2  H   LIG    1       -0.858  -0.490   0.098  0.00  0.00    +0.400 HD
ATOM      3  C   LIG    1       -0.019   1.341   0.008  0.00  0.00    +0.580 C 
ATOM      4  O   LIG    1        1.036   1.948  -0.006  0.00  0.00    -0.510 OA
ENDROOT
BRANCH   3   5
ATOM      5  C   LIG    1       -1.289   2.078   0.015  0.00  0.00    +0.050 A 
ATOM      6  C   LIG    1       -1.869   2.636   1.114  0.00  0.00    -0.070 A 
ATOM      7  C   LIG    1       -3.109   3.264   0.666  0.00  0.00    -0.100 A 
ATOM      8  C   LIG    1       -4.119   3.981   1.316  0.00  0.00    +0.070 A 
ATOM      9  C   LIG    1       -5.183   4.453   0.602  0.00  0.00    -0.010 A 
ATOM     10  C   LIG    1       -5.271   4.227  -0.766  0.00  0.00    +0.040 A 
ATOM     11  C   LIG    1       -4.289   3.523  -1.427  0.00  0.00    +0.000 A 
ATOM     12  C   LIG    1       -3.194   3.032  -0.721  0.00  0.00    +0.120 A 
ATOM     13 CL   LIG    1       -1.251   2.607   2.736  0.00  0.00    -0.030 Cl
ATOM     14  N   LIG    1       -2.080   2.318  -1.092  0.00  0.00    -0.460 N 
ATOM     15  C   LIG    1       -1.779   1.874  -2.455  0.00  0.00    +0.340 C 
ENDBRANCH   3   5
BRANCH   1  16
ATOM     16  C   LIG    1        1.240  -0.742  -0.117  0.00  0.00    +0.350 C 
BRANCH  16  20
ATOM     17  C   LIG    1        0.454  -4.949  -0.028  0.00  0.00    +0.220 A 
ATOM     18  C   LIG    1        0.458  -4.270  -1.237  0.00  0.00    -0.140 A 
ATOM     19  C   LIG    1        0.713  -2.907  -1.266  0.00  0.00    +0.220 A 
ATOM     20  C   LIG    1        0.963  -2.223  -0.086  0.00  0.00    -0.220 A 
ATOM     21  C   LIG    1        0.964  -2.903   1.123  0.00  0.00    +0.220 A 
ATOM     22  C   LIG    1        0.705  -4.265   1.152  0.00  0.00    -0.200 A 
BRANCH  17  24
ATOM     23  C   LIG    1        0.215  -6.919   1.281  0.00  0.00    +0.250 C 
ATOM     24  O   LIG    1        0.204  -6.284   0.001  0.00  0.00    -0.310 OA
ENDBRANCH  17  24
BRANCH  21  25
ATOM     25  O   LIG    1        1.214  -2.234   2.279  0.00  0.00    -0.300 OA
ATOM     26  C   LIG    1        1.199  -2.997   3.487  0.00  0.00    +0.260 C 
ENDBRANCH  21  25
BRANCH  19  27
ATOM     27  O   LIG    1        0.717  -2.241  -2.451  0.00  0.00    -0.300 OA
ATOM     28  C   LIG    1        0.452  -3.009  -3.627  0.00  0.00    +0.240 C 
ENDBRANCH  19  27
ENDBRANCH  16  20
ENDBRANCH   1  16
TORSDOF 6
