REMARK  Name = ZINCvU0000000F8J.0
REMARK                            x       y       z     vdW  Elec       q    Type
REMARK                         _______ _______ _______ _____ _____    ______ ____
ROOT
ATOM      1  C   LIG    1        5.948   1.691  -0.090  0.00  0.00    -0.120 A 
ATOM      2  C   LIG    1        4.888   1.176   0.661  0.00  0.00    +0.060 A 
ATOM      3  C   LIG    1        3.688   1.850   0.708  0.00  0.00    +0.020 A 
ATOM      4  C   LIG    1        3.531   3.042   0.011  0.00  0.00    +0.110 A 
ATOM      5  C   LIG    1        4.581   3.555  -0.742  0.00  0.00    +0.020 A 
ATOM      6  C   LIG    1        5.786   2.889  -0.790  0.00  0.00    +0.090 A 
ENDROOT
BRANCH   1   8
ATOM      7  O   LIG    1        8.280   1.585  -0.031  0.00  0.00    -0.530 OA
ATOM      8  C   LIG    1        7.236   0.971  -0.143  0.00  0.00    +0.550 C 
ATOM      9  N   LIG    1        7.254  -0.367  -0.316  0.00  0.00    -0.600 N 
ATOM     10  C   LIG    1        8.551  -1.018  -0.457  0.00  0.00    +0.290 C 
ATOM     11  C   LIG    1        8.859  -1.460   0.981  0.00  0.00    +0.010 C 
ATOM     12  C   LIG    1        7.830  -2.519   1.403  0.00  0.00    +0.050 C 
ATOM     13  C   LIG    1        7.674  -3.566   0.333  0.00  0.00    -0.070 A 
ATOM     14  C   LIG    1        8.385  -4.744   0.558  0.00  0.00    +0.000 A 
ATOM     15  C   LIG    1        8.326  -5.799  -0.324  0.00  0.00    +0.000 A 
ATOM     16  C   LIG    1        7.546  -5.673  -1.458  0.00  0.00    +0.000 A 
ATOM     17  C   LIG    1        6.855  -4.511  -1.683  0.00  0.00    -0.010 A 
ATOM     18  C   LIG    1        6.902  -3.421  -0.792  0.00  0.00    -0.070 A 
ATOM     19  C   LIG    1        6.065  -2.268  -1.286  0.00  0.00    +0.080 C 
ATOM     20  C   LIG    1        5.974  -1.062  -0.359  0.00  0.00    +0.260 C 
ENDBRANCH   1   8
BRANCH   4  21
ATOM     21  O   LIG    1        2.347   3.703   0.059  0.00  0.00    -0.240 OA
BRANCH  21  22
ATOM     22  C   LIG    1        2.062   4.418   1.177  0.00  0.00    +0.350 A 
ATOM     23  C   LIG    1        0.908   5.190   1.225  0.00  0.00    -0.020 A 
ATOM     24  C   LIG    1        0.630   5.914   2.371  0.00  0.00    +0.170 A 
ATOM     25  C   LIG    1        1.517   5.837   3.435  0.00  0.00    -0.270 A 
ATOM     26  C   LIG    1        2.648   5.053   3.316  0.00  0.00    +0.380 A 
ATOM     27  N   LIG    1        2.887   4.374   2.211  0.00  0.00    -0.520 NA
BRANCH  25  28
ATOM     28  C   LIG    1        1.252   6.604   4.705  0.00  0.00    +0.520 C 
ATOM     29  F   LIG    1        0.037   6.184   5.258  0.00  0.00    -0.170 F 
ATOM     30  F   LIG    1        1.186   7.971   4.419  0.00  0.00    -0.170 F 
ATOM     31  F   LIG    1        2.286   6.367   5.617  0.00  0.00    -0.170 F 
ENDBRANCH  25  28
ENDBRANCH  21  22
ENDBRANCH   4  21
TORSDOF 4
