REMARK  Name = ZINCqH0000007RHh.0
REMARK                            x       y       z     vdW  Elec       q    Type
REMARK                         _______ _______ _______ _____ _____    ______ ____
ROOT
ATOM      1  N   LIG    1        4.707   0.649  -0.067  0.00  0.00    -0.740 N 
ATOM      2  H   LIG    1        4.543  -0.307  -0.064  0.00  0.00    +0.400 HD
ATOM      3  C   LIG    1        3.671   1.511  -0.051  0.00  0.00    +0.710 C 
ATOM      4  N   LIG    1        2.407   1.044  -0.032  0.00  0.00    -0.740 N 
ATOM      5  H   LIG    1        2.243   0.088  -0.029  0.00  0.00    +0.410 HD
ATOM      6  O   LIG    1        3.876   2.709  -0.055  0.00  0.00    -0.590 OA
ENDROOT
BRANCH   1   7
ATOM      7  C   LIG    1        6.081   1.157  -0.088  0.00  0.00    +0.310 C 
ATOM      8  C   LIG    1        6.494   1.451  -1.532  0.00  0.00    +0.040 C 
BRANCH   7  14
ATOM      9  C   LIG    1        8.214   0.512   1.063  0.00  0.00    +0.140 A 
ATOM     10  C   LIG    1        9.064  -0.442   1.603  0.00  0.00    -0.070 A 
ATOM     11  C   LIG    1        8.708  -1.777   1.576  0.00  0.00    +0.050 A 
ATOM     12  C   LIG    1        7.506  -2.162   1.013  0.00  0.00    -0.020 A 
ATOM     13  C   LIG    1        6.654  -1.212   0.479  0.00  0.00    +0.050 A 
ATOM     14  C   LIG    1        7.008   0.123   0.498  0.00  0.00    -0.120 A 
BRANCH   9  16
ATOM     15  C   LIG    1        9.818   2.152   1.685  0.00  0.00    +0.250 C 
ATOM     16  O   LIG    1        8.561   1.825   1.088  0.00  0.00    -0.310 OA
ENDBRANCH   9  16
ENDBRANCH   7  14
ENDBRANCH   1   7
BRANCH   4  17
ATOM     17  C   LIG    1        1.280   1.980  -0.015  0.00  0.00    +0.330 C 
BRANCH  17  18
ATOM     18  C   LIG    1       -0.014   1.209   0.005  0.00  0.00    +0.510 C 
ATOM     19  N   LIG    1       -1.191   1.867   0.018  0.00  0.00    -0.660 N 
ATOM     20  H   LIG    1       -1.205   2.833   0.099  0.00  0.00    +0.420 HD
ATOM     21  O   LIG    1        0.003  -0.004   0.005  0.00  0.00    -0.510 OA
BRANCH  19  22
ATOM     22  C   LIG    1       -2.391   1.155  -0.086  0.00  0.00    +0.160 A 
ATOM     23  C   LIG    1       -2.411  -0.091  -0.699  0.00  0.00    +0.030 A 
ATOM     24  C   LIG    1       -3.596  -0.794  -0.794  0.00  0.00    +0.070 A 
ATOM     25  C   LIG    1       -4.765  -0.252  -0.291  0.00  0.00    -0.100 A 
ATOM     26  C   LIG    1       -4.750   0.992   0.315  0.00  0.00    +0.070 A 
ATOM     27 BR   LIG    1       -6.387  -1.214  -0.430  0.00  0.00    -0.050 Br
ATOM     28  C   LIG    1       -3.567   1.696   0.418  0.00  0.00    -0.110 A 
ATOM     29  C   LIG    1       -3.551   3.051   1.078  0.00  0.00    +0.110 C 
ENDBRANCH  19  22
ENDBRANCH  17  18
ENDBRANCH   4  17
TORSDOF 6
