REMARK  Name = ZINCrg000000pVvi.0
REMARK                            x       y       z     vdW  Elec       q    Type
REMARK                         _______ _______ _______ _____ _____    ______ ____
ROOT
ATOM      1  C   LIG    1       -3.356   4.642   0.012  0.00  0.00    -0.230 A 
ATOM      2  C   LIG    1       -2.019   4.256   0.102  0.00  0.00    +0.280 A 
ATOM      3  C   LIG    1       -1.712   2.897   0.166  0.00  0.00    -0.160 A 
ATOM      4  C   LIG    1       -2.706   1.972   0.150  0.00  0.00    +0.480 A 
ATOM      5  N   LIG    1       -4.007   2.340   0.068  0.00  0.00    -0.470 N 
ATOM      6  C   LIG    1       -4.359   3.638  -0.001  0.00  0.00    +0.540 A 
ATOM      7  O   LIG    1       -5.535   3.950  -0.074  0.00  0.00    -0.470 OA
ENDROOT
BRANCH   3   8
ATOM      8  N   LIG    1       -0.300   2.462   0.257  0.00  0.00    +0.050 N 
ATOM      9  O   LIG    1        0.593   3.291   0.266  0.00  0.00    -0.140 OA
ATOM     10  O   LIG    1       -0.031   1.276   0.317  0.00  0.00    -0.160 OA
ENDBRANCH   3   8
BRANCH   1  11
ATOM     11  C   LIG    1       -3.720   6.064  -0.062  0.00  0.00    +0.530 C 
ATOM     12  O   LIG    1       -2.852   6.915  -0.050  0.00  0.00    -0.500 OA
BRANCH  11  14
ATOM     13  C   LIG    1       -5.302   7.846  -0.213  0.00  0.00    +0.280 C 
ATOM     14  O   LIG    1       -5.016   6.425  -0.143  0.00  0.00    -0.330 OA
ENDBRANCH  11  14
ENDBRANCH   1  11
BRANCH   5  15
ATOM     15  C   LIG    1       -5.048   1.310   0.054  0.00  0.00    +0.360 C 
BRANCH  15  16
ATOM     16  C   LIG    1       -5.479   1.012   1.467  0.00  0.00    +0.510 C 
ATOM     17  N   LIG    1       -6.434   0.090   1.700  0.00  0.00    -0.560 N 
ATOM     18  O   LIG    1       -4.967   1.603   2.394  0.00  0.00    -0.490 OA
BRANCH  17  19
ATOM     19  C   LIG    1       -6.764  -0.258   3.015  0.00  0.00    +0.120 A 
ATOM     20  C   LIG    1       -5.851  -0.947   3.803  0.00  0.00    +0.020 A 
ATOM     21  C   LIG    1       -6.178  -1.284   5.101  0.00  0.00    +0.020 A 
ATOM     22  C   LIG    1       -7.417  -0.947   5.614  0.00  0.00    +0.020 A 
ATOM     23  C   LIG    1       -8.331  -0.266   4.830  0.00  0.00    +0.020 A 
ATOM     24  C   LIG    1       -8.008   0.079   3.532  0.00  0.00    +0.020 A 
ENDBRANCH  17  19
BRANCH  17  25
ATOM     25  C   LIG    1       -7.125  -0.549   0.578  0.00  0.00    +0.470 C 
BRANCH  25  26
ATOM     26  C   LIG    1       -6.396  -1.763   0.178  0.00  0.00    +0.170 C 
ATOM     27  N   LIG    1       -5.832  -2.700  -0.130  0.00  0.00    -0.390 NA
ENDBRANCH  25  26
ENDBRANCH  17  25
ENDBRANCH  15  16
ENDBRANCH   5  15
TORSDOF 8
