REMARK  Name = ZINCkj000005jTx9.0
REMARK                            x       y       z     vdW  Elec       q    Type
REMARK                         _______ _______ _______ _____ _____    ______ ____
ROOT
ATOM      1  C   LIG    1       -0.019   1.526   0.010  0.00  0.00    +0.040 C 
ATOM      2  C   LIG    1        0.002  -0.004   0.002  0.00  0.00    +0.010 C 
ATOM      3  C   LIG    1        0.711  -0.547   1.260  0.00  0.00    +0.280 C 
ATOM      4  N   LIG    1       -0.332  -0.863   2.247  0.00  0.00    -0.610 N 
ATOM      5  C   LIG    1       -1.645  -0.518   1.673  0.00  0.00    +0.270 C 
ATOM      6  C   LIG    1       -0.122  -1.381   3.474  0.00  0.00    +0.690 C 
ATOM      7  O   LIG    1       -1.067  -1.603   4.212  0.00  0.00    -0.660 OA
ATOM      8  C   LIG    1       -1.435  -0.573   0.140  0.00  0.00    -0.030 C 
ENDROOT
BRANCH   6   9
ATOM      9  N   LIG    1        1.119  -1.651   3.880  0.00  0.00    -0.660 NA
ATOM     10  C   LIG    1        1.328  -2.166   5.098  0.00  0.00    +0.500 A 
ATOM     11  C   LIG    1        2.561  -2.494   5.647  0.00  0.00    -0.120 A 
ATOM     12  C   LIG    1        2.339  -3.000   6.930  0.00  0.00    +0.200 A 
ATOM     13  C   LIG    1        3.218  -3.476   7.918  0.00  0.00    +0.040 A 
ATOM     14  C   LIG    1        2.712  -3.918   9.106  0.00  0.00    +0.100 A 
ATOM     15  C   LIG    1        1.327  -3.889   9.319  0.00  0.00    +0.010 A 
ATOM     16  C   LIG    1        0.498  -3.426   8.356  0.00  0.00    +0.270 A 
ATOM     17  N   LIG    1        0.990  -2.983   7.168  0.00  0.00    -0.260 N 
ATOM     18  N   LIG    1        0.356  -2.460   6.033  0.00  0.00    -0.490 N 
ATOM     19  H   LIG    1       -0.599  -2.329   5.922  0.00  0.00    +0.460 HD
ENDBRANCH   6   9
BRANCH   8  20
ATOM     20  C   LIG    1       -2.448   0.315  -0.585  0.00  0.00    +0.280 C 
BRANCH  20  21
ATOM     21  N   LIG    1       -3.774  -0.315  -0.536  0.00  0.00    -0.640 N 
ATOM     22  H   LIG    1       -3.735  -1.218  -0.986  0.00  0.00    +0.440 HD
ATOM     23  H   LIG    1       -4.443   0.270  -1.014  0.00  0.00    +0.440 HD
ATOM     24  H   LIG    1       -4.056  -0.431   0.426  0.00  0.00    +0.440 HD
ENDBRANCH  20  21
ENDBRANCH   8  20
TORSDOF 3
