REMARK  Name = ZINCpk00000ja7U5.0
REMARK                            x       y       z     vdW  Elec       q    Type
REMARK                         _______ _______ _______ _____ _____    ______ ____
ROOT
ATOM      1  C   LIG    1        3.742  -0.431   0.424  0.00  0.00    +0.570 C 
ATOM      2  N   LIG    1        4.840   0.348   0.369  0.00  0.00    -0.730 N 
ATOM      3  H   LIG    1        4.754   1.296   0.183  0.00  0.00    +0.400 HD
ATOM      4  O   LIG    1        3.851  -1.619   0.658  0.00  0.00    -0.520 OA
ENDROOT
BRANCH   1   7
ATOM      5  C   LIG    1        0.019  -0.030   0.038  0.00  0.00    -0.230 A 
ATOM      6  C   LIG    1        1.260  -0.640   0.256  0.00  0.00    +0.190 A 
ATOM      7  C   LIG    1        2.405   0.159   0.201  0.00  0.00    -0.210 A 
ATOM      8  C   LIG    1        2.268   1.523  -0.067  0.00  0.00    +0.330 A 
ATOM      9  N   LIG    1        1.081   2.058  -0.267  0.00  0.00    -0.490 NA
ATOM     10  C   LIG    1       -0.024   1.344  -0.225  0.00  0.00    +0.210 A 
ATOM     11  C   LIG    1       -1.352   2.014  -0.468  0.00  0.00    +0.150 C 
BRANCH   5  13
ATOM     12  C   LIG    1       -1.154  -2.319   0.232  0.00  0.00    +0.080 C 
ATOM     13  C   LIG    1       -1.221  -0.821   0.084  0.00  0.00    +0.400 C 
ATOM     14  O   LIG    1       -2.297  -0.268   0.003  0.00  0.00    -0.440 OA
ENDBRANCH   5  13
ENDBRANCH   1   7
BRANCH   2  15
ATOM     15  C   LIG    1        6.165  -0.237   0.590  0.00  0.00    +0.290 C 
BRANCH  15  16
ATOM     16  C   LIG    1        7.231   0.855   0.473  0.00  0.00    +0.040 C 
BRANCH  16  17
ATOM     17  C   LIG    1        8.594   0.253   0.701  0.00  0.00    +0.520 C 
ATOM     18  N   LIG    1        9.692   1.032   0.645  0.00  0.00    -0.730 N 
ATOM     19  H   LIG    1        9.605   1.980   0.459  0.00  0.00    +0.400 HD
ATOM     20  O   LIG    1        8.702  -0.932   0.933  0.00  0.00    -0.530 OA
BRANCH  18  21
ATOM     21  C   LIG    1       11.017   0.448   0.866  0.00  0.00    +0.320 C 
BRANCH  21  22
ATOM     22  C   LIG    1       12.066   1.523   0.751  0.00  0.00    -0.070 A 
ATOM     23  C   LIG    1       12.662   1.805  -0.469  0.00  0.00    -0.010 A 
ATOM     24  C   LIG    1       13.618   2.801  -0.537  0.00  0.00    +0.260 A 
ATOM     25  N   LIG    1       13.970   3.473   0.542  0.00  0.00    -0.480 NA
ATOM     26  C   LIG    1       13.428   3.228   1.719  0.00  0.00    +0.260 A 
ATOM     27  C   LIG    1       12.463   2.250   1.863  0.00  0.00    -0.010 A 
ENDBRANCH  21  22
ENDBRANCH  18  21
ENDBRANCH  16  17
ENDBRANCH  15  16
ENDBRANCH   2  15
TORSDOF 7
