REMARK  Name = ZINCpk00000ebmoM.0
REMARK                            x       y       z     vdW  Elec       q    Type
REMARK                         _______ _______ _______ _____ _____    ______ ____
ROOT
ATOM      1  C   LIG    1       -3.332   4.580   2.168  0.00  0.00    +0.380 C 
ENDROOT
BRANCH   1   2
ATOM      2  N   LIG    1       -2.520   3.988   1.103  0.00  0.00    -0.990 NA
ATOM      3  C   LIG    1       -1.444   3.000   1.275  0.00  0.00    +0.270 C 
ATOM      4  C   LIG    1       -1.332   2.114   0.020  0.00  0.00    +0.060 C 
ATOM      5  C   LIG    1       -1.403   3.118  -1.167  0.00  0.00    -0.300 C 
ATOM      6  S   LIG    1       -2.644   4.310  -0.531  0.00  0.00    +2.570 S 
ATOM      7  O   LIG    1       -2.197   5.651  -0.680  0.00  0.00    -0.950 OA
ATOM      8  O   LIG    1       -3.963   3.919  -0.887  0.00  0.00    -0.950 OA
BRANCH   4   9
ATOM      9  C   LIG    1       -0.017   1.378   0.010  0.00  0.00    -0.070 A 
ATOM     10  C   LIG    1        1.171   2.086   0.002  0.00  0.00    +0.010 A 
ATOM     11  C   LIG    1        2.377   1.411  -0.014  0.00  0.00    +0.010 A 
ATOM     12  C   LIG    1        2.396   0.029  -0.022  0.00  0.00    +0.000 A 
ATOM     13  C   LIG    1        1.208  -0.679  -0.014  0.00  0.00    +0.010 A 
ATOM     14  C   LIG    1        0.002  -0.004   0.002  0.00  0.00    +0.020 A 
ENDBRANCH   4   9
ENDBRANCH   1   2
BRANCH   1  18
ATOM     15  C   LIG    1       -1.277   7.942   3.824  0.00  0.00    +0.130 A 
ATOM     16  C   LIG    1       -2.140   8.114   2.752  0.00  0.00    -0.010 A 
ATOM     17  C   LIG    1       -2.803   7.026   2.218  0.00  0.00    +0.080 A 
ATOM     18  C   LIG    1       -2.607   5.766   2.752  0.00  0.00    -0.150 A 
ATOM     19  C   LIG    1       -1.752   5.592   3.825  0.00  0.00    +0.060 A 
ATOM     20  C   LIG    1       -1.083   6.676   4.358  0.00  0.00    -0.080 A 
BRANCH  15  21
ATOM     21  O   LIG    1       -0.624   9.010   4.350  0.00  0.00    -0.290 OA
BRANCH  21  22
ATOM     22  C   LIG    1        0.249   8.758   5.453  0.00  0.00    +0.230 C 
BRANCH  22  26
ATOM     23  N   LIG    1        1.746  10.057   6.933  0.00  0.00    -0.850 N 
ATOM     24  H   LIG    1        2.153  10.890   7.220  0.00  0.00    +0.410 HD
ATOM     25  H   LIG    1        1.963   9.229   7.389  0.00  0.00    +0.400 HD
ATOM     26  C   LIG    1        0.881  10.052   5.900  0.00  0.00    +0.520 C 
ATOM     27  O   LIG    1        0.610  11.087   5.330  0.00  0.00    -0.520 OA
ENDBRANCH  22  26
ENDBRANCH  21  22
ENDBRANCH  15  21
ENDBRANCH   1  18
TORSDOF 6
