REMARK  Name = ZINCfA000000bkTQ.0
REMARK                            x       y       z     vdW  Elec       q    Type
REMARK                         _______ _______ _______ _____ _____    ______ ____
ROOT
ATOM      1  N   LIG    1        2.121  -1.208   0.372  0.00  0.00    -0.510 N 
ATOM      2  H   LIG    1        2.194  -0.692   1.236  0.00  0.00    +0.430 HD
ATOM      3  H   LIG    1        3.045  -1.387   0.007  0.00  0.00    +0.430 HD
ENDROOT
BRANCH   1  11
ATOM      4  C   LIG    1        3.601   0.727  -0.651  0.00  0.00    +0.040 C 
ATOM      5  C   LIG    1        2.107   0.881  -0.942  0.00  0.00    +0.010 C 
ATOM      6  C   LIG    1        1.477   1.939  -0.002  0.00  0.00    +0.050 C 
ATOM      7  C   LIG    1       -0.019   1.538   0.011  0.00  0.00    -0.060 C 
ATOM      8  C   LIG    1        0.002  -0.004   0.002  0.00  0.00    +0.060 C 
ATOM      9  C   LIG    1       -0.702   2.058   1.277  0.00  0.00    +0.040 C 
ATOM     10  C   LIG    1       -0.726   2.071  -1.237  0.00  0.00    +0.040 C 
ATOM     11  C   LIG    1        1.353  -0.422  -0.604  0.00  0.00    +0.170 C 
ENDBRANCH   1  11
BRANCH   1  12
ATOM     12  C   LIG    1        1.436  -2.484   0.620  0.00  0.00    +0.390 C 
BRANCH  12  13
ATOM     13  C   LIG    1        2.224  -3.290   1.621  0.00  0.00    -0.070 A 
ATOM     14  N   LIG    1        2.067  -3.235   2.900  0.00  0.00    -0.430 NA
ATOM     15  C   LIG    1        2.838  -4.012   3.634  0.00  0.00    +0.220 A 
ATOM     16  C   LIG    1        3.699  -4.757   2.935  0.00  0.00    -0.010 A 
ATOM     17  S   LIG    1        3.458  -4.404   1.225  0.00  0.00    +0.190 S 
ENDBRANCH  12  13
ENDBRANCH   1  12
TORSDOF 3
