REMARK  Name = ZINCrH000004jM5N.0
REMARK                            x       y       z     vdW  Elec       q    Type
REMARK                         _______ _______ _______ _____ _____    ______ ____
ROOT
ATOM      1  N   LIG    1       -3.652   6.167   0.076  0.00  0.00    -0.660 N 
ATOM      2  H   LIG    1       -3.671   7.125   0.227  0.00  0.00    +0.410 HD
ATOM      3  C   LIG    1       -4.807   5.482  -0.047  0.00  0.00    +0.720 C 
ATOM      4  N   LIG    1       -5.977   6.145  -0.139  0.00  0.00    -0.560 N 
ATOM      5  C   LIG    1       -6.112   7.600  -0.245  0.00  0.00    +0.280 C 
ATOM      6  C   LIG    1       -7.625   7.859  -0.323  0.00  0.00    +0.100 C 
ATOM      7  C   LIG    1       -8.252   6.485  -0.252  0.00  0.00    -0.130 A 
ATOM      8  C   LIG    1       -9.575   6.090  -0.277  0.00  0.00    +0.050 A 
ATOM      9  C   LIG    1       -9.902   4.749  -0.197  0.00  0.00    -0.010 A 
ATOM     10  C   LIG    1       -8.899   3.803  -0.091  0.00  0.00    +0.040 A 
ATOM     11  C   LIG    1       -7.577   4.192  -0.066  0.00  0.00    +0.010 A 
ATOM     12  C   LIG    1       -7.239   5.544  -0.152  0.00  0.00    +0.160 A 
ATOM     13  O   LIG    1       -4.792   4.267  -0.074  0.00  0.00    -0.550 OA
ENDROOT
BRANCH   1  17
ATOM     14  C   LIG    1       -0.080   4.210  -0.193  0.00  0.00    +0.550 A 
ATOM     15  N   LIG    1       -1.155   3.540   0.192  0.00  0.00    -0.550 NA
ATOM     16  C   LIG    1       -2.328   4.142   0.296  0.00  0.00    +0.390 A 
ATOM     17  C   LIG    1       -2.425   5.495  -0.017  0.00  0.00    -0.010 A 
ATOM     18  C   LIG    1       -1.275   6.164  -0.423  0.00  0.00    +0.340 A 
ATOM     19  N   LIG    1       -0.135   5.498  -0.499  0.00  0.00    -0.550 NA
BRANCH  14  21
ATOM     20  C   LIG    1        2.333   4.268  -0.715  0.00  0.00    +0.300 C 
ATOM     21  N   LIG    1        1.133   3.546  -0.285  0.00  0.00    -0.590 N 
ATOM     22  C   LIG    1        1.216   2.123   0.054  0.00  0.00    +0.300 C 
ENDBRANCH  14  21
ENDBRANCH   1  17
BRANCH   6  23
ATOM     23  C   LIG    1       -8.075   8.703   0.842  0.00  0.00    -0.080 A 
ATOM     24  C   LIG    1       -7.900   8.245   2.135  0.00  0.00    +0.020 A 
ATOM     25  C   LIG    1       -8.307   9.021   3.204  0.00  0.00    +0.000 A 
ATOM     26  C   LIG    1       -8.900  10.249   2.980  0.00  0.00    +0.000 A 
ATOM     27  C   LIG    1       -9.080  10.705   1.688  0.00  0.00    +0.000 A 
ATOM     28  C   LIG    1       -8.667   9.931   0.619  0.00  0.00    +0.010 A 
ENDBRANCH   6  23
TORSDOF 3
