REMARK  Name = ZINCrD00000F5Lwl.0
REMARK                            x       y       z     vdW  Elec       q    Type
REMARK                         _______ _______ _______ _____ _____    ______ ____
ROOT
ATOM      1  C   LIG    1       -2.537  -0.372   0.465  0.00  0.00    +0.200 A 
ATOM      2  C   LIG    1       -2.227  -0.590  -0.863  0.00  0.00    +0.100 A 
ATOM      3  N   LIG    1       -2.244  -1.919  -1.081  0.00  0.00    -0.460 NA
ATOM      4  C   LIG    1       -2.541  -2.542   0.047  0.00  0.00    +0.250 A 
ATOM      5  C   LIG    1       -2.682  -3.912   0.358  0.00  0.00    +0.080 A 
ATOM      6  C   LIG    1       -3.006  -4.278   1.626  0.00  0.00    +0.060 A 
ATOM      7  C   LIG    1       -3.196  -3.293   2.611  0.00  0.00    +0.050 A 
ATOM      8  C   LIG    1       -3.058  -1.988   2.305  0.00  0.00    +0.070 A 
ATOM      9  N   LIG    1       -2.733  -1.601   1.032  0.00  0.00    -0.360 N 
ENDROOT
BRANCH   2  10
ATOM     10  C   LIG    1       -1.935   0.453  -1.870  0.00  0.00    +0.160 A 
ATOM     11  C   LIG    1       -1.160   0.147  -2.992  0.00  0.00    +0.250 A 
ATOM     12  N   LIG    1       -0.903   1.081  -3.886  0.00  0.00    -0.440 NA
ATOM     13  C   LIG    1       -1.377   2.305  -3.723  0.00  0.00    +0.220 A 
ATOM     14  C   LIG    1       -2.144   2.614  -2.614  0.00  0.00    +0.230 A 
ATOM     15  N   LIG    1       -2.408   1.687  -1.711  0.00  0.00    -0.410 NA
ENDBRANCH   2  10
BRANCH   1  16
ATOM     16  N   LIG    1       -2.632   0.862   1.104  0.00  0.00    -0.650 N 
ATOM     17  H   LIG    1       -3.503   1.228   1.324  0.00  0.00    +0.410 HD
BRANCH  16  21
ATOM     18  C   LIG    1        0.825   2.980   2.070  0.00  0.00    +0.090 A 
ATOM     19  C   LIG    1        0.912   1.815   1.322  0.00  0.00    -0.040 A 
ATOM     20  C   LIG    1       -0.232   1.109   1.007  0.00  0.00    -0.020 A 
ATOM     21  C   LIG    1       -1.472   1.572   1.428  0.00  0.00    +0.180 A 
ATOM     22  C   LIG    1       -1.558   2.739   2.177  0.00  0.00    -0.110 A 
ATOM     23  C   LIG    1       -2.901   3.240   2.641  0.00  0.00    +0.090 C 
ATOM     24  C   LIG    1       -0.412   3.440   2.497  0.00  0.00    +0.020 A 
BRANCH  18  26
ATOM     25  C   LIG    1        3.200   3.082   2.011  0.00  0.00    +0.230 C 
ATOM     26  O   LIG    1        1.953   3.671   2.384  0.00  0.00    -0.320 OA
ENDBRANCH  18  26
ENDBRANCH  16  21
ENDBRANCH   1  16
BRANCH   8  27
ATOM     27  C   LIG    1       -3.265  -0.944   3.372  0.00  0.00    +0.270 C 
BRANCH  27  28
ATOM     28  O   LIG    1       -3.473  -1.586   4.632  0.00  0.00    -0.560 OA
ATOM     29  H   LIG    1       -3.688  -0.978   5.352  0.00  0.00    +0.390 HD
ENDBRANCH  27  28
ENDBRANCH   8  27
TORSDOF 6
