REMARK  Name = ZINCvU00000007yE.0
REMARK                            x       y       z     vdW  Elec       q    Type
REMARK                         _______ _______ _______ _____ _____    ______ ____
ROOT
ATOM      1  N   LIG    1       -2.728   4.386   4.772  0.00  0.00    -0.480 N 
ATOM      2  C   LIG    1       -3.718   5.186   4.236  0.00  0.00    +0.060 A 
ATOM      3  C   LIG    1       -4.905   4.934   3.563  0.00  0.00    +0.010 A 
ATOM      4  C   LIG    1       -5.692   5.988   3.148  0.00  0.00    +0.030 A 
ATOM      5  C   LIG    1       -5.304   7.296   3.399  0.00  0.00    +0.000 A 
ATOM      6  C   LIG    1       -4.138   7.563   4.061  0.00  0.00    +0.070 A 
ATOM      7  C   LIG    1       -3.325   6.511   4.490  0.00  0.00    +0.050 A 
ATOM      8  N   LIG    1       -2.142   6.453   5.153  0.00  0.00    -0.480 NA
ATOM      9  C   LIG    1       -1.796   5.210   5.322  0.00  0.00    +0.290 A 
ENDROOT
BRANCH   9  10
ATOM     10  C   LIG    1       -0.543   4.750   6.022  0.00  0.00    +0.090 C 
ATOM     11  C   LIG    1        0.717   5.326   5.337  0.00  0.00    +0.090 C 
ATOM     12  C   LIG    1        1.660   5.623   6.482  0.00  0.00    +0.520 C 
ATOM     13  N   LIG    1        0.986   5.634   7.645  0.00  0.00    -0.560 N 
ATOM     14  O   LIG    1        2.851   5.822   6.367  0.00  0.00    -0.500 OA
ATOM     15  C   LIG    1       -0.442   5.366   7.436  0.00  0.00    +0.300 C 
BRANCH  13  16
ATOM     16  C   LIG    1        1.571   5.870   8.894  0.00  0.00    +0.170 A 
ATOM     17  C   LIG    1        2.950   5.989   9.005  0.00  0.00    -0.010 A 
ATOM     18  C   LIG    1        3.523   6.226  10.239  0.00  0.00    -0.050 A 
ATOM     19  C   LIG    1        2.726   6.335  11.364  0.00  0.00    -0.030 A 
ATOM     20  C   LIG    1        1.353   6.213  11.257  0.00  0.00    -0.060 A 
ATOM     21  C   LIG    1        0.489   6.332  12.486  0.00  0.00    +0.100 C 
ATOM     22  C   LIG    1        5.019   6.360  10.361  0.00  0.00    +0.090 C 
ATOM     23  C   LIG    1        0.773   5.980  10.025  0.00  0.00    -0.040 A 
ENDBRANCH  13  16
ENDBRANCH   9  10
BRANCH   1  24
ATOM     24  C   LIG    1       -2.691   2.922   4.755  0.00  0.00    +0.350 C 
BRANCH  24  29
ATOM     25  C   LIG    1        0.025   1.118  -0.016  0.00  0.00    +0.090 C 
ATOM     26  C   LIG    1       -0.683   1.588   1.228  0.00  0.00    -0.070 A 
ATOM     27  C   LIG    1       -2.051   1.789   1.211  0.00  0.00    +0.010 A 
ATOM     28  C   LIG    1       -2.701   2.216   2.354  0.00  0.00    +0.030 A 
ATOM     29  C   LIG    1       -1.983   2.451   3.511  0.00  0.00    -0.130 A 
ATOM     30  C   LIG    1       -0.614   2.255   3.527  0.00  0.00    +0.020 A 
ATOM     31  C   LIG    1        0.035   1.824   2.386  0.00  0.00    +0.010 A 
ENDBRANCH  24  29
ENDBRANCH   1  24
TORSDOF 4
