REMARK  Name = ZINCpk000000o3pt.0
REMARK                            x       y       z     vdW  Elec       q    Type
REMARK                         _______ _______ _______ _____ _____    ______ ____
ROOT
ATOM      1  C   LIG    1       -0.014   1.212   0.009  0.00  0.00    +0.610 C 
ATOM      2  N   LIG    1       -1.234   1.783   0.052  0.00  0.00    -0.600 N 
ATOM      3  C   LIG    1       -1.390   3.244  -0.032  0.00  0.00    +0.290 C 
ATOM      4  C   LIG    1       -2.286   3.701   1.125  0.00  0.00    +0.140 C 
ATOM      5  O   LIG    1       -3.491   2.933   1.119  0.00  0.00    -0.350 OA
ATOM      6  C   LIG    1       -3.294   1.533   1.330  0.00  0.00    +0.100 C 
ATOM      7  C   LIG    1       -4.650   0.825   1.367  0.00  0.00    +0.080 C 
ATOM      8  C   LIG    1       -2.567   1.313   2.658  0.00  0.00    +0.030 C 
ATOM      9  C   LIG    1       -2.450   0.964   0.178  0.00  0.00    +0.290 C 
ATOM     10  O   LIG    1        0.090   0.000   0.012  0.00  0.00    -0.530 OA
ENDROOT
BRANCH   1  13
ATOM     11  N   LIG    1        3.277   2.697  -0.068  0.00  0.00    -0.350 N 
ATOM     12  C   LIG    1        2.483   1.612   0.027  0.00  0.00    +0.310 A 
ATOM     13  C   LIG    1        1.194   2.056  -0.048  0.00  0.00    -0.100 A 
ATOM     14  N   LIG    1        1.212   3.394  -0.178  0.00  0.00    -0.220 NA
ATOM     15  N   LIG    1        2.431   3.808  -0.193  0.00  0.00    -0.040 NA
BRANCH  11  16
ATOM     16  C   LIG    1        4.742   2.713  -0.039  0.00  0.00    +0.340 C 
BRANCH  16  18
ATOM     17  C   LIG    1        4.572   4.765  -1.547  0.00  0.00    +0.090 C 
ATOM     18  C   LIG    1        5.268   3.428  -1.286  0.00  0.00    -0.150 C 
ATOM     19  C   LIG    1        5.367   2.521  -2.527  0.00  0.00    +0.210 C 
ATOM     20  O   LIG    1        6.644   3.152  -2.747  0.00  0.00    -0.370 OA
ATOM     21  C   LIG    1        6.805   3.502  -1.357  0.00  0.00    +0.240 C 
ENDBRANCH  16  18
ENDBRANCH  11  16
ENDBRANCH   1  13
BRANCH   4  22
ATOM     22  C   LIG    1       -2.623   5.184   0.955  0.00  0.00    +0.470 C 
ATOM     23  F   LIG    1       -1.442   5.934   0.955  0.00  0.00    -0.170 F 
ATOM     24  F   LIG    1       -3.441   5.601   2.011  0.00  0.00    -0.170 F 
ATOM     25  F   LIG    1       -3.295   5.373  -0.258  0.00  0.00    -0.170 F 
ENDBRANCH   4  22
TORSDOF 4
