REMARK  Name = ZINCrD0000075s4I.0
REMARK                            x       y       z     vdW  Elec       q    Type
REMARK                         _______ _______ _______ _____ _____    ______ ____
ROOT
ATOM      1  C   LIG    1       -0.018   1.474   0.010  0.00  0.00    -0.060 A 
ATOM      2  C   LIG    1        1.171   2.206   0.003  0.00  0.00    -0.070 A 
ATOM      3  C   LIG    1        2.456   1.417  -0.056  0.00  0.00    +0.070 C 
ATOM      4  C   LIG    1        3.603   2.168   0.619  0.00  0.00    +0.030 C 
ATOM      5  C   LIG    1        4.320   3.009  -0.439  0.00  0.00    +0.010 C 
ATOM      6  C   LIG    1        3.349   4.020  -1.039  0.00  0.00    +0.030 C 
ATOM      7  C   LIG    1        2.367   4.440   0.057  0.00  0.00    +0.110 C 
ATOM      8  C   LIG    1        1.122   3.589   0.023  0.00  0.00    +0.170 A 
ATOM      9  N   LIG    1       -0.033   4.229   0.025  0.00  0.00    -0.460 NA
ATOM     10  C   LIG    1       -1.206   3.599   0.028  0.00  0.00    +0.140 A 
ATOM     11  C   LIG    1       -2.418   4.312   0.036  0.00  0.00    +0.060 A 
ATOM     12  C   LIG    1       -3.600   3.636   0.045  0.00  0.00    +0.040 A 
ATOM     13  C   LIG    1       -3.631   2.244   0.046  0.00  0.00    +0.030 A 
ATOM     14  C   LIG    1       -2.476   1.520   0.037  0.00  0.00    +0.010 A 
ATOM     15  C   LIG    1       -1.243   2.183   0.020  0.00  0.00    -0.070 A 
ENDROOT
BRANCH   1  16
ATOM     16  C   LIG    1        0.002  -0.004   0.002  0.00  0.00    +0.530 C 
ATOM     17  O   LIG    1        0.020  -0.617   1.050  0.00  0.00    -0.480 OA
BRANCH  16  18
ATOM     18  O   LIG    1        0.000  -0.671  -1.168  0.00  0.00    -0.320 OA
BRANCH  18  19
ATOM     19  C   LIG    1        0.021  -2.122  -1.100  0.00  0.00    +0.270 C 
BRANCH  19  21
ATOM     20  O   LIG    1       -0.004  -1.946  -3.454  0.00  0.00    -0.500 OA
ATOM     21  C   LIG    1        0.015  -2.690  -2.496  0.00  0.00    +0.530 C 
ATOM     22  N   LIG    1        0.031  -4.025  -2.680  0.00  0.00    -0.730 N 
ATOM     23  H   LIG    1        0.047  -4.620  -1.914  0.00  0.00    +0.410 HD
BRANCH  22  24
ATOM     24  C   LIG    1        0.026  -4.578  -4.037  0.00  0.00    +0.320 C 
BRANCH  24  25
ATOM     25  C   LIG    1        0.048  -6.106  -3.965  0.00  0.00    +0.450 C 
ATOM     26  F   LIG    1        1.202  -6.525  -3.295  0.00  0.00    -0.180 F 
ATOM     27  F   LIG    1        0.043  -6.634  -5.261  0.00  0.00    -0.170 F 
ATOM     28  F   LIG    1       -1.082  -6.556  -3.274  0.00  0.00    -0.180 F 
ENDBRANCH  24  25
ENDBRANCH  22  24
ENDBRANCH  19  21
ENDBRANCH  18  19
ENDBRANCH  16  18
ENDBRANCH   1  16
TORSDOF 6
