REMARK  Name = ZINCpe000027pH2C.0
REMARK                            x       y       z     vdW  Elec       q    Type
REMARK                         _______ _______ _______ _____ _____    ______ ____
ROOT
ATOM      1  C   LIG    1       -0.734   2.046  -1.214  0.00  0.00    +0.510 C 
ATOM      2  N   LIG    1       -2.047   1.795  -1.382  0.00  0.00    -0.610 N 
ATOM      3  C   LIG    1       -2.800   1.020  -0.384  0.00  0.00    +0.280 C 
ATOM      4  C   LIG    1       -4.059   1.816  -0.005  0.00  0.00    +0.170 C 
ATOM      5  N   LIG    1       -4.807   2.149  -1.225  0.00  0.00    -0.530 NA
ATOM      6  C   LIG    1       -4.023   3.024  -2.108  0.00  0.00    +0.170 C 
ATOM      7  C   LIG    1       -2.764   2.283  -2.570  0.00  0.00    +0.300 C 
ATOM      8  O   LIG    1       -0.127   2.683  -2.050  0.00  0.00    -0.510 OA
ENDROOT
BRANCH   1  12
ATOM      9  C   LIG    1        2.138   0.935   0.603  0.00  0.00    +0.150 C 
ATOM     10  C   LIG    1        1.508  -0.363   0.039  0.00  0.00    +0.050 C 
ATOM     11  C   LIG    1        0.002  -0.004   0.002  0.00  0.00    +0.030 C 
ATOM     12  C   LIG    1       -0.019   1.537   0.011  0.00  0.00    +0.160 C 
ATOM     13  O   LIG    1        1.348   1.983  -0.000  0.00  0.00    -0.320 OA
BRANCH   9  17
ATOM     14  N   LIG    1        4.484   0.153   0.625  0.00  0.00    -0.850 N 
ATOM     15  H   LIG    1        5.413   0.228   0.355  0.00  0.00    +0.410 HD
ATOM     16  H   LIG    1        4.206  -0.567   1.212  0.00  0.00    +0.400 HD
ATOM     17  C   LIG    1        3.580   1.051   0.184  0.00  0.00    +0.520 C 
ATOM     18  O   LIG    1        3.929   1.951  -0.550  0.00  0.00    -0.510 OA
ENDBRANCH   9  17
ENDBRANCH   1  12
BRANCH   5  19
ATOM     19  C   LIG    1       -6.104   2.756  -0.899  0.00  0.00    +0.210 C 
BRANCH  19  20
ATOM     20  C   LIG    1       -6.772   1.958   0.191  0.00  0.00    -0.020 C 
ATOM     21  C   LIG    1       -7.164   2.558   1.307  0.00  0.00    +0.010 C 
BRANCH  21  22
ATOM     22  C   LIG    1       -7.819   1.775   2.376  0.00  0.00    -0.060 A 
ATOM     23  C   LIG    1       -8.032   0.406   2.211  0.00  0.00    +0.010 A 
ATOM     24  C   LIG    1       -8.639  -0.320   3.215  0.00  0.00    +0.000 A 
ATOM     25  C   LIG    1       -9.047   0.309   4.378  0.00  0.00    +0.000 A 
ATOM     26  C   LIG    1       -8.843   1.667   4.545  0.00  0.00    +0.000 A 
ATOM     27  C   LIG    1       -8.232   2.403   3.551  0.00  0.00    +0.010 A 
ENDBRANCH  21  22
ENDBRANCH  19  20
ENDBRANCH   5  19
TORSDOF 5
