REMARK  Name = ZINCkj00000xA39E.1
REMARK                            x       y       z     vdW  Elec       q    Type
REMARK                         _______ _______ _______ _____ _____    ______ ____
ROOT
ATOM      1  C   LIG    1       -0.839  -2.961   1.284  0.00  0.00    +0.160 C 
ATOM      2  C   LIG    1       -1.613  -2.959  -0.047  0.00  0.00    +0.090 C 
ATOM      3  C   LIG    1       -1.709  -4.445  -0.461  0.00  0.00    +0.080 C 
ATOM      4  C   LIG    1       -1.512  -5.192   0.882  0.00  0.00    +0.260 C 
ATOM      5  N   LIG    1       -0.494  -4.367   1.588  0.00  0.00    -0.390 N 
ATOM      6  H   LIG    1        0.428  -4.582   1.240  0.00  0.00    +0.420 HD
ENDROOT
BRANCH   1  13
ATOM      7  C   LIG    1        1.572  -1.875   4.839  0.00  0.00    +0.110 C 
ATOM      8  C   LIG    1        0.743  -1.683   3.595  0.00  0.00    +0.520 C 
ATOM      9  N   LIG    1        1.187  -2.151   2.411  0.00  0.00    -0.640 N 
ATOM     10  C   LIG    1        2.501  -2.773   2.171  0.00  0.00    +0.260 C 
ATOM     11  C   LIG    1        2.771  -2.561   0.661  0.00  0.00    +0.060 C 
ATOM     12  C   LIG    1        1.351  -2.740   0.062  0.00  0.00    +0.040 C 
ATOM     13  C   LIG    1        0.437  -2.130   1.146  0.00  0.00    +0.240 C 
ATOM     14  O   LIG    1       -0.323  -1.109   3.659  0.00  0.00    -0.520 OA
ENDBRANCH   1  13
BRANCH   5  15
ATOM     15  C   LIG    1       -0.560  -4.604   3.036  0.00  0.00    +0.340 C 
BRANCH  15  16
ATOM     16  C   LIG    1       -0.102  -6.007   3.337  0.00  0.00    -0.320 A 
ATOM     17  C   LIG    1       -0.889  -7.106   3.397  0.00  0.00    +0.280 A 
ATOM     18  N   LIG    1       -0.100  -8.162   3.689  0.00  0.00    -0.350 N 
ATOM     19  N   LIG    1        1.214  -7.694   3.822  0.00  0.00    -0.270 NA
ATOM     20  C   LIG    1       -0.541  -9.550   3.845  0.00  0.00    +0.380 C 
ATOM     21  C   LIG    1        1.212  -6.403   3.611  0.00  0.00    +0.260 A 
ENDBRANCH  15  16
ENDBRANCH   5  15
TORSDOF 3
