REMARK  Name = ZINCkj00000xA39E.0
REMARK                            x       y       z     vdW  Elec       q    Type
REMARK                         _______ _______ _______ _____ _____    ______ ____
ROOT
ATOM      1  C   LIG    1       -1.356  -0.582   0.339  0.00  0.00    +0.150 C 
ATOM      2  C   LIG    1       -1.726  -1.442  -0.888  0.00  0.00    +0.110 C 
ATOM      3  C   LIG    1       -0.342  -1.866  -1.447  0.00  0.00    +0.050 C 
ATOM      4  C   LIG    1        0.509  -0.603  -1.167  0.00  0.00    +0.250 C 
ATOM      5  N   LIG    1        0.022  -0.101   0.136  0.00  0.00    -0.380 N 
ATOM      6  H   LIG    1        0.614  -0.448   0.876  0.00  0.00    +0.420 HD
ENDROOT
BRANCH   1  13
ATOM      7  C   LIG    1       -5.811  -1.049   0.533  0.00  0.00    +0.100 C 
ATOM      8  C   LIG    1       -4.421  -0.695   0.071  0.00  0.00    +0.530 C 
ATOM      9  N   LIG    1       -3.658   0.136   0.807  0.00  0.00    -0.610 N 
ATOM     10  C   LIG    1       -4.033   0.724   2.106  0.00  0.00    +0.260 C 
ATOM     11  C   LIG    1       -3.177   2.010   2.221  0.00  0.00    +0.060 C 
ATOM     12  C   LIG    1       -1.844   1.556   1.571  0.00  0.00    +0.030 C 
ATOM     13  C   LIG    1       -2.312   0.607   0.448  0.00  0.00    +0.230 C 
ATOM     14  O   LIG    1       -3.990  -1.158  -0.963  0.00  0.00    -0.530 OA
ENDBRANCH   1  13
BRANCH   5  15
ATOM     15  C   LIG    1        0.038   1.368   0.136  0.00  0.00    +0.340 C 
BRANCH  15  16
ATOM     16  C   LIG    1        1.374   1.857  -0.362  0.00  0.00    -0.320 A 
ATOM     17  C   LIG    1        1.695   2.119  -1.650  0.00  0.00    +0.280 A 
ATOM     18  N   LIG    1        2.980   2.533  -1.678  0.00  0.00    -0.350 N 
ATOM     19  N   LIG    1        3.463   2.524  -0.363  0.00  0.00    -0.270 NA
ATOM     20  C   LIG    1        3.735   2.922  -2.871  0.00  0.00    +0.380 C 
ATOM     21  C   LIG    1        2.498   2.124   0.425  0.00  0.00    +0.260 A 
ENDBRANCH  15  16
ENDBRANCH   5  15
TORSDOF 3
