REMARK  Name = ZINCrg00000Bs9bV.0
REMARK                            x       y       z     vdW  Elec       q    Type
REMARK                         _______ _______ _______ _____ _____    ______ ____
ROOT
ATOM      1  C   LIG    1       -0.848   3.239   4.069  0.00  0.00    +0.270 C 
ENDROOT
BRANCH   1   2
ATOM      2  C   LIG    1       -0.851   1.729   3.818  0.00  0.00    +0.230 C 
ATOM      3  C   LIG    1       -2.261   1.157   4.073  0.00  0.00    +0.080 C 
ATOM      4  C   LIG    1       -1.966  -0.206   4.752  0.00  0.00    -0.010 C 
ATOM      5  C   LIG    1       -0.709   0.127   5.589  0.00  0.00    +0.300 C 
ATOM      6  N   LIG    1        0.066   1.064   4.755  0.00  0.00    -0.610 N 
ATOM      7  C   LIG    1        1.395   1.273   4.836  0.00  0.00    +0.540 C 
ATOM      8  O   LIG    1        1.944   1.998   4.033  0.00  0.00    -0.520 OA
BRANCH   4   9
ATOM      9  C   LIG    1       -3.128  -0.634   5.650  0.00  0.00    +0.470 C 
ATOM     10  F   LIG    1       -3.328   0.329   6.646  0.00  0.00    -0.180 F 
ATOM     11  F   LIG    1       -2.829  -1.865   6.245  0.00  0.00    -0.180 F 
ATOM     12  F   LIG    1       -4.290  -0.759   4.882  0.00  0.00    -0.180 F 
ENDBRANCH   4   9
BRANCH   7  13
ATOM     13  C   LIG    1        2.198   0.606   5.922  0.00  0.00    +0.050 C 
BRANCH  13  14
ATOM     14  C   LIG    1        3.669   1.006   5.788  0.00  0.00    +0.260 C 
ATOM     15  F   LIG    1        4.415   0.387   6.797  0.00  0.00    -0.210 F 
ENDBRANCH  13  14
ENDBRANCH   7  13
ENDBRANCH   1   2
BRANCH   1  18
ATOM     16  O   LIG    1       -1.117   5.909   3.824  0.00  0.00    -0.520 OA
ATOM     17  C   LIG    1       -1.743   5.249   3.023  0.00  0.00    +0.530 C 
ATOM     18  N   LIG    1       -1.677   3.903   3.060  0.00  0.00    -0.730 N 
ATOM     19  H   LIG    1       -2.177   3.375   2.419  0.00  0.00    +0.400 HD
BRANCH  17  20
ATOM     20  C   LIG    1       -2.595   5.933   1.985  0.00  0.00    +0.000 C 
ATOM     21  C   LIG    1       -2.494   7.451   2.159  0.00  0.00    +0.080 C 
ATOM     22  C   LIG    1       -3.526   8.139   1.260  0.00  0.00    +0.320 C 
ATOM     23  N   LIG    1       -3.406   7.600  -0.095  0.00  0.00    -0.380 N 
ATOM     24  N   LIG    1       -3.896   8.138  -1.288  0.00  0.00    -0.310 NA
ATOM     25  C   LIG    1       -3.547   7.311  -2.242  0.00  0.00    +0.420 A 
ATOM     26  N   LIG    1       -2.870   6.293  -1.708  0.00  0.00    -0.540 NA
ATOM     27  C   LIG    1       -2.778   6.453  -0.418  0.00  0.00    +0.270 A 
ATOM     28  C   LIG    1       -2.103   5.549   0.584  0.00  0.00    +0.190 C 
ENDBRANCH  17  20
ENDBRANCH   1  18
TORSDOF 6
