REMARK  Name = ZINCpk00000xYHG7.0
REMARK                            x       y       z     vdW  Elec       q    Type
REMARK                         _______ _______ _______ _____ _____    ______ ____
ROOT
ATOM      1  N   LIG    1        1.780   5.120   5.644  0.00  0.00    -0.710 N 
ATOM      2  H   LIG    1        2.484   5.359   6.267  0.00  0.00    +0.410 HD
ENDROOT
BRANCH   1   3
ATOM      3  C   LIG    1        2.102   4.671   4.372  0.00  0.00    +0.450 A 
ATOM      4  C   LIG    1        1.101   4.331   3.469  0.00  0.00    -0.160 A 
ATOM      5  C   LIG    1        1.476   3.881   2.207  0.00  0.00    +0.380 A 
ATOM      6  N   LIG    1        2.772   3.801   1.908  0.00  0.00    -0.600 NA
ATOM      7  C   LIG    1        3.691   4.138   2.791  0.00  0.00    +0.560 A 
ATOM      8  N   LIG    1        3.376   4.564   3.996  0.00  0.00    -0.590 NA
BRANCH   5   9
ATOM      9  N   LIG    1        0.516   3.525   1.272  0.00  0.00    -0.450 N 
ATOM     10  C   LIG    1       -0.341   4.687   0.913  0.00  0.00    +0.200 C 
ATOM     11  C   LIG    1       -0.947   4.276  -0.452  0.00  0.00    +0.040 C 
ATOM     12  C   LIG    1        0.222   3.534  -1.140  0.00  0.00    +0.020 C 
ATOM     13  C   LIG    1        1.145   3.085   0.008  0.00  0.00    +0.170 C 
BRANCH  13  14
ATOM     14  C   LIG    1        1.286   1.562  -0.002  0.00  0.00    +0.200 C 
BRANCH  14  15
ATOM     15  O   LIG    1       -0.011   0.963   0.007  0.00  0.00    -0.560 OA
ATOM     16  H   LIG    1        0.002  -0.004   0.002  0.00  0.00    +0.370 HD
ENDBRANCH  14  15
ENDBRANCH  13  14
ENDBRANCH   5   9
ENDBRANCH   1   3
BRANCH   1  17
ATOM     17  C   LIG    1        0.376   5.234   6.046  0.00  0.00    +0.330 C 
BRANCH  17  22
ATOM     18  C   LIG    1        0.168   7.566   9.020  0.00  0.00    -0.140 A 
ATOM     19  C   LIG    1        0.157   6.656  10.078  0.00  0.00    +0.050 A 
ATOM     20  C   LIG    1        0.217   5.302   9.821  0.00  0.00    +0.000 A 
ATOM     21  C   LIG    1        0.282   4.845   8.517  0.00  0.00    +0.060 A 
ATOM     22  C   LIG    1        0.299   5.741   7.463  0.00  0.00    -0.120 A 
ATOM     23  C   LIG    1        0.240   7.098   7.707  0.00  0.00    +0.100 A 
BRANCH  18  27
ATOM     24  C   LIG    1       -0.029  10.906  10.823  0.00  0.00    +0.290 C 
ATOM     25  N   LIG    1        0.035   9.466  10.557  0.00  0.00    -0.730 N 
ATOM     26  H   LIG    1        0.027   8.836  11.295  0.00  0.00    +0.400 HD
ATOM     27  C   LIG    1        0.104   9.018   9.288  0.00  0.00    +0.560 C 
ATOM     28  O   LIG    1        0.113   9.808   8.364  0.00  0.00    -0.530 OA
ENDBRANCH  18  27
ENDBRANCH  17  22
ENDBRANCH   1  17
TORSDOF 7
