REMARK  Name = ZINCqH00000088AP.0
REMARK                            x       y       z     vdW  Elec       q    Type
REMARK                         _______ _______ _______ _____ _____    ______ ____
ROOT
ATOM      1  C   LIG    1       -3.849   3.036   0.072  0.00  0.00    +0.140 A 
ATOM      2  C   LIG    1       -3.739   1.651   0.131  0.00  0.00    +0.020 A 
ATOM      3  C   LIG    1       -2.497   1.056   0.110  0.00  0.00    +0.110 A 
ATOM      4  C   LIG    1       -1.347   1.846   0.030  0.00  0.00    -0.130 A 
ATOM      5  C   LIG    1       -1.462   3.237  -0.023  0.00  0.00    +0.070 A 
ATOM      6  C   LIG    1       -2.707   3.825  -0.007  0.00  0.00    +0.020 A 
ENDROOT
BRANCH   4   7
ATOM      7  C   LIG    1       -0.014   1.212   0.009  0.00  0.00    +0.560 C 
ATOM      8  N   LIG    1        1.003   1.805  -0.646  0.00  0.00    -0.610 N 
ATOM      9  C   LIG    1        0.781   3.012  -1.457  0.00  0.00    +0.240 C 
ATOM     10  C   LIG    1        1.399   2.792  -2.839  0.00  0.00    +0.210 C 
ATOM     11  O   LIG    1        2.756   2.370  -2.688  0.00  0.00    -0.360 OA
ATOM     12  C   LIG    1        2.909   1.124  -2.004  0.00  0.00    +0.110 C 
ATOM     13  C   LIG    1        2.127   0.036  -2.741  0.00  0.00    -0.010 C 
ATOM     14  C   LIG    1        2.668  -0.106  -4.165  0.00  0.00    +0.010 C 
ATOM     15  C   LIG    1        4.149  -0.487  -4.113  0.00  0.00    +0.000 C 
ATOM     16  C   LIG    1        4.930   0.604  -3.377  0.00  0.00    +0.010 C 
ATOM     17  C   LIG    1        4.390   0.746  -1.953  0.00  0.00    +0.050 C 
ATOM     18  C   LIG    1        2.369   1.260  -0.576  0.00  0.00    +0.270 C 
ATOM     19  O   LIG    1        0.164   0.152   0.577  0.00  0.00    -0.530 OA
ENDBRANCH   4   7
BRANCH   1  24
ATOM     20  C   LIG    1       -5.513   4.656   0.907  0.00  0.00    +0.200 A 
ATOM     21  N   LIG    1       -6.762   4.943   0.624  0.00  0.00    -0.480 NA
ATOM     22  C   LIG    1       -7.196   4.129  -0.353  0.00  0.00    +0.170 A 
ATOM     23  C   LIG    1       -6.190   3.308  -0.701  0.00  0.00    +0.140 A 
ATOM     24  N   LIG    1       -5.111   3.637   0.093  0.00  0.00    -0.410 N 
BRANCH  20  26
ATOM     25  C   LIG    1       -5.716   6.654   2.765  0.00  0.00    +0.150 C 
ATOM     26  S   LIG    1       -4.522   5.453   2.127  0.00  0.00    -0.020 S 
ENDBRANCH  20  26
ENDBRANCH   1  24
TORSDOF 3
