REMARK  Name = ZINCpe00000gN4AH.0
REMARK                            x       y       z     vdW  Elec       q    Type
REMARK                         _______ _______ _______ _____ _____    ______ ____
ROOT
ATOM      1  C   LIG    1       -5.770   8.288   2.005  0.00  0.00    -0.020 A 
ATOM      2  C   LIG    1       -4.887   8.693   1.002  0.00  0.00    +0.080 A 
ATOM      3  C   LIG    1       -3.918   7.822   0.550  0.00  0.00    +0.050 A 
ATOM      4  C   LIG    1       -3.818   6.548   1.086  0.00  0.00    -0.080 A 
ATOM      5  C   LIG    1       -2.864   5.419   0.783  0.00  0.00    +0.320 C 
ATOM      6  N   LIG    1       -3.218   4.292   1.650  0.00  0.00    -0.620 N 
ATOM      7  C   LIG    1       -4.354   4.724   2.470  0.00  0.00    +0.330 C 
ATOM      8  C   LIG    1       -2.611   3.089   1.690  0.00  0.00    +0.540 C 
ATOM      9  O   LIG    1       -3.001   2.238   2.462  0.00  0.00    -0.490 OA
ATOM     10  C   LIG    1       -4.690   6.141   2.079  0.00  0.00    -0.100 A 
ATOM     11  C   LIG    1       -5.665   7.003   2.540  0.00  0.00    +0.090 A 
ENDROOT
BRANCH   8  12
ATOM     12  C   LIG    1       -1.449   2.800   0.776  0.00  0.00    +0.150 C 
ATOM     13  C   LIG    1       -1.948   2.439  -0.646  0.00  0.00    +0.100 C 
ATOM     14  C   LIG    1       -0.779   1.607  -1.222  0.00  0.00    +0.180 C 
ATOM     15  C   LIG    1       -0.013   1.086   0.008  0.00  0.00    +0.180 C 
ATOM     16  N   LIG    1       -0.726   1.573   1.208  0.00  0.00    -0.450 N 
BRANCH  16  17
ATOM     17  C   LIG    1        0.161   1.851   2.235  0.00  0.00    +0.350 A 
ATOM     18  C   LIG    1        1.167   2.804   2.065  0.00  0.00    -0.110 A 
ATOM     19  C   LIG    1        2.027   3.045   3.119  0.00  0.00    +0.330 A 
ATOM     20  N   LIG    1        1.870   2.369   4.248  0.00  0.00    -0.520 NA
ATOM     21  C   LIG    1        0.910   1.476   4.378  0.00  0.00    +0.510 A 
ATOM     22  N   LIG    1        0.065   1.218   3.401  0.00  0.00    -0.490 NA
ENDBRANCH  16  17
BRANCH  14  23
ATOM     23  O   LIG    1        0.069   2.431  -2.023  0.00  0.00    -0.560 OA
ATOM     24  H   LIG    1        0.844   1.973  -2.375  0.00  0.00    +0.390 HD
ENDBRANCH  14  23
ENDBRANCH   8  12
BRANCH   1  26
ATOM     25  N   LIG    1       -7.581   9.898   2.857  0.00  0.00    -0.400 NA
ATOM     26  C   LIG    1       -6.780   9.186   2.480  0.00  0.00    +0.250 C 
ENDBRANCH   1  26
TORSDOF 4
