REMARK  Name = ZINCrH000004qHKK.0
REMARK                            x       y       z     vdW  Elec       q    Type
REMARK                         _______ _______ _______ _____ _____    ______ ____
ROOT
ATOM      1  C   LIG    1       -3.053   0.808  -3.425  0.00  0.00    +0.610 C 
ATOM      2  N   LIG    1       -1.874   0.295  -3.826  0.00  0.00    -0.710 N 
ATOM      3  H   LIG    1       -1.132   0.238  -3.204  0.00  0.00    +0.400 HD
ATOM      4  O   LIG    1       -3.983   0.879  -4.206  0.00  0.00    -0.530 OA
ENDROOT
BRANCH   2   5
ATOM      5  C   LIG    1       -1.711  -0.178  -5.204  0.00  0.00    +0.240 C 
ATOM      6  C   LIG    1       -2.208  -1.621  -5.309  0.00  0.00    +0.010 C 
ATOM      7  C   LIG    1       -2.040  -2.114  -6.748  0.00  0.00    +0.040 C 
ATOM      8  C   LIG    1       -0.563  -2.052  -7.139  0.00  0.00    -0.060 C 
ATOM      9  C   LIG    1       -0.064  -0.611  -7.031  0.00  0.00    +0.030 C 
ATOM     10  C   LIG    1        0.253  -2.947  -6.202  0.00  0.00    +0.000 C 
ATOM     11  C   LIG    1        1.717  -2.940  -6.650  0.00  0.00    +0.200 C 
ATOM     12  O   LIG    1        1.801  -3.381  -8.007  0.00  0.00    -0.380 OA
ATOM     13  C   LIG    1        1.096  -2.553  -8.934  0.00  0.00    +0.200 C 
ATOM     14  C   LIG    1       -0.393  -2.545  -8.579  0.00  0.00    -0.010 C 
ATOM     15  C   LIG    1       -0.233  -0.118  -5.592  0.00  0.00    +0.010 C 
ENDBRANCH   2   5
BRANCH   1  19
ATOM     16  N   LIG    1       -2.778   1.759  -0.003  0.00  0.00    -0.230 N 
ATOM     17  C   LIG    1       -4.073   2.126  -0.187  0.00  0.00    +0.170 A 
ATOM     18  C   LIG    1       -4.388   1.845  -1.473  0.00  0.00    +0.010 A 
ATOM     19  C   LIG    1       -3.217   1.285  -2.037  0.00  0.00    -0.010 A 
ATOM     20  N   LIG    1       -2.299   1.269  -1.090  0.00  0.00    -0.250 NA
BRANCH  16  28
ATOM     21  C   LIG    1        0.001   1.143  -0.006  0.00  0.00    +0.130 C 
ATOM     22  C   LIG    1       -0.712   1.599   1.241  0.00  0.00    -0.040 A 
ATOM     23  C   LIG    1       -0.014   1.734   2.425  0.00  0.00    +0.010 A 
ATOM     24  C   LIG    1       -0.668   2.154   3.571  0.00  0.00    +0.110 A 
ATOM     25  C   LIG    1       -2.023   2.439   3.533  0.00  0.00    +0.010 A 
ATOM     26  C   LIG    1       -2.724   2.305   2.351  0.00  0.00    +0.060 A 
ATOM     27  F   LIG    1        0.016   2.285   4.729  0.00  0.00    -0.130 F 
ATOM     28  C   LIG    1       -2.069   1.890   1.199  0.00  0.00    +0.120 A 
ENDBRANCH  16  28
ENDBRANCH   1  19
TORSDOF 3
