REMARK  Name = ZINCpk00000KfKOm.0
REMARK                            x       y       z     vdW  Elec       q    Type
REMARK                         _______ _______ _______ _____ _____    ______ ____
ROOT
ATOM      1  C   LIG    1       -4.401  -1.614  -0.706  0.00  0.00    +0.280 C 
ATOM      2  C   LIG    1       -5.889  -1.950  -0.583  0.00  0.00    +0.060 C 
ATOM      3  C   LIG    1       -6.281  -1.997   0.895  0.00  0.00    +0.010 C 
ATOM      4  C   LIG    1       -6.011  -0.635   1.538  0.00  0.00    +0.030 C 
ATOM      5  C   LIG    1       -4.524  -0.299   1.415  0.00  0.00    +0.020 C 
ATOM      6  C   LIG    1       -4.132  -0.252  -0.063  0.00  0.00    +0.200 C 
ENDROOT
BRANCH   1   9
ATOM      7  C   LIG    1       -2.888  -4.539   0.768  0.00  0.00    -0.090 A 
ATOM      8  C   LIG    1       -3.887  -3.959   0.038  0.00  0.00    +0.310 A 
ATOM      9  N   LIG    1       -3.611  -2.641  -0.023  0.00  0.00    -0.350 N 
ATOM     10  N   LIG    1       -2.424  -2.441   0.697  0.00  0.00    -0.030 NA
ATOM     11  N   LIG    1       -2.027  -3.580   1.148  0.00  0.00    -0.190 NA
BRANCH   7  12
ATOM     12  C   LIG    1       -2.778  -5.973   1.090  0.00  0.00    +0.560 C 
ATOM     13  O   LIG    1       -3.620  -6.752   0.691  0.00  0.00    -0.510 OA
BRANCH  12  15
ATOM     14  C   LIG    1       -1.698  -7.845   2.106  0.00  0.00    +0.290 C 
ATOM     15  O   LIG    1       -1.742  -6.420   1.827  0.00  0.00    -0.340 OA
ENDBRANCH  12  15
ENDBRANCH   7  12
ENDBRANCH   1   9
BRANCH   6  16
ATOM     16  O   LIG    1       -2.720   0.067  -0.179  0.00  0.00    -0.330 OA
BRANCH  16  17
ATOM     17  C   LIG    1       -2.392   1.372  -0.262  0.00  0.00    +0.550 C 
ATOM     18  O   LIG    1       -3.263   2.220  -0.238  0.00  0.00    -0.520 OA
BRANCH  17  19
ATOM     19  C   LIG    1       -0.979   1.770  -0.382  0.00  0.00    -0.290 A 
ATOM     20  C   LIG    1       -0.496   3.061  -0.472  0.00  0.00    +0.170 A 
ATOM     21  N   LIG    1        0.840   2.983  -0.572  0.00  0.00    -0.360 N 
ATOM     22  N   LIG    1        1.210   1.634  -0.540  0.00  0.00    -0.300 NA
ATOM     23  C   LIG    1        1.757   4.119  -0.693  0.00  0.00    +0.360 C 
ATOM     24  C   LIG    1       -1.318   4.324  -0.465  0.00  0.00    +0.180 C 
ATOM     25  C   LIG    1        0.136   0.903  -0.424  0.00  0.00    +0.310 A 
ENDBRANCH  17  19
ENDBRANCH  16  17
ENDBRANCH   6  16
TORSDOF 6
