REMARK  Name = ZINCrH000004pETx.0
REMARK                            x       y       z     vdW  Elec       q    Type
REMARK                         _______ _______ _______ _____ _____    ______ ____
ROOT
ATOM      1  C   LIG    1        0.918   3.977  -0.051  0.00  0.00    -0.680 A 
ATOM      2  C   LIG    1       -0.074   4.930   0.091  0.00  0.00    +0.150 A 
ATOM      3  C   LIG    1       -1.407   4.560   0.064  0.00  0.00    +0.000 A 
ATOM      4  C   LIG    1       -1.755   3.237  -0.112  0.00  0.00    +0.100 A 
ATOM      5  C   LIG    1       -0.759   2.269  -0.249  0.00  0.00    -0.150 A 
ATOM      6  C   LIG    1        0.584   2.649  -0.220  0.00  0.00    +0.190 A 
ENDROOT
BRANCH   5   7
ATOM      7  C   LIG    1       -1.125   0.848  -0.431  0.00  0.00    +0.560 C 
ATOM      8  N   LIG    1       -2.422   0.484  -0.458  0.00  0.00    -0.720 N 
ATOM      9  H   LIG    1       -3.116   1.155  -0.359  0.00  0.00    +0.400 HD
ATOM     10  O   LIG    1       -0.255   0.008  -0.555  0.00  0.00    -0.530 OA
BRANCH   8  11
ATOM     11  C   LIG    1       -2.784  -0.924  -0.638  0.00  0.00    +0.280 C 
ATOM     12  C   LIG    1       -2.812  -1.257  -2.131  0.00  0.00    +0.040 C 
BRANCH  11  13
ATOM     13  C   LIG    1       -4.147  -1.172  -0.043  0.00  0.00    -0.090 A 
ATOM     14  C   LIG    1       -5.149  -0.231  -0.194  0.00  0.00    +0.000 A 
ATOM     15  C   LIG    1       -6.399  -0.460   0.348  0.00  0.00    +0.010 A 
ATOM     16  C   LIG    1       -6.646  -1.627   1.048  0.00  0.00    +0.000 A 
ATOM     17  C   LIG    1       -5.643  -2.565   1.204  0.00  0.00    +0.020 A 
ATOM     18  C   LIG    1       -4.393  -2.337   0.658  0.00  0.00    +0.020 A 
ENDBRANCH  11  13
ENDBRANCH   8  11
ENDBRANCH   5   7
BRANCH   1  19
ATOM     19  S   LIG    1        2.613   4.459  -0.014  0.00  0.00    +2.690 S 
ATOM     20  O   LIG    1        3.330   3.361   0.532  0.00  0.00    -0.950 OA
ATOM     21  O   LIG    1        2.646   5.765   0.545  0.00  0.00    -0.950 OA
BRANCH  19  28
ATOM     22  C   LIG    1        2.132   6.851  -1.448  0.00  0.00    +0.040 C 
ATOM     23  C   LIG    1        2.792   5.816  -2.361  0.00  0.00    +0.230 C 
ATOM     24  C   LIG    1        4.096   6.389  -2.936  0.00  0.00    +0.020 C 
ATOM     25  C   LIG    1        4.816   5.301  -3.736  0.00  0.00    +0.010 C 
ATOM     26  C   LIG    1        5.170   4.135  -2.810  0.00  0.00    +0.020 C 
ATOM     27  C   LIG    1        3.882   3.538  -2.232  0.00  0.00    +0.280 C 
ATOM     28  N   LIG    1        3.113   4.610  -1.585  0.00  0.00    -0.990 NA
ENDBRANCH  19  28
ENDBRANCH   1  19
TORSDOF 5
