REMARK  Name = ZINCpk00000y6uVN.0
REMARK                            x       y       z     vdW  Elec       q    Type
REMARK                         _______ _______ _______ _____ _____    ______ ____
ROOT
ATOM      1  C   LIG    1       -0.176   1.628   2.539  0.00  0.00    +0.260 C 
ATOM      2  C   LIG    1       -1.184   1.255   3.641  0.00  0.00    +0.180 C 
ATOM      3  N   LIG    1       -0.611   2.386   4.408  0.00  0.00    -0.470 NA
ATOM      4  C   LIG    1       -0.171   3.039   3.155  0.00  0.00    +0.180 C 
ENDROOT
BRANCH   1   8
ATOM      5  C   LIG    1       -0.798   1.617  -1.212  0.00  0.00    +0.140 C 
ATOM      6  C   LIG    1       -2.216   1.792  -0.622  0.00  0.00    +0.090 C 
ATOM      7  C   LIG    1       -1.981   1.975   0.862  0.00  0.00    +0.520 C 
ATOM      8  N   LIG    1       -0.737   1.577   1.186  0.00  0.00    -0.610 N 
ATOM      9  O   LIG    1       -2.795   2.417   1.645  0.00  0.00    -0.520 OA
ATOM     10  C   LIG    1       -0.013   1.086   0.008  0.00  0.00    +0.300 C 
BRANCH   5  15
ATOM     11  C   LIG    1        1.257   5.275  -3.945  0.00  0.00    +0.200 C 
ATOM     12  C   LIG    1        0.626   4.492  -2.823  0.00  0.00    +0.170 A 
ATOM     13  N   LIG    1        0.337   4.942  -1.638  0.00  0.00    -0.380 NA
ATOM     14  O   LIG    1       -0.167   4.066  -0.968  0.00  0.00    +0.090 OA
ATOM     15  C   LIG    1       -0.241   2.937  -1.679  0.00  0.00    +0.180 A 
ATOM     16  N   LIG    1        0.258   3.199  -2.863  0.00  0.00    -0.470 NA
ENDBRANCH   5  15
ENDBRANCH   1   8
BRANCH   3  17
ATOM     17  C   LIG    1       -1.667   3.167   5.065  0.00  0.00    +0.290 C 
BRANCH  17  18
ATOM     18  C   LIG    1       -1.916   2.613   6.444  0.00  0.00    -0.020 A 
ATOM     19  C   LIG    1       -1.298   2.983   7.591  0.00  0.00    -0.040 A 
ATOM     20  C   LIG    1       -1.895   2.168   8.580  0.00  0.00    +0.050 A 
ATOM     21  N   LIG    1       -2.764   1.420   7.964  0.00  0.00    -0.360 NA
ATOM     22  O   LIG    1       -2.790   1.653   6.778  0.00  0.00    +0.100 OA
BRANCH  20  23
ATOM     23  C   LIG    1       -1.583   2.163  10.054  0.00  0.00    +0.030 C 
ATOM     24  C   LIG    1       -0.284   2.835  10.504  0.00  0.00    +0.040 C 
ATOM     25  C   LIG    1       -0.402   1.309  10.523  0.00  0.00    +0.040 C 
ENDBRANCH  20  23
ENDBRANCH  17  18
ENDBRANCH   3  17
TORSDOF 5
