REMARK  Name = ZINCrH000004pr8J.0
REMARK                            x       y       z     vdW  Elec       q    Type
REMARK                         _______ _______ _______ _____ _____    ______ ____
ROOT
ATOM      1  C   LIG    1        3.881  -0.774   1.240  0.00  0.00    +0.030 C 
ATOM      2  C   LIG    1        3.331  -0.945  -0.177  0.00  0.00    +0.240 C 
ENDROOT
BRANCH   2   3
ATOM      3  N   LIG    1        1.892  -0.669  -0.180  0.00  0.00    -0.720 N 
ATOM      4  H   LIG    1        1.258  -1.399  -0.095  0.00  0.00    +0.400 HD
ATOM      5  C   LIG    1        1.449   0.598  -0.300  0.00  0.00    +0.560 C 
ATOM      6  O   LIG    1        2.244   1.512  -0.406  0.00  0.00    -0.530 OA
BRANCH   5   7
ATOM      7  C   LIG    1       -0.003   0.876  -0.302  0.00  0.00    -0.140 A 
ATOM      8  C   LIG    1       -0.917  -0.172  -0.181  0.00  0.00    +0.070 A 
ATOM      9  C   LIG    1       -2.273   0.085  -0.189  0.00  0.00    +0.010 A 
ATOM     10  C   LIG    1       -2.736   1.381  -0.306  0.00  0.00    +0.070 A 
ATOM     11  C   LIG    1       -1.832   2.439  -0.429  0.00  0.00    -0.150 A 
ATOM     12  C   LIG    1       -0.462   2.186  -0.427  0.00  0.00    +0.150 A 
BRANCH  11  13
ATOM     13  C   LIG    1       -2.329   3.826  -0.561  0.00  0.00    +0.560 C 
ATOM     14  O   LIG    1       -1.542   4.746  -0.668  0.00  0.00    -0.530 OA
ATOM     15  N   LIG    1       -3.654   4.070  -0.563  0.00  0.00    -0.850 N 
ATOM     16  H   LIG    1       -3.980   4.979  -0.649  0.00  0.00    +0.410 HD
ATOM     17  H   LIG    1       -4.282   3.336  -0.477  0.00  0.00    +0.400 HD
ENDBRANCH  11  13
ENDBRANCH   5   7
ENDBRANCH   2   3
BRANCH   2  18
ATOM     18  C   LIG    1        3.576  -2.380  -0.650  0.00  0.00    +0.070 C 
BRANCH  18  19
ATOM     19  C   LIG    1        5.059  -2.637  -0.726  0.00  0.00    -0.070 A 
ATOM     20  C   LIG    1        5.874  -1.777  -1.438  0.00  0.00    +0.010 A 
ATOM     21  C   LIG    1        7.235  -2.010  -1.504  0.00  0.00    +0.000 A 
ATOM     22  C   LIG    1        7.779  -3.110  -0.867  0.00  0.00    +0.000 A 
ATOM     23  C   LIG    1        6.964  -3.972  -0.159  0.00  0.00    +0.000 A 
ATOM     24  C   LIG    1        5.604  -3.736  -0.089  0.00  0.00    +0.010 A 
ENDBRANCH  18  19
BRANCH  18  25
ATOM     25  C   LIG    1        2.962  -2.571  -2.013  0.00  0.00    -0.070 A 
ATOM     26  C   LIG    1        2.097  -3.625  -2.239  0.00  0.00    +0.000 A 
ATOM     27  C   LIG    1        1.530  -3.798  -3.488  0.00  0.00    +0.000 A 
ATOM     28  C   LIG    1        1.837  -2.924  -4.513  0.00  0.00    +0.000 A 
ATOM     29  C   LIG    1        2.706  -1.873  -4.289  0.00  0.00    +0.000 A 
ATOM     30  C   LIG    1        3.269  -1.697  -3.038  0.00  0.00    +0.010 A 
ENDBRANCH  18  25
ENDBRANCH   2  18
TORSDOF 6
