REMARK  Name = ZINCrg00000fS8JH.0
REMARK                            x       y       z     vdW  Elec       q    Type
REMARK                         _______ _______ _______ _____ _____    ______ ____
ROOT
ATOM      1  C   LIG    1       -1.492   3.391  -0.499  0.00  0.00    +0.040 C 
ATOM      2  C   LIG    1       -1.153   1.953  -0.895  0.00  0.00    +0.000 C 
ATOM      3  C   LIG    1       -0.015   1.443   0.012  0.00  0.00    +0.270 C 
ATOM      4  N   LIG    1        0.003  -0.004   0.003  0.00  0.00    -0.630 N 
ATOM      5  C   LIG    1        0.924  -0.737  -0.867  0.00  0.00    +0.330 C 
ATOM      6  C   LIG    1        1.051  -0.187  -2.296  0.00  0.00    -0.360 C 
ATOM      7  S   LIG    1       -0.563   0.247  -2.962  0.00  0.00    +2.420 S 
ATOM      8  O   LIG    1       -0.462   0.321  -4.378  0.00  0.00    -0.940 OA
ATOM      9  O   LIG    1       -1.537  -0.609  -2.381  0.00  0.00    -0.910 OA
ATOM     10  C   LIG    1       -0.839  -0.685   0.805  0.00  0.00    +0.720 C 
ATOM     11  N   LIG    1       -1.620  -0.022   1.681  0.00  0.00    -0.740 N 
ATOM     12  H   LIG    1       -1.630   0.948   1.684  0.00  0.00    +0.400 HD
ATOM     13  O   LIG    1       -0.894  -1.898   0.738  0.00  0.00    -0.570 OA
ATOM     14  C   LIG    1       -0.808   1.928  -2.311  0.00  0.00    -0.330 C 
ENDROOT
BRANCH  11  15
ATOM     15  C   LIG    1       -2.453  -0.766   2.629  0.00  0.00    +0.430 C 
BRANCH  15  16
ATOM     16  C   LIG    1       -3.222   0.202   3.489  0.00  0.00    +0.200 A 
ATOM     17  N   LIG    1       -2.816   0.693   4.631  0.00  0.00    -0.290 NA
ATOM     18  N   LIG    1       -3.830   1.549   5.089  0.00  0.00    -0.380 N 
ATOM     19  C   LIG    1       -4.808   1.505   4.167  0.00  0.00    +0.480 A 
ATOM     20  N   LIG    1       -4.430   0.693   3.213  0.00  0.00    -0.530 NA
BRANCH  18  21
ATOM     21  C   LIG    1       -3.827   2.331   6.327  0.00  0.00    +0.390 C 
BRANCH  21  22
ATOM     22  C   LIG    1       -3.578   1.416   7.498  0.00  0.00    -0.090 A 
ATOM     23  C   LIG    1       -2.285   1.171   7.922  0.00  0.00    +0.040 A 
ATOM     24  C   LIG    1       -2.056   0.331   8.996  0.00  0.00    +0.050 A 
ATOM     25  C   LIG    1       -3.119  -0.264   9.648  0.00  0.00    +0.000 A 
ATOM     26  C   LIG    1       -4.415  -0.019   9.225  0.00  0.00    +0.100 A 
ATOM     27  F   LIG    1       -5.455  -0.600   9.862  0.00  0.00    -0.140 F 
ATOM     28  C   LIG    1       -4.643   0.826   8.153  0.00  0.00    +0.010 A 
ENDBRANCH  21  22
ENDBRANCH  18  21
ENDBRANCH  15  16
ENDBRANCH  11  15
TORSDOF 4
