REMARK  Name = ZINCpe000000WNyJ.0
REMARK                            x       y       z     vdW  Elec       q    Type
REMARK                         _______ _______ _______ _____ _____    ______ ____
ROOT
ATOM      1  N   LIG    1       -2.724   2.824  -0.591  0.00  0.00    -0.370 N 
ATOM      2  C   LIG    1       -2.462   3.717   0.545  0.00  0.00    +0.250 C 
ATOM      3  C   LIG    1       -1.514   4.837   0.104  0.00  0.00    +0.320 C 
ATOM      4  N   LIG    1       -2.095   5.504  -1.071  0.00  0.00    -0.620 N 
ATOM      5  C   LIG    1       -2.539   4.665  -2.196  0.00  0.00    +0.310 C 
ATOM      6  C   LIG    1       -2.217   6.845  -1.117  0.00  0.00    +0.570 C 
ATOM      7  O   LIG    1       -1.931   7.516  -0.144  0.00  0.00    -0.510 OA
ATOM      8  C   LIG    1       -3.438   3.553  -1.646  0.00  0.00    +0.240 C 
ATOM      9  H   LIG    1       -1.848   2.480  -0.955  0.00  0.00    +0.440 HD
ENDROOT
BRANCH   6  10
ATOM     10  C   LIG    1       -2.698   7.502  -2.350  0.00  0.00    -0.140 A 
ATOM     11  C   LIG    1       -2.401   6.949  -3.598  0.00  0.00    +0.070 A 
ATOM     12  C   LIG    1       -2.856   7.561  -4.746  0.00  0.00    +0.010 A 
ATOM     13  C   LIG    1       -3.600   8.733  -4.663  0.00  0.00    +0.180 A 
ATOM     14  C   LIG    1       -3.893   9.288  -3.422  0.00  0.00    +0.040 A 
ATOM     15  C   LIG    1       -3.446   8.679  -2.270  0.00  0.00    +0.120 A 
BRANCH  13  16
ATOM     16  N   LIG    1       -4.056   9.354  -5.831  0.00  0.00    -0.330 N 
ATOM     17  C   LIG    1       -3.848   8.939  -7.112  0.00  0.00    +0.220 A 
ATOM     18  C   LIG    1       -4.464   9.832  -7.915  0.00  0.00    +0.140 A 
ATOM     19  N   LIG    1       -5.030  10.776  -7.162  0.00  0.00    -0.220 NA
ATOM     20  N   LIG    1       -4.812  10.533  -5.917  0.00  0.00    -0.060 NA
ENDBRANCH  13  16
ENDBRANCH   6  10
BRANCH   1  22
ATOM     21  C   LIG    1       -4.918   2.197   0.300  0.00  0.00    +0.060 C 
ATOM     22  C   LIG    1       -3.543   1.690  -0.141  0.00  0.00    +0.190 C 
BRANCH  22  23
ATOM     23  C   LIG    1       -3.712   0.695  -1.291  0.00  0.00    -0.030 C 
BRANCH  23  24
ATOM     24  C   LIG    1       -2.377   0.080  -1.623  0.00  0.00    +0.480 C 
ATOM     25  O   LIG    1       -2.267  -0.655  -2.590  0.00  0.00    -0.660 OA
ATOM     26  O   LIG    1       -1.406   0.316  -0.924  0.00  0.00    -0.700 OA
ENDBRANCH  23  24
ENDBRANCH  22  23
ENDBRANCH   1  22
TORSDOF 5
