REMARK  Name = ZINCpk000005OSzb.0
REMARK                            x       y       z     vdW  Elec       q    Type
REMARK                         _______ _______ _______ _____ _____    ______ ____
ROOT
ATOM      1  C   LIG    1        4.216   8.784  -0.218  0.00  0.00    +0.560 C 
ATOM      2  N   LIG    1        3.209   7.895  -0.112  0.00  0.00    -0.720 N 
ATOM      3  H   LIG    1        2.294   8.206  -0.028  0.00  0.00    +0.400 HD
ATOM      4  O   LIG    1        5.363   8.395  -0.323  0.00  0.00    -0.500 OA
ENDROOT
BRANCH   1   9
ATOM      5  C   LIG    1        8.303  12.550  -0.651  0.00  0.00    +0.240 C 
ATOM      6  C   LIG    1        6.833  12.251  -0.508  0.00  0.00    +0.250 A 
ATOM      7  N   LIG    1        6.320  11.057  -0.445  0.00  0.00    -0.460 NA
ATOM      8  C   LIG    1        4.975  11.165  -0.319  0.00  0.00    +0.080 A 
ATOM      9  C   LIG    1        3.927  10.230  -0.208  0.00  0.00    -0.090 A 
ATOM     10  C   LIG    1        2.614  10.684  -0.094  0.00  0.00    +0.060 A 
ATOM     11  C   LIG    1        2.345  12.039  -0.080  0.00  0.00    +0.040 A 
ATOM     12  C   LIG    1        3.368  12.962  -0.188  0.00  0.00    +0.080 A 
ATOM     13  C   LIG    1        4.682  12.537  -0.307  0.00  0.00    -0.000 A 
ATOM     14  O   LIG    1        5.866  13.177  -0.427  0.00  0.00    -0.210 OA
ENDBRANCH   1   9
BRANCH   2  15
ATOM     15  C   LIG    1        3.496   6.459  -0.122  0.00  0.00    +0.250 C 
BRANCH  15  16
ATOM     16  C   LIG    1        2.188   5.676   0.012  0.00  0.00    +0.210 C 
BRANCH  16  17
ATOM     17  O   LIG    1        1.548   6.025   1.241  0.00  0.00    -0.560 OA
ATOM     18  H   LIG    1        2.077   5.834   2.028  0.00  0.00    +0.380 HD
ENDBRANCH  16  17
BRANCH  16  19
ATOM     19  C   LIG    1        2.488   4.176   0.001  0.00  0.00    +0.250 C 
BRANCH  19  20
ATOM     20  N   LIG    1        1.230   3.426   0.009  0.00  0.00    -0.720 N 
ATOM     21  H   LIG    1        0.383   3.900   0.019  0.00  0.00    +0.410 HD
ATOM     22  C   LIG    1        1.248   2.079   0.001  0.00  0.00    +0.550 C 
ATOM     23  O   LIG    1        2.309   1.485  -0.012  0.00  0.00    -0.540 OA
BRANCH  22  24
ATOM     24  C   LIG    1       -0.016   1.326   0.009  0.00  0.00    -0.080 C 
ATOM     25  C   LIG    1        0.002  -0.004   0.002  0.00  0.00    -0.050 C 
ATOM     26  C   LIG    1        1.062  -1.085  -0.021  0.00  0.00    +0.080 C 
ATOM     27  C   LIG    1        0.023  -1.998  -0.682  0.00  0.00    +0.030 C 
ATOM     28  C   LIG    1       -1.029  -1.113   0.006  0.00  0.00    +0.070 C 
ENDBRANCH  22  24
ENDBRANCH  19  20
ENDBRANCH  16  19
ENDBRANCH  15  16
ENDBRANCH   2  15
TORSDOF 7
