REMARK  Name = ZINCrH00000tj15t.0
REMARK                            x       y       z     vdW  Elec       q    Type
REMARK                         _______ _______ _______ _____ _____    ______ ____
ROOT
ATOM      1  C   LIG    1       -1.079   1.823   3.688  0.00  0.00    +0.170 C 
ATOM      2  C   LIG    1       -2.488   1.279   3.583  0.00  0.00    +0.500 C 
ATOM      3  N   LIG    1       -2.755   0.646   4.737  0.00  0.00    -0.550 N 
ATOM      4  C   LIG    1       -1.681   0.694   5.627  0.00  0.00    +0.180 A 
ATOM      5  C   LIG    1       -1.539   0.173   6.912  0.00  0.00    +0.000 A 
ATOM      6  C   LIG    1       -0.360   0.354   7.606  0.00  0.00    +0.110 A 
ATOM      7  C   LIG    1        0.689   1.052   7.033  0.00  0.00    -0.120 A 
ATOM      8  C   LIG    1        0.554   1.573   5.757  0.00  0.00    +0.130 A 
ATOM      9 BR   LIG    1        2.301   1.294   7.991  0.00  0.00    -0.040 Br
ATOM     10  O   LIG    1       -3.235   1.394   2.635  0.00  0.00    -0.450 OA
ATOM     11  C   LIG    1       -0.622   1.393   5.063  0.00  0.00    -0.130 A 
ENDROOT
BRANCH   1  12
ATOM     12  O   LIG    1       -1.083   3.248   3.581  0.00  0.00    -0.530 OA
ATOM     13  H   LIG    1       -1.397   3.577   2.728  0.00  0.00    +0.390 HD
ENDBRANCH   1  12
BRANCH   1  14
ATOM     14  C   LIG    1       -0.185   1.208   2.610  0.00  0.00    +0.040 C 
BRANCH  14  16
ATOM     15  C   LIG    1       -0.013   1.086   0.008  0.00  0.00    +0.080 C 
ATOM     16  C   LIG    1       -0.718   1.572   1.248  0.00  0.00    +0.340 C 
ATOM     17  O   LIG    1       -1.710   2.253   1.150  0.00  0.00    -0.430 OA
ENDBRANCH  14  16
ENDBRANCH   1  14
BRANCH   3  18
ATOM     18  C   LIG    1       -4.028  -0.019   5.029  0.00  0.00    +0.300 C 
BRANCH  18  19
ATOM     19  C   LIG    1       -3.956  -1.478   4.576  0.00  0.00    +0.020 C 
BRANCH  19  20
ATOM     20  C   LIG    1       -5.285  -2.173   4.880  0.00  0.00    +0.200 C 
BRANCH  20  21
ATOM     21  O   LIG    1       -5.218  -3.536   4.457  0.00  0.00    -0.310 OA
BRANCH  21  22
ATOM     22  C   LIG    1       -6.325  -4.299   4.656  0.00  0.00    +0.130 A 
ATOM     23  C   LIG    1       -7.452  -3.747   5.247  0.00  0.00    -0.090 A 
ATOM     24  C   LIG    1       -8.576  -4.524   5.448  0.00  0.00    +0.050 A 
ATOM     25  C   LIG    1       -8.579  -5.852   5.062  0.00  0.00    -0.040 A 
ATOM     26  C   LIG    1       -7.456  -6.405   4.473  0.00  0.00    -0.050 A 
ATOM     27  C   LIG    1       -7.462  -7.852   4.052  0.00  0.00    +0.090 C 
ATOM     28  C   LIG    1       -6.332  -5.630   4.264  0.00  0.00    -0.020 A 
ENDBRANCH  21  22
ENDBRANCH  20  21
ENDBRANCH  19  20
ENDBRANCH  18  19
ENDBRANCH   3  18
TORSDOF 8
