REMARK  Name = ZINCvU00000005EW.0
REMARK                            x       y       z     vdW  Elec       q    Type
REMARK                         _______ _______ _______ _____ _____    ______ ____
ROOT
ATOM      1  C   LIG    1        0.364   2.410   0.233  0.00  0.00    +0.220 C 
ENDROOT
BRANCH   1   5
ATOM      2  C   LIG    1        0.169   4.695   3.088  0.00  0.00    +0.110 A 
ATOM      3  C   LIG    1       -1.161   4.518   3.215  0.00  0.00    -0.060 A 
ATOM      4  S   LIG    1       -1.679   3.394   1.960  0.00  0.00    +0.220 S 
ATOM      5  C   LIG    1       -0.071   3.264   1.395  0.00  0.00    +0.020 A 
ATOM      6  N   LIG    1        0.715   4.003   2.098  0.00  0.00    -0.440 NA
BRANCH   2  10
ATOM      7  C   LIG    1        2.413   7.255   5.644  0.00  0.00    +0.110 A 
ATOM      8  C   LIG    1        1.047   7.116   5.829  0.00  0.00    -0.030 A 
ATOM      9  C   LIG    1        0.316   6.291   4.997  0.00  0.00    +0.030 A 
ATOM     10  C   LIG    1        0.953   5.587   3.978  0.00  0.00    -0.020 A 
ATOM     11  C   LIG    1        2.328   5.726   3.792  0.00  0.00    +0.010 A 
ATOM     12  C   LIG    1        3.055   6.558   4.623  0.00  0.00    +0.100 A 
BRANCH   7  14
ATOM     13  C   LIG    1        2.408   8.757   7.488  0.00  0.00    +0.240 C 
ATOM     14  O   LIG    1        3.129   8.073   6.462  0.00  0.00    -0.300 OA
ENDBRANCH   7  14
BRANCH  12  15
ATOM     15  O   LIG    1        4.396   6.695   4.444  0.00  0.00    -0.310 OA
ATOM     16  C   LIG    1        4.988   5.950   3.378  0.00  0.00    +0.240 C 
ENDBRANCH  12  15
ENDBRANCH   2  10
ENDBRANCH   1   5
BRANCH   1  17
ATOM     17  C   LIG    1       -0.360   2.850  -1.014  0.00  0.00    +0.410 C 
ATOM     18  O   LIG    1       -1.432   3.410  -0.926  0.00  0.00    -0.420 OA
BRANCH  17  19
ATOM     19  C   LIG    1        0.233   2.599  -2.337  0.00  0.00    -0.170 A 
ATOM     20  C   LIG    1        1.468   1.952  -2.442  0.00  0.00    +0.060 A 
ATOM     21  C   LIG    1        2.017   1.720  -3.686  0.00  0.00    +0.000 A 
ATOM     22  C   LIG    1        1.349   2.125  -4.828  0.00  0.00    -0.040 A 
ATOM     23  C   LIG    1        0.125   2.765  -4.732  0.00  0.00    -0.080 A 
ATOM     24  C   LIG    1        1.956   1.868  -6.183  0.00  0.00    +0.100 C 
ATOM     25  C   LIG    1       -0.439   3.000  -3.496  0.00  0.00    +0.090 A 
BRANCH  23  26
ATOM     26  C   LIG    1       -0.594   3.202  -5.982  0.00  0.00    -0.030 C 
ATOM     27  C   LIG    1       -0.712   2.017  -6.943  0.00  0.00    +0.030 C 
ATOM     28  C   LIG    1        0.191   4.329  -6.655  0.00  0.00    +0.040 C 
ATOM     29  C   LIG    1       -1.993   3.703  -5.616  0.00  0.00    +0.030 C 
ENDBRANCH  23  26
ENDBRANCH  17  19
ENDBRANCH   1  17
BRANCH   1  30
ATOM     30  C   LIG    1        0.045   1.000   0.513  0.00  0.00    +0.200 C 
ATOM     31  N   LIG    1       -0.200  -0.087   0.730  0.00  0.00    -0.370 NA
ENDBRANCH   1  30
TORSDOF 8
