REMARK  Name = ZINCpk00000xI7lG.0
REMARK                            x       y       z     vdW  Elec       q    Type
REMARK                         _______ _______ _______ _____ _____    ______ ____
ROOT
ATOM      1  N   LIG    1       -4.455  -1.647   1.109  0.00  0.00    -1.120 NA
ATOM      2  H   LIG    1       -4.723  -2.526   1.419  0.00  0.00    +0.420 HD
ENDROOT
BRANCH   1   3
ATOM      3  S   LIG    1       -2.953  -1.425   0.448  0.00  0.00    +2.790 S 
ATOM      4  O   LIG    1       -2.297  -2.684   0.509  0.00  0.00    -0.970 OA
ATOM      5  O   LIG    1       -3.149  -0.708  -0.763  0.00  0.00    -0.970 OA
BRANCH   3   9
ATOM      6  C   LIG    1       -0.013   1.086   0.008  0.00  0.00    +0.010 C 
ATOM      7  C   LIG    1       -0.729   1.579   1.267  0.00  0.00    +0.200 C 
ATOM      8  C   LIG    1       -2.166   1.047   1.280  0.00  0.00    +0.270 C 
ATOM      9  N   LIG    1       -2.118  -0.414   1.460  0.00  0.00    -1.010 NA
ATOM     10  C   LIG    1       -1.306  -0.949   2.564  0.00  0.00    +0.270 C 
ATOM     11  C   LIG    1        0.089  -0.318   2.488  0.00  0.00    +0.140 C 
ATOM     12  C   LIG    1        0.895  -0.705   3.730  0.00  0.00    +0.070 C 
ATOM     13  O   LIG    1       -0.039   1.104   2.426  0.00  0.00    -0.370 OA
ENDBRANCH   3   9
ENDBRANCH   1   3
BRANCH   1  14
ATOM     14  C   LIG    1       -5.379  -0.516   1.225  0.00  0.00    +0.340 C 
BRANCH  14  15
ATOM     15  C   LIG    1       -6.769  -1.029   1.500  0.00  0.00    -0.020 A 
ATOM     16  C   LIG    1       -7.638  -1.319   0.458  0.00  0.00    -0.040 A 
ATOM     17  C   LIG    1       -8.903  -1.793   0.745  0.00  0.00    +0.320 A 
ATOM     18  N   LIG    1       -9.295  -1.962   1.994  0.00  0.00    -0.540 NA
ATOM     19  C   LIG    1       -8.497  -1.692   3.014  0.00  0.00    +0.320 A 
ATOM     20  C   LIG    1       -7.210  -1.217   2.799  0.00  0.00    -0.020 A 
BRANCH  19  21
ATOM     21  O   LIG    1       -8.941  -1.879   4.282  0.00  0.00    -0.290 OA
BRANCH  21  22
ATOM     22  C   LIG    1      -10.274  -2.369   4.437  0.00  0.00    +0.260 C 
BRANCH  22  23
ATOM     23  C   LIG    1      -10.594  -2.516   5.926  0.00  0.00    +0.460 C 
ATOM     24  F   LIG    1       -9.696  -3.416   6.509  0.00  0.00    -0.170 F 
ATOM     25  F   LIG    1      -11.900  -2.996   6.077  0.00  0.00    -0.170 F 
ATOM     26  F   LIG    1      -10.480  -1.271   6.552  0.00  0.00    -0.170 F 
ENDBRANCH  22  23
ENDBRANCH  21  22
ENDBRANCH  19  21
ENDBRANCH  14  15
ENDBRANCH   1  14
TORSDOF 7
