REMARK  Name = ZINCpk00000eb7jj.0
REMARK                            x       y       z     vdW  Elec       q    Type
REMARK                         _______ _______ _______ _____ _____    ______ ____
ROOT
ATOM      1  C   LIG    1       -0.679  -0.595   2.201  0.00  0.00    -0.040 C 
ATOM      2  C   LIG    1        0.397  -0.030   3.131  0.00  0.00    +0.030 C 
ATOM      3  C   LIG    1        0.300   1.497   3.159  0.00  0.00    +0.020 C 
ATOM      4  C   LIG    1        0.543   2.045   1.749  0.00  0.00    +0.260 C 
ATOM      5  N   LIG    1       -0.394   1.398   0.822  0.00  0.00    -0.610 N 
ATOM      6  C   LIG    1       -1.187   2.136   0.019  0.00  0.00    +0.600 C 
ATOM      7  O   LIG    1       -1.897   1.589  -0.803  0.00  0.00    -0.530 OA
ATOM      8  C   LIG    1       -0.447  -0.070   0.781  0.00  0.00    +0.290 C 
ENDROOT
BRANCH   6   9
ATOM      9  C   LIG    1       -1.192   3.599   0.138  0.00  0.00    -0.270 A 
ATOM     10  C   LIG    1       -2.324   4.425   0.255  0.00  0.00    +0.090 A 
ATOM     11  C   LIG    1       -3.702   4.179   0.308  0.00  0.00    +0.350 A 
ATOM     12  N   LIG    1       -4.538   5.185   0.430  0.00  0.00    -0.440 NA
ATOM     13  C   LIG    1       -4.096   6.440   0.510  0.00  0.00    +0.220 A 
ATOM     14  C   LIG    1       -2.774   6.723   0.469  0.00  0.00    +0.260 A 
ATOM     15  N   LIG    1       -1.868   5.712   0.343  0.00  0.00    -0.250 N 
ATOM     16  N   LIG    1       -0.473   5.681   0.271  0.00  0.00    -0.300 NA
ATOM     17  C   LIG    1       -0.069   4.441   0.151  0.00  0.00    +0.320 A 
ENDBRANCH   6   9
BRANCH   1  18
ATOM     18  C   LIG    1       -0.602  -2.123   2.200  0.00  0.00    +0.330 C 
BRANCH  18  22
ATOM     19  C   LIG    1       -3.312  -3.851  -1.652  0.00  0.00    +0.190 C 
ATOM     20  C   LIG    1       -2.869  -3.415  -0.279  0.00  0.00    +0.230 A 
ATOM     21  N   LIG    1       -1.688  -2.946   0.025  0.00  0.00    -0.320 NA
ATOM     22  N   LIG    1       -1.704  -2.667   1.401  0.00  0.00    -0.380 N 
ATOM     23  C   LIG    1       -2.929  -3.002   1.841  0.00  0.00    +0.280 A 
ATOM     24  C   LIG    1       -3.422  -2.886   3.260  0.00  0.00    +0.190 C 
ATOM     25  N   LIG    1       -3.619  -3.446   0.822  0.00  0.00    -0.540 NA
ENDBRANCH  18  22
ENDBRANCH   1  18
TORSDOF 3
