REMARK  Name = ZINCpk000000mXuy.0
REMARK                            x       y       z     vdW  Elec       q    Type
REMARK                         _______ _______ _______ _____ _____    ______ ____
ROOT
ATOM      1  C   LIG    1       -2.204   2.483  -0.685  0.00  0.00    +0.220 C 
ATOM      2  C   LIG    1       -1.165   3.495  -0.196  0.00  0.00    +0.010 C 
ATOM      3  C   LIG    1       -0.370   2.891   0.964  0.00  0.00    +0.020 C 
ATOM      4  C   LIG    1       -1.322   2.577   2.123  0.00  0.00    +0.260 C 
ATOM      5  N   LIG    1       -2.407   1.720   1.624  0.00  0.00    -0.610 N 
ATOM      6  C   LIG    1       -2.689   0.549   2.227  0.00  0.00    +0.530 C 
ATOM      7  O   LIG    1       -3.587  -0.149   1.806  0.00  0.00    -0.500 OA
ATOM      8  C   LIG    1       -3.177   2.165   0.454  0.00  0.00    +0.290 C 
ENDROOT
BRANCH   6   9
ATOM      9  C   LIG    1       -1.890   0.107   3.426  0.00  0.00    +0.230 C 
ATOM     10  C   LIG    1       -1.166  -1.204   3.106  0.00  0.00    +0.040 C 
ATOM     11  C   LIG    1       -0.473  -1.722   4.369  0.00  0.00    +0.020 C 
ATOM     12  C   LIG    1       -1.518  -1.995   5.454  0.00  0.00    +0.010 C 
ATOM     13  C   LIG    1       -2.243  -0.691   5.800  0.00  0.00    +0.280 C 
ATOM     14  N   LIG    1       -2.792  -0.114   4.565  0.00  0.00    -0.600 N 
ATOM     15  C   LIG    1       -4.098   0.208   4.479  0.00  0.00    +0.590 C 
ATOM     16  O   LIG    1       -4.566   0.575   3.417  0.00  0.00    -0.480 OA
BRANCH  15  17
ATOM     17  C   LIG    1       -4.955   0.117   5.666  0.00  0.00    -0.080 A 
ATOM     18  C   LIG    1       -6.311   0.278   5.691  0.00  0.00    +0.040 A 
ATOM     19  C   LIG    1       -6.713   0.107   7.024  0.00  0.00    -0.060 A 
ATOM     20  C   LIG    1       -5.599  -0.147   7.746  0.00  0.00    +0.200 A 
ATOM     21  O   LIG    1       -4.543  -0.145   6.923  0.00  0.00    -0.160 OA
ENDBRANCH  15  17
ENDBRANCH   6   9
BRANCH   1  24
ATOM     22  C   LIG    1       -3.207   3.532  -4.228  0.00  0.00    +0.090 C 
ATOM     23  C   LIG    1       -2.446   2.949  -3.065  0.00  0.00    +0.510 C 
ATOM     24  N   LIG    1       -2.943   3.050  -1.816  0.00  0.00    -0.730 N 
ATOM     25  H   LIG    1       -3.790   3.498  -1.666  0.00  0.00    +0.400 HD
ATOM     26  O   LIG    1       -1.387   2.389  -3.252  0.00  0.00    -0.540 OA
ENDBRANCH   1  24
TORSDOF 3
