REMARK  Name = ZINCAx0000000fM4.0
REMARK                            x       y       z     vdW  Elec       q    Type
REMARK                         _______ _______ _______ _____ _____    ______ ____
ROOT
ATOM      1  C   LIG    1       -3.504   2.537   0.095  0.00  0.00    +0.310 A 
ATOM      2  C   LIG    1       -2.586   1.535   0.116  0.00  0.00    -0.070 A 
ATOM      3  C   LIG    1       -1.309   2.119   0.020  0.00  0.00    +0.140 A 
ATOM      4  N   LIG    1       -1.459   3.424  -0.066  0.00  0.00    -0.270 NA
ATOM      5  N   LIG    1       -2.828   3.714  -0.021  0.00  0.00    -0.340 N 
ENDROOT
BRANCH   3   6
ATOM      6  C   LIG    1       -0.017   1.389   0.010  0.00  0.00    -0.020 A 
ATOM      7  C   LIG    1        0.002  -0.004   0.002  0.00  0.00    +0.040 A 
ATOM      8  C   LIG    1        1.208  -0.669  -0.011  0.00  0.00    +0.010 A 
ATOM      9  C   LIG    1        2.407   0.035  -0.015  0.00  0.00    -0.060 A 
ATOM     10  C   LIG    1        3.685  -0.763  -0.013  0.00  0.00    +0.080 C 
ATOM     11  C   LIG    1        4.863   0.108  -0.447  0.00  0.00    +0.020 C 
ATOM     12  C   LIG    1        4.854   1.389   0.396  0.00  0.00    +0.020 C 
ATOM     13  C   LIG    1        3.656   2.236  -0.027  0.00  0.00    +0.070 C 
ATOM     14  C   LIG    1        2.394   1.413  -0.012  0.00  0.00    -0.080 A 
ATOM     15  C   LIG    1        1.184   2.091   0.002  0.00  0.00    +0.040 A 
ENDBRANCH   3   6
BRANCH   5  16
ATOM     16  C   LIG    1       -3.403   4.990  -0.084  0.00  0.00    +0.160 A 
ATOM     17  C   LIG    1       -4.615   5.176  -0.736  0.00  0.00    -0.020 A 
ATOM     18  C   LIG    1       -5.181   6.435  -0.790  0.00  0.00    +0.050 A 
ATOM     19  C   LIG    1       -4.537   7.511  -0.207  0.00  0.00    +0.010 A 
ATOM     20  C   LIG    1       -3.327   7.329   0.437  0.00  0.00    +0.040 A 
ATOM     21  C   LIG    1       -2.758   6.072   0.501  0.00  0.00    +0.030 A 
ENDBRANCH   5  16
BRANCH   1  23
ATOM     22  C   LIG    1       -5.427   1.157   0.284  0.00  0.00    +0.520 C 
ATOM     23  N   LIG    1       -4.888   2.387   0.171  0.00  0.00    -0.650 N 
ATOM     24  H   LIG    1       -5.463   3.167   0.143  0.00  0.00    +0.410 HD
ATOM     25  O   LIG    1       -4.708   0.180   0.319  0.00  0.00    -0.480 OA
BRANCH  22  26
ATOM     26  C   LIG    1       -6.923   0.994   0.367  0.00  0.00    +0.220 C 
BRANCH  26  30
ATOM     27  N   LIG    1       -8.604  -2.835  -0.230  0.00  0.00    -0.520 NA
ATOM     28  C   LIG    1       -8.964  -2.108   0.996  0.00  0.00    +0.190 C 
ATOM     29  C   LIG    1       -8.677  -0.617   0.804  0.00  0.00    +0.190 C 
ATOM     30  N   LIG    1       -7.255  -0.432   0.484  0.00  0.00    -0.520 NA
ATOM     31  C   LIG    1       -6.895  -1.159  -0.741  0.00  0.00    +0.190 C 
ATOM     32  C   LIG    1       -7.182  -2.650  -0.550  0.00  0.00    +0.200 C 
BRANCH  27  33
ATOM     33  C   LIG    1       -8.936  -4.261  -0.113  0.00  0.00    +0.220 C 
BRANCH  33  37
ATOM     34  C   LIG    1       -8.893  -6.886  -2.899  0.00  0.00    +0.290 C 
ATOM     35  N   LIG    1       -9.039  -6.241  -1.592  0.00  0.00    -0.740 N 
ATOM     36  H   LIG    1       -9.319  -6.762  -0.823  0.00  0.00    +0.400 HD
ATOM     37  C   LIG    1       -8.785  -4.924  -1.458  0.00  0.00    +0.510 C 
ATOM     38  O   LIG    1       -8.436  -4.273  -2.419  0.00  0.00    -0.520 OA
ENDBRANCH  33  37
ENDBRANCH  27  33
ENDBRANCH  26  30
ENDBRANCH  22  26
ENDBRANCH   1  23
TORSDOF 7
