REMARK  Name = ZINCrD00000751IC.0
REMARK                            x       y       z     vdW  Elec       q    Type
REMARK                         _______ _______ _______ _____ _____    ______ ____
ROOT
ATOM      1  C   LIG    1        1.629   3.293  -0.511  0.00  0.00    +0.080 A 
ATOM      2  C   LIG    1        2.850   3.882  -0.580  0.00  0.00    +0.130 A 
ATOM      3  N   LIG    1        2.680   5.112  -1.136  0.00  0.00    -0.380 N 
ATOM      4  N   LIG    1        1.317   5.274  -1.413  0.00  0.00    -0.250 NA
ATOM      5  C   LIG    1        0.689   4.186  -1.045  0.00  0.00    +0.190 A 
ENDROOT
BRANCH   1   6
ATOM      6  N   LIG    1        1.356   2.010  -0.000  0.00  0.00    -0.730 N 
ATOM      7  H   LIG    1        2.078   1.462   0.345  0.00  0.00    +0.400 HD
BRANCH   6   8
ATOM      8  C   LIG    1       -0.018   1.503   0.010  0.00  0.00    +0.330 C 
ATOM      9  C   LIG    1       -0.735   1.996   1.269  0.00  0.00    +0.020 C 
BRANCH   8  13
ATOM     10  C   LIG    1        1.210  -3.226   1.124  0.00  0.00    +0.170 C 
ATOM     11  C   LIG    1        0.537  -2.038   0.487  0.00  0.00    +0.200 A 
ATOM     12  N   LIG    1        0.791  -0.786   0.754  0.00  0.00    -0.480 NA
ATOM     13  C   LIG    1        0.002  -0.004   0.002  0.00  0.00    -0.000 A 
ATOM     14  C   LIG    1       -0.765  -0.802  -0.765  0.00  0.00    -0.020 A 
ATOM     15  C   LIG    1       -1.798  -0.359  -1.770  0.00  0.00    +0.140 C 
ATOM     16  N   LIG    1       -0.426  -2.092  -0.458  0.00  0.00    -0.460 N 
ATOM     17  C   LIG    1       -1.001  -3.305  -1.045  0.00  0.00    +0.330 C 
ENDBRANCH   8  13
ENDBRANCH   6   8
ENDBRANCH   1   6
BRANCH   3  18
ATOM     18  C   LIG    1        3.737   6.092  -1.399  0.00  0.00    +0.460 C 
BRANCH  18  19
ATOM     19  C   LIG    1        3.705   6.486  -2.853  0.00  0.00    +0.260 A 
ATOM     20  N   LIG    1        3.013   7.473  -3.344  0.00  0.00    -0.460 NA
ATOM     21  C   LIG    1        3.213   7.549  -4.684  0.00  0.00    +0.040 A 
ATOM     22  C   LIG    1        2.731   8.398  -5.684  0.00  0.00    +0.070 A 
ATOM     23  C   LIG    1        3.127   8.218  -6.979  0.00  0.00    +0.000 A 
ATOM     24  C   LIG    1        4.007   7.199  -7.315  0.00  0.00    +0.030 A 
ATOM     25  C   LIG    1        4.495   6.350  -6.346  0.00  0.00    +0.010 A 
ATOM     26  C   LIG    1        4.104   6.517  -5.024  0.00  0.00    +0.050 A 
ATOM     27  N   LIG    1        4.402   5.866  -3.844  0.00  0.00    -0.490 N 
ATOM     28  C   LIG    1        5.298   4.718  -3.687  0.00  0.00    +0.340 C 
ENDBRANCH  18  19
ENDBRANCH   3  18
TORSDOF 5
