REMARK  Name = ZINCqH0000004pdX.1
REMARK                            x       y       z     vdW  Elec       q    Type
REMARK                         _______ _______ _______ _____ _____    ______ ____
ROOT
ATOM      1  N   LIG    1       -1.153   6.482  -0.839  0.00  0.00    -0.720 N 
ATOM      2  H   LIG    1       -1.920   5.917  -1.019  0.00  0.00    +0.400 HD
ATOM      3  C   LIG    1       -1.074   7.709  -1.392  0.00  0.00    +0.560 C 
ATOM      4  O   LIG    1       -0.113   8.417  -1.165  0.00  0.00    -0.510 OA
ENDROOT
BRANCH   3   5
ATOM      5  C   LIG    1       -2.159   8.193  -2.276  0.00  0.00    -0.060 A 
ATOM      6  C   LIG    1       -3.260   7.373  -2.539  0.00  0.00    +0.030 A 
ATOM      7  C   LIG    1       -4.277   7.816  -3.356  0.00  0.00    +0.140 A 
ATOM      8  C   LIG    1       -4.199   9.083  -3.930  0.00  0.00    -0.160 A 
ATOM      9  C   LIG    1       -5.262   9.597  -4.816  0.00  0.00    +0.550 A 
ATOM     10  N   LIG    1       -5.118  10.835  -5.337  0.00  0.00    -0.510 N 
ATOM     11  C   LIG    1       -4.041  11.586  -5.061  0.00  0.00    +0.530 A 
ATOM     12  N   LIG    1       -3.046  11.166  -4.261  0.00  0.00    -0.580 N 
ATOM     13  H   LIG    1       -2.288  11.748  -4.093  0.00  0.00    +0.450 HD
ATOM     14  S   LIG    1       -3.929  13.146  -5.758  0.00  0.00    -0.540 S 
ATOM     15  C   LIG    1       -6.159  11.368  -6.220  0.00  0.00    +0.370 C 
ATOM     16  O   LIG    1       -6.241   8.923  -5.072  0.00  0.00    -0.470 OA
ATOM     17  C   LIG    1       -3.091   9.910  -3.673  0.00  0.00    +0.170 A 
ATOM     18  C   LIG    1       -2.074   9.461  -2.846  0.00  0.00    +0.070 A 
ENDBRANCH   3   5
BRANCH   1  19
ATOM     19  C   LIG    1       -0.079   6.003   0.036  0.00  0.00    +0.290 C 
BRANCH  19  20
ATOM     20  C   LIG    1       -0.059   4.497   0.027  0.00  0.00    -0.090 A 
ATOM     21  C   LIG    1        1.148   3.822   0.012  0.00  0.00    +0.050 A 
ATOM     22  C   LIG    1        1.167   2.440   0.004  0.00  0.00    +0.040 A 
ATOM     23  C   LIG    1       -0.021   1.732   0.012  0.00  0.00    -0.030 A 
ATOM     24  C   LIG    1       -1.229   2.407   0.021  0.00  0.00    +0.040 A 
ATOM     25 CL   LIG    1        0.002  -0.004   0.002  0.00  0.00    -0.060 Cl
ATOM     26  C   LIG    1       -1.247   3.789   0.035  0.00  0.00    +0.030 A 
ENDBRANCH  19  20
BRANCH  19  28
ATOM     27  C   LIG    1       -0.220   8.028   1.493  0.00  0.00    +0.010 C 
ATOM     28  C   LIG    1       -0.323   6.502   1.462  0.00  0.00    +0.020 C 
ENDBRANCH  19  28
ENDBRANCH   1  19
TORSDOF 4
