REMARK  Name = ZINCrD00000l9t4f.0
REMARK                            x       y       z     vdW  Elec       q    Type
REMARK                         _______ _______ _______ _____ _____    ______ ____
ROOT
ATOM      1  C   LIG    1        3.212   5.253  -0.102  0.00  0.00    +0.230 A 
ATOM      2  C   LIG    1        4.517   5.726  -0.106  0.00  0.00    +0.030 A 
ATOM      3  C   LIG    1        5.574   4.840  -0.011  0.00  0.00    +0.010 A 
ATOM      4  C   LIG    1        5.340   3.477   0.089  0.00  0.00    +0.010 A 
ATOM      5  C   LIG    1        4.051   2.991   0.101  0.00  0.00    +0.090 A 
ATOM      6 CL   LIG    1        7.204   5.438  -0.018  0.00  0.00    -0.050 Cl
ATOM      7  C   LIG    1        2.973   3.874  -0.000  0.00  0.00    -0.170 A 
ENDROOT
BRANCH   1  10
ATOM      8  O   LIG    1        3.259   7.432  -1.624  0.00  0.00    -0.510 OA
ATOM      9  C   LIG    1        2.261   7.254  -0.951  0.00  0.00    +0.590 C 
ATOM     10  N   LIG    1        2.146   6.143  -0.197  0.00  0.00    -0.660 N 
ATOM     11  H   LIG    1        1.321   5.963   0.280  0.00  0.00    +0.430 HD
BRANCH   9  12
ATOM     12  C   LIG    1        1.184   8.248  -0.960  0.00  0.00    -0.280 A 
ATOM     13  C   LIG    1        1.184   9.410  -1.680  0.00  0.00    +0.120 A 
ATOM     14  C   LIG    1        0.045  10.159  -1.502  0.00  0.00    +0.000 A 
ATOM     15  C   LIG    1       -0.857   9.631  -0.666  0.00  0.00    -0.050 A 
ATOM     16  S   LIG    1       -0.317   8.134  -0.052  0.00  0.00    +0.220 S 
ENDBRANCH   9  12
ENDBRANCH   1  10
BRANCH   7  17
ATOM     17  C   LIG    1        1.591   3.360   0.006  0.00  0.00    +0.570 C 
ATOM     18  N   LIG    1        1.366   2.031   0.003  0.00  0.00    -0.720 N 
ATOM     19  H   LIG    1        2.113   1.413  -0.004  0.00  0.00    +0.400 HD
ATOM     20  O   LIG    1        0.654   4.135   0.014  0.00  0.00    -0.540 OA
BRANCH  18  21
ATOM     21  C   LIG    1       -0.007   1.520   0.009  0.00  0.00    +0.270 C 
BRANCH  21  22
ATOM     22  C   LIG    1        0.018  -0.009   0.004  0.00  0.00    +0.000 C 
BRANCH  22  23
ATOM     23  C   LIG    1       -1.416  -0.543   0.010  0.00  0.00    +0.300 C 
BRANCH  23  24
ATOM     24  N   LIG    1       -1.392  -2.008   0.005  0.00  0.00    -0.620 N 
ATOM     25  C   LIG    1       -1.392  -2.832  -1.209  0.00  0.00    +0.250 C 
ATOM     26  C   LIG    1       -0.924  -4.234  -0.754  0.00  0.00    +0.040 C 
ATOM     27  C   LIG    1       -1.342  -4.235   0.735  0.00  0.00    +0.050 C 
ATOM     28  C   LIG    1       -1.374  -2.770   1.112  0.00  0.00    +0.520 C 
ATOM     29  O   LIG    1       -1.382  -2.345   2.248  0.00  0.00    -0.530 OA
ENDBRANCH  23  24
ENDBRANCH  22  23
ENDBRANCH  21  22
ENDBRANCH  18  21
ENDBRANCH   7  17
TORSDOF 7
