REMARK  Name = ZINCvU00000006ZN.0
REMARK                            x       y       z     vdW  Elec       q    Type
REMARK                         _______ _______ _______ _____ _____    ______ ____
ROOT
ATOM      1  C   LIG    1        5.489  -1.688  -0.919  0.00  0.00    +0.490 C 
ATOM      2  O   LIG    1        6.272  -0.785  -0.740  0.00  0.00    -0.490 OA
ENDROOT
BRANCH   1   3
ATOM      3  C   LIG    1        4.040  -1.383  -1.201  0.00  0.00    +0.160 C 
BRANCH   3   4
ATOM      4  S   LIG    1        3.790   0.409  -1.205  0.00  0.00    +0.090 S 
BRANCH   4   6
ATOM      5  N   LIG    1        1.304   1.607  -1.671  0.00  0.00    -0.460 N 
ATOM      6  C   LIG    1        2.063   0.476  -1.548  0.00  0.00    +0.150 A 
ATOM      7  N   LIG    1        1.266  -0.550  -1.735  0.00  0.00    -0.280 NA
ATOM      8  N   LIG    1        0.068  -0.145  -1.964  0.00  0.00    -0.260 NA
ATOM      9  C   LIG    1        0.026   1.169  -1.939  0.00  0.00    +0.260 A 
BRANCH   9  10
ATOM     10  C   LIG    1       -1.160   2.011  -2.160  0.00  0.00    -0.140 A 
ATOM     11  C   LIG    1       -2.439   1.577  -2.147  0.00  0.00    +0.080 A 
ATOM     12  C   LIG    1       -3.381   2.557  -2.378  0.00  0.00    +0.010 A 
ATOM     13  C   LIG    1       -2.887   3.781  -2.588  0.00  0.00    -0.030 A 
ATOM     14  S   LIG    1       -1.131   3.739  -2.491  0.00  0.00    +0.130 S 
ENDBRANCH   9  10
BRANCH   5  16
ATOM     15  C   LIG    1        1.630   3.442  -0.087  0.00  0.00    +0.060 C 
ATOM     16  C   LIG    1        1.756   2.995  -1.545  0.00  0.00    +0.310 C 
ENDBRANCH   5  16
ENDBRANCH   4   6
ENDBRANCH   3   4
ENDBRANCH   1   3
BRANCH   1  17
ATOM     17  O   LIG    1        5.910  -2.961  -0.868  0.00  0.00    -0.340 OA
BRANCH  17  18
ATOM     18  C   LIG    1        7.319  -3.179  -0.592  0.00  0.00    +0.350 C 
BRANCH  18  19
ATOM     19  C   LIG    1        7.603  -4.659  -0.573  0.00  0.00    +0.090 A 
ATOM     20  C   LIG    1        6.659  -5.578  -0.780  0.00  0.00    -0.090 A 
ATOM     21  S   LIG    1        7.410  -7.168  -0.677  0.00  0.00    +0.150 S 
ATOM     22  C   LIG    1        8.924  -6.443  -0.354  0.00  0.00    +0.300 A 
ATOM     23  N   LIG    1        8.807  -5.152  -0.345  0.00  0.00    -0.530 NA
BRANCH  22  24
ATOM     24  N   LIG    1       10.106  -7.136  -0.136  0.00  0.00    -0.630 N 
ATOM     25  H   LIG    1       10.943  -6.652  -0.051  0.00  0.00    +0.420 HD
BRANCH  24  26
ATOM     26  C   LIG    1       10.091  -8.530  -0.038  0.00  0.00    +0.150 A 
ATOM     27  C   LIG    1        9.026  -9.173   0.581  0.00  0.00    -0.030 A 
ATOM     28  C   LIG    1        9.011 -10.551   0.670  0.00  0.00    +0.050 A 
ATOM     29  C   LIG    1       10.061 -11.290   0.157  0.00  0.00    -0.100 A 
ATOM     30  C   LIG    1       11.126 -10.652  -0.454  0.00  0.00    +0.040 A 
ATOM     31  C   LIG    1       10.045 -12.793   0.262  0.00  0.00    +0.090 C 
ATOM     32  C   LIG    1       11.144  -9.275  -0.553  0.00  0.00    -0.010 A 
ENDBRANCH  24  26
ENDBRANCH  22  24
ENDBRANCH  18  19
ENDBRANCH  17  18
ENDBRANCH   1  17
TORSDOF 10
