REMARK  Name = ZINCqH0000031EwO.0
REMARK                            x       y       z     vdW  Elec       q    Type
REMARK                         _______ _______ _______ _____ _____    ______ ____
ROOT
ATOM      1  N   LIG    1        2.405   1.103  -0.014  0.00  0.00    -0.670 N 
ATOM      2  H   LIG    1        3.235   1.598  -0.087  0.00  0.00    +0.410 HD
ATOM      3  C   LIG    1        2.428  -0.241   0.081  0.00  0.00    +0.520 C 
ATOM      4  O   LIG    1        1.389  -0.867   0.088  0.00  0.00    -0.490 OA
ENDROOT
BRANCH   1  12
ATOM      5  C   LIG    1       -1.979   5.719   1.120  0.00  0.00    +0.120 C 
ATOM      6  C   LIG    1       -2.956   4.832   0.393  0.00  0.00    +0.520 C 
ATOM      7  N   LIG    1       -2.551   3.644  -0.100  0.00  0.00    -0.550 N 
ATOM      8  C   LIG    1       -3.405   2.699  -0.823  0.00  0.00    +0.280 C 
ATOM      9  C   LIG    1       -2.490   1.514  -1.173  0.00  0.00    +0.100 C 
ATOM     10  C   LIG    1       -1.141   1.892  -0.602  0.00  0.00    -0.110 A 
ATOM     11  C   LIG    1        0.064   1.219  -0.609  0.00  0.00    +0.070 A 
ATOM     12  C   LIG    1        1.181   1.784  -0.007  0.00  0.00    +0.120 A 
ATOM     13  C   LIG    1        1.079   3.028   0.600  0.00  0.00    +0.030 A 
ATOM     14  C   LIG    1       -0.127   3.696   0.611  0.00  0.00    +0.000 A 
ATOM     15  C   LIG    1       -1.251   3.134   0.003  0.00  0.00    +0.130 A 
ATOM     16  O   LIG    1       -4.108   5.186   0.250  0.00  0.00    -0.520 OA
ENDBRANCH   1  12
BRANCH   3  17
ATOM     17  C   LIG    1        3.745  -0.967   0.179  0.00  0.00    +0.240 C 
BRANCH  17  18
ATOM     18  O   LIG    1        3.509  -2.373   0.269  0.00  0.00    -0.290 OA
BRANCH  18  19
ATOM     19  C   LIG    1        4.600  -3.178   0.365  0.00  0.00    +0.130 A 
ATOM     20  C   LIG    1        5.872  -2.625   0.372  0.00  0.00    -0.080 A 
ATOM     21  C   LIG    1        6.980  -3.445   0.469  0.00  0.00    +0.050 A 
ATOM     22  C   LIG    1        6.821  -4.815   0.559  0.00  0.00    -0.030 A 
ATOM     23  C   LIG    1        5.554  -5.369   0.552  0.00  0.00    +0.050 A 
ATOM     24  C   LIG    1        4.443  -4.553   0.462  0.00  0.00    -0.100 A 
BRANCH  24  25
ATOM     25  C   LIG    1        3.062  -5.157   0.461  0.00  0.00    +0.030 C 
ATOM     26  C   LIG    1        2.843  -5.927   1.765  0.00  0.00    +0.020 C 
ATOM     27  C   LIG    1        2.924  -6.112  -0.726  0.00  0.00    +0.020 C 
ENDBRANCH  24  25
ENDBRANCH  18  19
ENDBRANCH  17  18
ENDBRANCH   3  17
TORSDOF 5
