REMARK  Name = ZINCpk00000xI6j1.0
REMARK                            x       y       z     vdW  Elec       q    Type
REMARK                         _______ _______ _______ _____ _____    ______ ____
ROOT
ATOM      1  N   LIG    1       -2.146   1.256   2.174  0.00  0.00    -0.540 N 
ATOM      2  C   LIG    1       -2.211   2.474   2.747  0.00  0.00    +0.600 A 
ATOM      3  C   LIG    1       -1.701   3.591   2.059  0.00  0.00    -0.150 A 
ATOM      4  C   LIG    1       -1.135   3.407   0.799  0.00  0.00    +0.340 A 
ATOM      5  N   LIG    1       -1.100   2.130   0.262  0.00  0.00    -0.510 N 
ATOM      6  C   LIG    1       -0.513   1.910  -1.062  0.00  0.00    +0.350 C 
ATOM      7  N   LIG    1       -0.725   4.600   0.358  0.00  0.00    -0.500 NA
ATOM      8  C   LIG    1       -0.991   5.518   1.251  0.00  0.00    +0.510 A 
ATOM      9  N   LIG    1       -0.753   6.879   1.216  0.00  0.00    -0.420 N 
ATOM     10  N   LIG    1       -1.378   7.663   2.200  0.00  0.00    -0.220 NA
ATOM     11  C   LIG    1       -1.940   7.165   3.223  0.00  0.00    +0.090 C 
ATOM     12  C   LIG    1       -2.003   5.691   3.518  0.00  0.00    +0.270 C 
ATOM     13  C   LIG    1       -3.436   5.307   3.892  0.00  0.00    +0.080 C 
ATOM     14  C   LIG    1       -2.585   8.109   4.205  0.00  0.00    +0.170 C 
ATOM     15  N   LIG    1       -1.601   4.939   2.331  0.00  0.00    -0.450 N 
ATOM     16  O   LIG    1       -2.708   2.608   3.852  0.00  0.00    -0.510 OA
ATOM     17  C   LIG    1       -1.600   1.091   0.957  0.00  0.00    +0.710 A 
ATOM     18  O   LIG    1       -1.558  -0.023   0.471  0.00  0.00    -0.530 OA
ENDROOT
BRANCH   1  19
ATOM     19  C   LIG    1       -2.677   0.093   2.889  0.00  0.00    +0.360 C 
BRANCH  19  21
ATOM     20  C   LIG    1       -1.774  -0.691   5.018  0.00  0.00    +0.050 C 
ATOM     21  C   LIG    1       -1.588  -0.518   3.733  0.00  0.00    -0.070 C 
ENDBRANCH  19  21
ENDBRANCH   1  19
BRANCH   9  22
ATOM     22  C   LIG    1        0.114   7.478   0.198  0.00  0.00    +0.400 C 
BRANCH  22  23
ATOM     23  C   LIG    1       -0.713   7.857  -1.004  0.00  0.00    -0.160 C 
ATOM     24  C   LIG    1       -1.011   6.832  -2.067  0.00  0.00    +0.080 C 
ATOM     25  C   LIG    1       -1.171   9.079  -1.124  0.00  0.00    +0.040 C 
ENDBRANCH  22  23
ENDBRANCH   9  22
TORSDOF 4
