REMARK  Name = ZINCrH000004mRsR.0
REMARK                            x       y       z     vdW  Elec       q    Type
REMARK                         _______ _______ _______ _____ _____    ______ ____
ROOT
ATOM      1  C   LIG    1       -3.382   1.407   5.089  0.00  0.00    -0.290 A 
ATOM      2  C   LIG    1       -2.920   0.626   4.100  0.00  0.00    +0.060 A 
ATOM      3  C   LIG    1       -2.099   1.261   3.169  0.00  0.00    -0.240 A 
ATOM      4  C   LIG    1       -1.905   2.618   3.445  0.00  0.00    +0.100 A 
ATOM      5  N   LIG    1       -1.132   3.360   2.629  0.00  0.00    -0.510 NA
ATOM      6  C   LIG    1       -0.552   2.868   1.576  0.00  0.00    +0.430 A 
ATOM      7  C   LIG    1        0.295   3.754   0.690  0.00  0.00    +0.130 C 
ATOM      8  C   LIG    1       -0.461   4.030  -0.608  0.00  0.00    +0.040 C 
ATOM      9  C   LIG    1       -0.188   2.951  -1.642  0.00  0.00    +0.020 C 
ATOM     10  C   LIG    1       -0.724   1.596  -1.213  0.00  0.00    +0.020 C 
ATOM     11  C   LIG    1        0.010   1.081   0.023  0.00  0.00    +0.300 C 
ATOM     12  N   LIG    1       -0.682   1.556   1.228  0.00  0.00    -0.530 N 
ATOM     13  C   LIG    1       -1.427   0.718   1.969  0.00  0.00    +0.570 A 
ATOM     14  O   LIG    1       -1.546  -0.455   1.661  0.00  0.00    -0.500 OA
ATOM     15  C   LIG    1       -3.265  -0.837   4.002  0.00  0.00    +0.140 C 
ATOM     16  S   LIG    1       -2.789   3.049   4.904  0.00  0.00    +0.230 S 
ENDROOT
BRANCH   1  19
ATOM     17  N   LIG    1       -4.666   1.820   7.119  0.00  0.00    -0.670 N 
ATOM     18  H   LIG    1       -4.327   2.728   7.122  0.00  0.00    +0.410 HD
ATOM     19  C   LIG    1       -4.258   0.952   6.172  0.00  0.00    +0.600 C 
ATOM     20  O   LIG    1       -4.618  -0.210   6.216  0.00  0.00    -0.500 OA
BRANCH  17  24
ATOM     21  C   LIG    1       -7.385   0.600  10.034  0.00  0.00    +0.120 A 
ATOM     22  C   LIG    1       -6.437  -0.291   9.554  0.00  0.00    +0.010 A 
ATOM     23  C   LIG    1       -5.536   0.112   8.589  0.00  0.00    +0.070 A 
ATOM     24  C   LIG    1       -5.580   1.410   8.098  0.00  0.00    +0.110 A 
ATOM     25  C   LIG    1       -6.526   2.303   8.582  0.00  0.00    +0.030 A 
ATOM     26  C   LIG    1       -7.429   1.897   9.544  0.00  0.00    -0.060 A 
BRANCH  21  28
ATOM     27  C   LIG    1       -9.220   1.172  11.434  0.00  0.00    +0.250 C 
ATOM     28  O   LIG    1       -8.272   0.202  10.985  0.00  0.00    -0.320 OA
ENDBRANCH  21  28
ENDBRANCH  17  24
ENDBRANCH   1  19
TORSDOF 3
