REMARK  Name = ZINCpk000000oz0C.0
REMARK                            x       y       z     vdW  Elec       q    Type
REMARK                         _______ _______ _______ _____ _____    ______ ____
ROOT
ATOM      1  C   LIG    1       -4.893   0.121   2.672  0.00  0.00    +0.510 C 
ATOM      2  N   LIG    1       -6.023  -0.571   2.920  0.00  0.00    -0.680 N 
ATOM      3  H   LIG    1       -6.489  -1.015   2.194  0.00  0.00    +0.410 HD
ATOM      4  O   LIG    1       -4.262   0.600   3.590  0.00  0.00    -0.500 OA
ENDROOT
BRANCH   2   5
ATOM      5  C   LIG    1       -6.524  -0.648   4.224  0.00  0.00    +0.120 A 
ATOM      6  C   LIG    1       -5.652  -0.734   5.301  0.00  0.00    +0.090 A 
ATOM      7  C   LIG    1       -6.149  -0.805   6.587  0.00  0.00    +0.020 A 
ATOM      8  C   LIG    1       -7.515  -0.801   6.803  0.00  0.00    +0.010 A 
ATOM      9  C   LIG    1       -8.387  -0.721   5.733  0.00  0.00    -0.660 A 
ATOM     10  C   LIG    1       -8.055  -0.884   8.208  0.00  0.00    +0.110 C 
ATOM     11  C   LIG    1       -7.896  -0.644   4.444  0.00  0.00    +0.110 A 
BRANCH   9  12
ATOM     12  S   LIG    1      -10.127  -0.716   6.013  0.00  0.00    +2.710 S 
ATOM     13  O   LIG    1      -10.739  -0.661   4.732  0.00  0.00    -0.960 OA
ATOM     14  O   LIG    1      -10.367   0.245   7.031  0.00  0.00    -0.960 OA
BRANCH  12  15
ATOM     15  N   LIG    1      -10.523  -2.189   6.658  0.00  0.00    -1.250 NA
ATOM     16  H   LIG    1      -11.445  -2.387   6.885  0.00  0.00    +0.420 HD
ATOM     17  H   LIG    1       -9.833  -2.854   6.808  0.00  0.00    +0.420 HD
ENDBRANCH  12  15
ENDBRANCH   9  12
ENDBRANCH   2   5
BRANCH   1  18
ATOM     18  C   LIG    1       -4.414   0.298   1.254  0.00  0.00    +0.220 C 
BRANCH  18  19
ATOM     19  N   LIG    1       -3.246   1.188   1.240  0.00  0.00    -0.510 NA
BRANCH  19  21
ATOM     20  C   LIG    1       -4.537   3.087   0.390  0.00  0.00    -0.010 C 
ATOM     21  C   LIG    1       -3.638   2.576   1.518  0.00  0.00    +0.200 C 
ENDBRANCH  19  21
BRANCH  19  22
ATOM     22  C   LIG    1       -2.525   1.090  -0.036  0.00  0.00    +0.240 C 
BRANCH  22  23
ATOM     23  C   LIG    1       -1.210   1.819   0.072  0.00  0.00    -0.130 A 
ATOM     24  C   LIG    1       -1.126   3.166  -0.247  0.00  0.00    +0.060 A 
ATOM     25  C   LIG    1        0.105   3.794  -0.138  0.00  0.00    -0.030 A 
ATOM     26  C   LIG    1        1.199   3.064   0.288  0.00  0.00    +0.260 A 
ATOM     27  N   LIG    1        1.080   1.785   0.589  0.00  0.00    -0.490 NA
ATOM     28  C   LIG    1       -0.074   1.155   0.497  0.00  0.00    +0.270 A 
ENDBRANCH  22  23
ENDBRANCH  19  22
ENDBRANCH  18  19
ENDBRANCH   1  18
TORSDOF 8
