REMARK  Name = ZINCpe000000SyZ1.0
REMARK                            x       y       z     vdW  Elec       q    Type
REMARK                         _______ _______ _______ _____ _____    ______ ____
ROOT
ATOM      1  C   LIG    1        1.504   1.600  -0.157  0.00  0.00    +0.530 C 
ATOM      2  N   LIG    1        2.344   1.229  -1.144  0.00  0.00    -0.610 N 
ATOM      3  C   LIG    1        1.858   0.396  -2.251  0.00  0.00    +0.280 C 
ATOM      4  C   LIG    1        2.719  -0.874  -2.338  0.00  0.00    +0.320 C 
ATOM      5  N   LIG    1        4.126  -0.459  -2.241  0.00  0.00    -0.630 N 
ATOM      6  C   LIG    1        5.129  -0.742  -3.074  0.00  0.00    +0.710 C 
ATOM      7  N   LIG    1        6.251  -0.052  -2.820  0.00  0.00    -0.630 N 
ATOM      8  C   LIG    1        6.054   0.763  -1.610  0.00  0.00    +0.270 C 
ATOM      9  O   LIG    1        5.035  -1.549  -3.978  0.00  0.00    -0.580 OA
ATOM     10  C   LIG    1        4.632   0.403  -1.151  0.00  0.00    +0.210 C 
ATOM     11  C   LIG    1        3.749   1.663  -1.119  0.00  0.00    +0.300 C 
ATOM     12  O   LIG    1        1.879   2.371   0.701  0.00  0.00    -0.530 OA
ENDROOT
BRANCH   1  19
ATOM     13  C   LIG    1       -4.257   0.424  -2.002  0.00  0.00    +0.100 C 
ATOM     14  C   LIG    1       -2.793   0.763  -2.121  0.00  0.00    +0.520 C 
ATOM     15  N   LIG    1       -2.136   1.290  -1.069  0.00  0.00    -0.610 N 
ATOM     16  C   LIG    1       -2.799   1.430   0.235  0.00  0.00    +0.270 C 
ATOM     17  C   LIG    1       -1.935   0.755   1.304  0.00  0.00    +0.010 C 
ATOM     18  C   LIG    1       -0.520   1.336   1.252  0.00  0.00    +0.050 C 
ATOM     19  C   LIG    1        0.100   1.056  -0.119  0.00  0.00    -0.020 C 
ATOM     20  C   LIG    1       -0.741   1.735  -1.204  0.00  0.00    +0.300 C 
ATOM     21  O   LIG    1       -2.207   0.561  -3.163  0.00  0.00    -0.540 OA
ENDBRANCH   1  19
BRANCH   7  22
ATOM     22  C   LIG    1        7.477  -0.102  -3.620  0.00  0.00    +0.320 C 
BRANCH  22  23
ATOM     23  C   LIG    1        7.418   0.969  -4.711  0.00  0.00    -0.040 C 
ATOM     24  C   LIG    1        6.286   0.642  -5.686  0.00  0.00    +0.020 C 
ATOM     25  C   LIG    1        8.748   1.001  -5.466  0.00  0.00    +0.030 C 
ENDBRANCH  22  23
ENDBRANCH   7  22
TORSDOF 3
