REMARK  Name = ZINCqH00000023e4.0
REMARK                            x       y       z     vdW  Elec       q    Type
REMARK                         _______ _______ _______ _____ _____    ______ ____
ROOT
ATOM      1  N   LIG    1        0.452   3.390  -2.527  0.00  0.00    -0.710 N 
ATOM      2  H   LIG    1        0.274   3.232  -3.468  0.00  0.00    +0.410 HD
ATOM      3  C   LIG    1        1.636   3.904  -2.142  0.00  0.00    +0.600 C 
ATOM      4  O   LIG    1        1.859   4.101  -0.962  0.00  0.00    -0.520 OA
ENDROOT
BRANCH   1   7
ATOM      5  C   LIG    1       -2.044   2.641  -3.584  0.00  0.00    +0.060 C 
ATOM      6  C   LIG    1       -1.996   2.996  -2.097  0.00  0.00    -0.090 C 
ATOM      7  C   LIG    1       -0.568   3.069  -1.526  0.00  0.00    +0.260 C 
ATOM      8  C   LIG    1       -0.706   1.567  -1.245  0.00  0.00    -0.040 C 
ATOM      9  C   LIG    1       -0.013   1.086   0.008  0.00  0.00    +0.020 C 
ATOM     10  C   LIG    1       -0.685   1.557   1.286  0.00  0.00    +0.000 C 
ATOM     11  C   LIG    1       -2.198   1.394   1.196  0.00  0.00    +0.210 C 
ATOM     12  O   LIG    1       -2.686   2.196   0.120  0.00  0.00    -0.360 OA
ATOM     13  C   LIG    1       -2.862   4.207  -1.745  0.00  0.00    +0.050 C 
ATOM     14  C   LIG    1       -2.215   1.786  -1.165  0.00  0.00    +0.160 C 
ENDBRANCH   1   7
BRANCH   3  15
ATOM     15  C   LIG    1        2.657   4.225  -3.145  0.00  0.00    -0.080 A 
ATOM     16  C   LIG    1        3.891   4.752  -2.893  0.00  0.00    -0.090 A 
ATOM     17  C   LIG    1        4.531   4.892  -4.135  0.00  0.00    -0.040 A 
ATOM     18  C   LIG    1        3.667   4.457  -5.079  0.00  0.00    +0.220 A 
ATOM     19  O   LIG    1        2.539   4.056  -4.478  0.00  0.00    -0.160 OA
BRANCH  16  20
ATOM     20  C   LIG    1        4.457   5.113  -1.544  0.00  0.00    +0.310 C 
BRANCH  20  21
ATOM     21  O   LIG    1        5.777   5.636  -1.705  0.00  0.00    -0.310 OA
BRANCH  21  22
ATOM     22  C   LIG    1        6.434   6.012  -0.577  0.00  0.00    +0.130 A 
ATOM     23  C   LIG    1        5.819   5.885   0.660  0.00  0.00    -0.080 A 
ATOM     24  C   LIG    1        6.491   6.263   1.807  0.00  0.00    +0.050 A 
ATOM     25  C   LIG    1        7.771   6.777   1.721  0.00  0.00    -0.040 A 
ATOM     26  C   LIG    1        8.385   6.910   0.489  0.00  0.00    +0.050 A 
ATOM     27  C   LIG    1        7.719   6.528  -0.660  0.00  0.00    -0.020 A 
ENDBRANCH  21  22
ENDBRANCH  20  21
ENDBRANCH  16  20
ENDBRANCH   3  15
TORSDOF 5
