REMARK  Name = ZINCtV000002B57G.0
REMARK                            x       y       z     vdW  Elec       q    Type
REMARK                         _______ _______ _______ _____ _____    ______ ____
ROOT
ATOM      1  C   LIG    1       -1.114   1.556   0.029  0.00  0.00    +0.060 A 
ATOM      2  C   LIG    1        0.033   0.782   0.098  0.00  0.00    +0.060 A 
ATOM      3  C   LIG    1        1.273   1.388   0.179  0.00  0.00    +0.040 A 
ATOM      4  C   LIG    1        1.373   2.768   0.197  0.00  0.00    -0.010 A 
ATOM      5  C   LIG    1        0.232   3.548   0.135  0.00  0.00    +0.060 A 
ATOM      6 CL   LIG    1        2.933   3.522   0.298  0.00  0.00    -0.050 Cl
ATOM      7  C   LIG    1       -1.015   2.947   0.054  0.00  0.00    +0.160 A 
ENDROOT
BRANCH   7   8
ATOM      8  N   LIG    1       -2.171   3.734  -0.010  0.00  0.00    -0.660 N 
ATOM      9  H   LIG    1       -3.021   3.373   0.288  0.00  0.00    +0.420 HD
ATOM     10  C   LIG    1       -2.104   4.994  -0.484  0.00  0.00    +0.550 C 
ATOM     11  O   LIG    1       -1.063   5.411  -0.955  0.00  0.00    -0.490 OA
BRANCH  10  12
ATOM     12  C   LIG    1       -3.294   5.868  -0.431  0.00  0.00    -0.090 A 
ATOM     13  C   LIG    1       -4.491   5.391   0.104  0.00  0.00    +0.060 A 
ATOM     14  C   LIG    1       -5.598   6.214   0.155  0.00  0.00    +0.050 A 
ATOM     15  C   LIG    1       -5.525   7.506  -0.333  0.00  0.00    +0.050 A 
ATOM     16  C   LIG    1       -4.342   7.984  -0.869  0.00  0.00    +0.070 A 
ATOM     17  C   LIG    1       -3.227   7.174  -0.921  0.00  0.00    -0.130 A 
BRANCH  17  18
ATOM     18  C   LIG    1       -1.940   7.696  -1.506  0.00  0.00    +0.510 C 
ATOM     19  F   LIG    1       -1.571   6.906  -2.600  0.00  0.00    -0.160 F 
ATOM     20  F   LIG    1       -0.934   7.648  -0.536  0.00  0.00    -0.160 F 
ATOM     21  F   LIG    1       -2.122   9.018  -1.926  0.00  0.00    -0.180 F 
ENDBRANCH  17  18
ENDBRANCH  10  12
ENDBRANCH   7   8
BRANCH   1  22
ATOM     22  O   LIG    1       -2.334   0.962  -0.056  0.00  0.00    -0.250 OA
BRANCH  22  26
ATOM     23  C   LIG    1       -3.863   0.206  -3.814  0.00  0.00    +0.100 A 
ATOM     24  C   LIG    1       -4.540  -0.239  -2.688  0.00  0.00    +0.020 A 
ATOM     25  C   LIG    1       -4.028   0.014  -1.430  0.00  0.00    +0.040 A 
ATOM     26  C   LIG    1       -2.837   0.712  -1.294  0.00  0.00    +0.080 A 
ATOM     27  C   LIG    1       -2.163   1.161  -2.420  0.00  0.00    -0.020 A 
ATOM     28  C   LIG    1       -2.673   0.904  -3.678  0.00  0.00    -0.040 A 
BRANCH  23  30
ATOM     29  C   LIG    1       -3.618   0.443  -6.168  0.00  0.00    +0.250 C 
ATOM     30  O   LIG    1       -4.367  -0.043  -5.053  0.00  0.00    -0.320 OA
ENDBRANCH  23  30
ENDBRANCH  22  26
ENDBRANCH   1  22
TORSDOF 6
