REMARK  Name = ZINCrg000000q0Ag.0
REMARK                            x       y       z     vdW  Elec       q    Type
REMARK                         _______ _______ _______ _____ _____    ______ ____
ROOT
ATOM      1  C   LIG    1        6.832  -1.253  -1.298  0.00  0.00    +0.260 C 
ATOM      2  C   LIG    1        7.096   0.086  -1.990  0.00  0.00    +0.030 C 
ATOM      3  C   LIG    1        5.764   0.730  -2.385  0.00  0.00    +0.050 C 
ATOM      4  C   LIG    1        4.935   0.992  -1.124  0.00  0.00    +0.280 C 
ATOM      5  N   LIG    1        4.800  -0.265  -0.376  0.00  0.00    -0.610 N 
ATOM      6  C   LIG    1        3.584  -0.725  -0.020  0.00  0.00    +0.530 C 
ATOM      7  O   LIG    1        3.485  -1.764   0.597  0.00  0.00    -0.490 OA
ATOM      8  C   LIG    1        6.015  -1.010  -0.020  0.00  0.00    +0.310 C 
ENDROOT
BRANCH   6   9
ATOM      9  C   LIG    1        2.347   0.054  -0.388  0.00  0.00    +0.150 C 
ATOM     10  C   LIG    1        2.334   1.392   0.364  0.00  0.00    +0.250 C 
ATOM     11  O   LIG    1        1.143   2.098   0.002  0.00  0.00    -0.300 OA
ATOM     12  C   LIG    1       -0.017   1.386   0.010  0.00  0.00    +0.040 A 
ATOM     13  C   LIG    1       -1.229   2.059   0.019  0.00  0.00    +0.030 A 
ATOM     14  C   LIG    1       -2.415   1.349   0.026  0.00  0.00    +0.030 A 
ATOM     15  C   LIG    1       -2.397  -0.033   0.016  0.00  0.00    +0.030 A 
ATOM     16  C   LIG    1       -1.191  -0.710   0.004  0.00  0.00    +0.030 A 
ATOM     17  C   LIG    1        0.002  -0.004   0.002  0.00  0.00    +0.050 A 
ATOM     18  O   LIG    1        1.181  -0.685  -0.007  0.00  0.00    -0.280 OA
ENDBRANCH   6   9
BRANCH   1  21
ATOM     19  C   LIG    1       10.172  -2.224  -0.338  0.00  0.00    -0.090 A 
ATOM     20  C   LIG    1        9.234  -1.255  -0.559  0.00  0.00    +0.320 A 
ATOM     21  N   LIG    1        8.108  -1.883  -0.950  0.00  0.00    -0.350 N 
ATOM     22  N   LIG    1        8.390  -3.257  -0.953  0.00  0.00    -0.050 NA
ATOM     23  N   LIG    1        9.615  -3.420  -0.594  0.00  0.00    -0.180 NA
BRANCH  19  24
ATOM     24  C   LIG    1       11.559  -1.996   0.105  0.00  0.00    +0.560 C 
ATOM     25  O   LIG    1       11.954  -0.864   0.306  0.00  0.00    -0.500 OA
BRANCH  24  27
ATOM     26  C   LIG    1       13.741  -2.742   0.724  0.00  0.00    +0.290 C 
ATOM     27  O   LIG    1       12.389  -3.041   0.287  0.00  0.00    -0.340 OA
ENDBRANCH  24  27
ENDBRANCH  19  24
ENDBRANCH   1  21
TORSDOF 4
