REMARK  Name = ZINCqH0000002a3M.0
REMARK                            x       y       z     vdW  Elec       q    Type
REMARK                         _______ _______ _______ _____ _____    ______ ____
ROOT
ATOM      1  C   LIG    1       -5.093   2.508   0.808  0.00  0.00    +0.560 C 
ATOM      2  N   LIG    1       -4.191   1.654   0.286  0.00  0.00    -0.720 N 
ATOM      3  H   LIG    1       -4.443   0.735   0.102  0.00  0.00    +0.400 HD
ATOM      4  O   LIG    1       -4.777   3.660   1.038  0.00  0.00    -0.530 OA
ENDROOT
BRANCH   1  11
ATOM      5  C   LIG    1      -11.015  -0.237   1.862  0.00  0.00    +0.520 C 
ATOM      6  N   LIG    1      -10.380   0.943   2.001  0.00  0.00    -0.550 N 
ATOM      7  C   LIG    1      -10.987   2.164   2.536  0.00  0.00    +0.280 C 
ATOM      8  C   LIG    1       -9.873   3.222   2.492  0.00  0.00    +0.110 C 
ATOM      9  C   LIG    1       -8.680   2.493   1.914  0.00  0.00    -0.140 A 
ATOM     10  C   LIG    1       -7.401   2.927   1.648  0.00  0.00    +0.130 A 
ATOM     11  C   LIG    1       -6.464   2.046   1.101  0.00  0.00    -0.160 A 
ATOM     12  C   LIG    1       -6.832   0.724   0.839  0.00  0.00    +0.080 A 
ATOM     13  C   LIG    1       -8.109   0.298   1.113  0.00  0.00    -0.020 A 
ATOM     14  C   LIG    1       -9.050   1.179   1.655  0.00  0.00    +0.180 A 
ATOM     15  O   LIG    1      -12.178  -0.343   2.192  0.00  0.00    -0.510 OA
BRANCH   5  17
ATOM     16  C   LIG    1      -11.224  -2.630   1.245  0.00  0.00    +0.050 C 
ATOM     17  C   LIG    1      -10.282  -1.426   1.296  0.00  0.00    +0.050 C 
ENDBRANCH   5  17
ENDBRANCH   1  11
BRANCH   2  18
ATOM     18  C   LIG    1       -2.830   2.112  -0.005  0.00  0.00    +0.290 C 
ATOM     19  C   LIG    1       -2.228   1.237  -1.102  0.00  0.00    +0.020 C 
ATOM     20  C   LIG    1       -0.741   1.587  -1.238  0.00  0.00    +0.030 C 
ATOM     21  C   LIG    1       -0.013   1.086   0.008  0.00  0.00    +0.080 C 
ATOM     22  C   LIG    1       -0.707   1.566   1.255  0.00  0.00    -0.070 A 
ATOM     23  C   LIG    1        0.004   1.527   2.447  0.00  0.00    -0.010 A 
ATOM     24  C   LIG    1       -0.578   1.948   3.625  0.00  0.00    +0.010 A 
ATOM     25  C   LIG    1       -1.879   2.414   3.620  0.00  0.00    -0.010 A 
ATOM     26  C   LIG    1       -2.585   2.456   2.438  0.00  0.00    +0.020 A 
ATOM     27  C   LIG    1       -2.002   2.034   1.250  0.00  0.00    -0.100 A 
ENDBRANCH   2  18
TORSDOF 3
