REMARK  Name = ZINCpe00000gN3xq.0
REMARK                            x       y       z     vdW  Elec       q    Type
REMARK                         _______ _______ _______ _____ _____    ______ ____
ROOT
ATOM      1  C   LIG    1        1.130   4.484   0.510  0.00  0.00    +0.520 C 
ATOM      2  N   LIG    1        0.634   3.599   1.398  0.00  0.00    -0.610 N 
ATOM      3  C   LIG    1        1.464   3.104   2.505  0.00  0.00    +0.260 C 
ATOM      4  C   LIG    1        1.457   1.572   2.480  0.00  0.00    +0.010 C 
ATOM      5  C   LIG    1        0.011   1.073   2.507  0.00  0.00    +0.040 C 
ATOM      6  C   LIG    1       -0.729   1.579   1.267  0.00  0.00    -0.030 C 
ATOM      7  C   LIG    1       -0.746   3.111   1.278  0.00  0.00    +0.310 C 
ATOM      8  O   LIG    1        0.434   4.884  -0.399  0.00  0.00    -0.500 OA
ENDROOT
BRANCH   6   9
ATOM      9  C   LIG    1       -2.143   1.059   1.277  0.00  0.00    -0.080 A 
ATOM     10  C   LIG    1       -2.574   0.248   2.311  0.00  0.00    +0.000 A 
ATOM     11  C   LIG    1       -3.873  -0.225   2.323  0.00  0.00    -0.010 A 
ATOM     12  C   LIG    1       -4.738   0.105   1.296  0.00  0.00    +0.000 A 
ATOM     13  C   LIG    1       -4.306   0.911   0.260  0.00  0.00    +0.000 A 
ATOM     14  C   LIG    1       -3.008   1.389   0.251  0.00  0.00    +0.050 A 
ENDBRANCH   6   9
BRANCH   1  15
ATOM     15  C   LIG    1        2.548   4.975   0.647  0.00  0.00    +0.220 C 
BRANCH  15  16
ATOM     16  O   LIG    1        2.836   5.897  -0.405  0.00  0.00    -0.350 OA
BRANCH  16  17
ATOM     17  C   LIG    1        4.163   6.426  -0.367  0.00  0.00    +0.310 C 
BRANCH  17  23
ATOM     18  C   LIG    1        5.201   5.733  -3.213  0.00  0.00    +0.370 C 
ATOM     19  N   LIG    1        4.807   7.063  -2.741  0.00  0.00    -0.370 N 
ATOM     20  N   LIG    1        4.822   8.257  -3.480  0.00  0.00    -0.310 NA
ATOM     21  C   LIG    1        4.401   9.201  -2.681  0.00  0.00    +0.420 A 
ATOM     22  N   LIG    1        4.120   8.669  -1.492  0.00  0.00    -0.520 NA
ATOM     23  C   LIG    1        4.356   7.382  -1.516  0.00  0.00    +0.280 A 
ENDBRANCH  17  23
ENDBRANCH  16  17
ENDBRANCH  15  16
ENDBRANCH   1  15
BRANCH   6  24
ATOM     24  C   LIG    1       -0.013   1.086   0.008  0.00  0.00    +0.190 C 
BRANCH  24  25
ATOM     25  O   LIG    1       -0.704   1.559  -1.150  0.00  0.00    -0.560 OA
ATOM     26  H   LIG    1       -0.304   1.284  -1.986  0.00  0.00    +0.380 HD
ENDBRANCH  24  25
ENDBRANCH   6  24
TORSDOF 7
