REMARK  Name = ZINCpe000000YT8k.0
REMARK                            x       y       z     vdW  Elec       q    Type
REMARK                         _______ _______ _______ _____ _____    ______ ____
ROOT
ATOM      1  O   LIG    1        0.002  -0.004   0.002  0.00  0.00    -0.520 OA
ATOM      2  C   LIG    1       -0.014   1.209   0.009  0.00  0.00    +0.500 C 
ATOM      3  N   LIG    1        1.143   1.898   0.001  0.00  0.00    -0.720 N 
ATOM      4  H   LIG    1        1.130   2.868   0.007  0.00  0.00    +0.400 HD
ENDROOT
BRANCH   3   5
ATOM      5  C   LIG    1        2.422   1.183  -0.015  0.00  0.00    +0.290 C 
ATOM      6  C   LIG    1        3.494   2.081  -0.629  0.00  0.00    +0.020 C 
ATOM      7  C   LIG    1        4.857   1.405  -0.441  0.00  0.00    +0.030 C 
ATOM      8  C   LIG    1        5.215   1.450   1.044  0.00  0.00    +0.080 C 
ATOM      9  C   LIG    1        4.079   0.920   1.879  0.00  0.00    -0.070 A 
ATOM     10  C   LIG    1        4.357   0.544   3.186  0.00  0.00    -0.010 A 
ATOM     11  C   LIG    1        3.359   0.056   4.003  0.00  0.00    +0.010 A 
ATOM     12  C   LIG    1        2.070  -0.060   3.518  0.00  0.00    -0.010 A 
ATOM     13  C   LIG    1        1.791   0.311   2.218  0.00  0.00    +0.020 A 
ATOM     14  C   LIG    1        2.795   0.801   1.394  0.00  0.00    -0.100 A 
ENDBRANCH   3   5
BRANCH   2  15
ATOM     15  C   LIG    1       -1.330   1.944   0.019  0.00  0.00    +0.360 C 
BRANCH  15  16
ATOM     16  N   LIG    1       -2.430   0.977   0.019  0.00  0.00    -0.560 N 
ATOM     17  C   LIG    1       -3.005   0.490  -1.089  0.00  0.00    +0.710 C 
ATOM     18  N   LIG    1       -3.993  -0.387  -0.812  0.00  0.00    -0.710 N 
ATOM     19  H   LIG    1       -4.544  -0.864  -1.451  0.00  0.00    +0.440 HD
ATOM     20  C   LIG    1       -4.066  -0.466   0.645  0.00  0.00    +0.090 C 
ATOM     21  C   LIG    1       -5.451  -0.065   1.168  0.00  0.00    +0.050 C 
ATOM     22  C   LIG    1       -5.927  -1.319   1.940  0.00  0.00    +0.220 C 
ATOM     23  O   LIG    1       -4.713  -2.015   2.301  0.00  0.00    -0.360 OA
ATOM     24  C   LIG    1       -3.844  -1.897   1.150  0.00  0.00    +0.260 C 
ATOM     25  O   LIG    1       -2.672   0.801  -2.216  0.00  0.00    -0.530 OA
ATOM     26  C   LIG    1       -2.996   0.469   1.136  0.00  0.00    +0.540 C 
ATOM     27  O   LIG    1       -2.703   0.715   2.287  0.00  0.00    -0.440 OA
ENDBRANCH  15  16
ENDBRANCH   2  15
TORSDOF 3
