REMARK  Name = ZINCrD000000fIpF.0
REMARK                            x       y       z     vdW  Elec       q    Type
REMARK                         _______ _______ _______ _____ _____    ______ ____
ROOT
ATOM      1  C   LIG    1        2.644   2.720  -5.325  0.00  0.00    +0.160 A 
ATOM      2  C   LIG    1        2.522   2.004  -6.508  0.00  0.00    +0.010 A 
ATOM      3  C   LIG    1        1.603   0.968  -6.604  0.00  0.00    +0.160 A 
ATOM      4  C   LIG    1        0.804   0.645  -5.518  0.00  0.00    +0.010 A 
ATOM      5  C   LIG    1        0.925   1.362  -4.328  0.00  0.00    -0.090 A 
ATOM      6  C   LIG    1        1.845   2.406  -4.237  0.00  0.00    +0.060 A 
ENDROOT
BRANCH   1   9
ATOM      7  C   LIG    1        5.095   5.213  -3.930  0.00  0.00    +0.110 C 
ATOM      8  C   LIG    1        4.187   4.018  -4.061  0.00  0.00    +0.510 C 
ATOM      9  N   LIG    1        3.572   3.764  -5.233  0.00  0.00    -0.670 N 
ATOM     10  H   LIG    1        3.772   4.306  -6.013  0.00  0.00    +0.410 HD
ATOM     11  O   LIG    1        4.011   3.283  -3.112  0.00  0.00    -0.520 OA
ENDBRANCH   1   9
BRANCH   3  12
ATOM     12  N   LIG    1        1.483   0.249  -7.799  0.00  0.00    -0.670 N 
ATOM     13  H   LIG    1        0.620  -0.101  -8.070  0.00  0.00    +0.410 HD
ATOM     14  C   LIG    1        2.567   0.041  -8.572  0.00  0.00    +0.510 C 
ATOM     15  O   LIG    1        3.661   0.402  -8.193  0.00  0.00    -0.520 OA
ATOM     16  C   LIG    1        2.420  -0.640  -9.909  0.00  0.00    +0.110 C 
ENDBRANCH   3  12
BRANCH   5  17
ATOM     17  C   LIG    1        0.075   1.020  -3.167  0.00  0.00    +0.570 C 
ATOM     18  N   LIG    1       -0.145  -0.271  -2.850  0.00  0.00    -0.600 N 
ATOM     19  C   LIG    1        0.380  -1.336  -3.708  0.00  0.00    +0.290 C 
ATOM     20  O   LIG    1       -0.426   1.904  -2.499  0.00  0.00    -0.530 OA
BRANCH  18  21
ATOM     21  C   LIG    1       -0.910  -0.610  -1.647  0.00  0.00    +0.300 C 
ATOM     22  C   LIG    1       -2.168  -1.421  -2.022  0.00  0.00    +0.030 C 
ATOM     23  C   LIG    1       -2.309  -2.393  -0.831  0.00  0.00    +0.090 C 
ATOM     24  C   LIG    1       -0.905  -2.546  -0.280  0.00  0.00    -0.090 A 
ATOM     25  C   LIG    1       -0.373  -3.507   0.563  0.00  0.00    +0.010 A 
ATOM     26  C   LIG    1        0.956  -3.447   0.935  0.00  0.00    +0.020 A 
ATOM     27  C   LIG    1        1.758  -2.425   0.465  0.00  0.00    +0.000 A 
ATOM     28  C   LIG    1        1.230  -1.465  -0.377  0.00  0.00    +0.030 A 
ATOM     29  C   LIG    1       -0.102  -1.524  -0.751  0.00  0.00    -0.110 A 
ENDBRANCH  18  21
ENDBRANCH   5  17
TORSDOF 4
