REMARK  Name = ZINCpe00000VPM78.0
REMARK                            x       y       z     vdW  Elec       q    Type
REMARK                         _______ _______ _______ _____ _____    ______ ____
ROOT
ATOM      1  N   LIG    1       -2.016  -4.493  -0.129  0.00  0.00    -0.730 N 
ATOM      2  H   LIG    1       -1.099  -4.805  -0.066  0.00  0.00    +0.400 HD
ATOM      3  C   LIG    1       -3.025  -5.381  -0.225  0.00  0.00    +0.700 C 
ATOM      4  N   LIG    1       -2.761  -6.703  -0.235  0.00  0.00    -0.650 N 
ATOM      5  H   LIG    1       -1.844  -7.015  -0.172  0.00  0.00    +0.420 HD
ATOM      6  O   LIG    1       -4.173  -4.991  -0.304  0.00  0.00    -0.520 OA
ENDROOT
BRANCH   4   7
ATOM      7  C   LIG    1       -3.800  -7.618  -0.335  0.00  0.00    +0.600 A 
ATOM      8  N   LIG    1       -5.045  -7.175  -0.414  0.00  0.00    -0.520 NA
ATOM      9  C   LIG    1       -6.062  -8.018  -0.516  0.00  0.00    +0.390 A 
ATOM     10  C   LIG    1       -5.814  -9.377  -0.528  0.00  0.00    -0.110 A 
ATOM     11  C   LIG    1       -4.493  -9.813  -0.437  0.00  0.00    +0.400 A 
ATOM     12  N   LIG    1       -3.522  -8.913  -0.343  0.00  0.00    -0.610 NA
BRANCH  11  13
ATOM     13  O   LIG    1       -4.204 -11.137  -0.444  0.00  0.00    -0.280 OA
BRANCH  13  14
ATOM     14  C   LIG    1       -2.826 -11.501  -0.347  0.00  0.00    +0.180 C 
ATOM     15  C   LIG    1       -2.224 -11.599  -1.750  0.00  0.00    +0.090 C 
BRANCH  14  16
ATOM     16  C   LIG    1       -2.704 -12.855   0.356  0.00  0.00    +0.460 C 
ATOM     17  F   LIG    1       -3.254 -12.765   1.639  0.00  0.00    -0.170 F 
ATOM     18  F   LIG    1       -1.355 -13.211   0.451  0.00  0.00    -0.170 F 
ATOM     19  F   LIG    1       -3.392 -13.825  -0.380  0.00  0.00    -0.170 F 
ENDBRANCH  14  16
ENDBRANCH  13  14
ENDBRANCH  11  13
ENDBRANCH   4   7
BRANCH   1  20
ATOM     20  C   LIG    1       -2.303  -3.057  -0.118  0.00  0.00    +0.270 C 
BRANCH  20  21
ATOM     21  C   LIG    1       -0.993  -2.276  -0.001  0.00  0.00    +0.230 C 
BRANCH  21  22
ATOM     22  O   LIG    1       -0.329  -2.638   1.212  0.00  0.00    -0.540 OA
ATOM     23  H   LIG    1       -0.843  -2.455   2.011  0.00  0.00    +0.380 HD
ENDBRANCH  21  22
BRANCH  21  24
ATOM     24  C   LIG    1       -1.293  -0.775   0.010  0.00  0.00    +0.090 C 
BRANCH  24  25
ATOM     25  C   LIG    1        0.002  -0.004   0.002  0.00  0.00    +0.460 C 
ATOM     26  O   LIG    1        1.056  -0.594  -0.011  0.00  0.00    -0.490 OA
BRANCH  25  28
ATOM     27  C   LIG    1        1.268   2.015   0.001  0.00  0.00    +0.260 C 
ATOM     28  O   LIG    1       -0.016   1.338   0.009  0.00  0.00    -0.360 OA
ENDBRANCH  25  28
ENDBRANCH  24  25
ENDBRANCH  21  24
ENDBRANCH  20  21
ENDBRANCH   1  20
TORSDOF 10
