REMARK  Name = ZINCvU0000000B3C.0
REMARK                            x       y       z     vdW  Elec       q    Type
REMARK                         _______ _______ _______ _____ _____    ______ ____
ROOT
ATOM      1  C   LIG    1       -3.302   2.496   0.030  0.00  0.00    +0.290 A 
ATOM      2  N   LIG    1       -2.535   3.547   0.045  0.00  0.00    -0.480 NA
ATOM      3  C   LIG    1       -1.233   3.162   0.031  0.00  0.00    +0.050 A 
ATOM      4  C   LIG    1       -0.022   3.859   0.023  0.00  0.00    +0.060 A 
ATOM      5  C   LIG    1        1.159   3.172   0.008  0.00  0.00    +0.000 A 
ATOM      6  C   LIG    1        1.170   1.785   0.001  0.00  0.00    +0.030 A 
ATOM      7  C   LIG    1       -0.013   1.076   0.008  0.00  0.00    +0.020 A 
ATOM      8  C   LIG    1       -1.222   1.757   0.017  0.00  0.00    +0.050 A 
ATOM      9  N   LIG    1       -2.546   1.365   0.021  0.00  0.00    -0.480 N 
ENDROOT
BRANCH   1  12
ATOM     10  N   LIG    1       -6.536   4.071  -0.582  0.00  0.00    -0.580 N 
ATOM     11  C   LIG    1       -5.349   3.395  -1.120  0.00  0.00    +0.300 C 
ATOM     12  C   LIG    1       -4.809   2.527   0.037  0.00  0.00    +0.090 C 
ATOM     13  C   LIG    1       -5.341   3.284   1.275  0.00  0.00    +0.090 C 
ATOM     14  C   LIG    1       -6.554   4.029   0.762  0.00  0.00    +0.530 C 
ATOM     15  O   LIG    1       -7.417   4.517   1.460  0.00  0.00    -0.510 OA
BRANCH  10  21
ATOM     16  C   LIG    1      -10.784   3.758  -3.037  0.00  0.00    +0.090 C 
ATOM     17  C   LIG    1       -9.591   4.552  -2.570  0.00  0.00    -0.080 A 
ATOM     18  C   LIG    1       -9.470   5.885  -2.917  0.00  0.00    +0.020 A 
ATOM     19  C   LIG    1       -8.378   6.618  -2.490  0.00  0.00    +0.020 A 
ATOM     20  C   LIG    1       -7.403   6.019  -1.716  0.00  0.00    +0.020 A 
ATOM     21  C   LIG    1       -7.521   4.680  -1.366  0.00  0.00    +0.140 A 
ATOM     22  C   LIG    1       -8.617   3.946  -1.801  0.00  0.00    -0.080 A 
ATOM     23  C   LIG    1       -8.745   2.491  -1.430  0.00  0.00    +0.090 C 
ENDBRANCH  10  21
ENDBRANCH   1  12
BRANCH   9  24
ATOM     24  C   LIG    1       -3.044  -0.013   0.016  0.00  0.00    +0.360 C 
BRANCH  24  25
ATOM     25  C   LIG    1       -3.209  -0.493   1.435  0.00  0.00    -0.160 A 
ATOM     26  C   LIG    1       -4.460  -0.496   2.022  0.00  0.00    +0.060 A 
ATOM     27  C   LIG    1       -4.612  -0.936   3.324  0.00  0.00    +0.010 A 
ATOM     28  C   LIG    1       -3.513  -1.373   4.040  0.00  0.00    +0.060 A 
ATOM     29  C   LIG    1       -2.261  -1.371   3.454  0.00  0.00    -0.010 A 
ATOM     30  C   LIG    1       -2.108  -0.936   2.148  0.00  0.00    +0.120 A 
ATOM     31  F   LIG    1       -0.886  -0.938   1.573  0.00  0.00    -0.130 F 
ENDBRANCH  24  25
ENDBRANCH   9  24
TORSDOF 4
