REMARK  Name = ZINCvU0000000I4b.0
REMARK                            x       y       z     vdW  Elec       q    Type
REMARK                         _______ _______ _______ _____ _____    ______ ____
ROOT
ATOM      1  N   LIG    1        9.969   1.405  -1.885  0.00  0.00    -0.450 N 
ATOM      2  C   LIG    1       10.227   2.251  -0.843  0.00  0.00    +0.180 A 
ATOM      3  N   LIG    1       10.639   1.522   0.156  0.00  0.00    -0.250 NA
ATOM      4  N   LIG    1       10.662   0.283  -0.183  0.00  0.00    -0.290 NA
ATOM      5  C   LIG    1       10.264   0.153  -1.427  0.00  0.00    +0.160 A 
ENDROOT
BRANCH   1   6
ATOM      6  C   LIG    1        9.480   1.766  -3.218  0.00  0.00    +0.350 C 
BRANCH   6   8
ATOM      7  C   LIG    1       10.766   1.389  -5.259  0.00  0.00    +0.070 C 
ATOM      8  C   LIG    1       10.651   2.037  -4.127  0.00  0.00    -0.070 C 
ENDBRANCH   6   8
ENDBRANCH   1   6
BRANCH   2   9
ATOM      9  C   LIG    1       10.061   3.749  -0.847  0.00  0.00    +0.350 C 
BRANCH   9  10
ATOM     10  O   LIG    1       11.280   4.363  -1.270  0.00  0.00    -0.300 OA
BRANCH  10  11
ATOM     11  C   LIG    1       11.300   5.721  -1.329  0.00  0.00    +0.100 A 
ATOM     12  C   LIG    1       10.170   6.447  -0.987  0.00  0.00    -0.040 A 
ATOM     13  C   LIG    1       10.190   7.827  -1.053  0.00  0.00    +0.050 A 
ATOM     14  C   LIG    1       11.338   8.486  -1.449  0.00  0.00    +0.020 A 
ATOM     15  C   LIG    1       12.468   7.765  -1.792  0.00  0.00    +0.030 A 
ATOM     16  C   LIG    1       12.452   6.383  -1.732  0.00  0.00    +0.070 A 
ATOM     17  F   LIG    1       13.556   5.679  -2.066  0.00  0.00    -0.130 F 
ENDBRANCH  10  11
ENDBRANCH   9  10
ENDBRANCH   2   9
BRANCH   5  18
ATOM     18  S   LIG    1       10.128  -1.353  -2.332  0.00  0.00    +0.030 S 
BRANCH  18  19
ATOM     19  C   LIG    1       10.677  -2.529  -1.070  0.00  0.00    +0.150 C 
BRANCH  19  20
ATOM     20  C   LIG    1       10.643  -3.925  -1.635  0.00  0.00    -0.010 C 
ATOM     21  C   LIG    1       11.780  -4.536  -1.975  0.00  0.00    -0.080 C 
BRANCH  20  22
ATOM     22  C   LIG    1        9.324  -4.632  -1.817  0.00  0.00    -0.030 C 
ATOM     23  C   LIG    1        9.214  -5.143  -3.255  0.00  0.00    +0.050 C 
ATOM     24  C   LIG    1        8.179  -3.658  -1.533  0.00  0.00    +0.030 C 
ATOM     25  C   LIG    1        9.241  -5.813  -0.849  0.00  0.00    +0.040 C 
ENDBRANCH  20  22
BRANCH  21  26
ATOM     26  C   LIG    1       11.763  -5.941  -2.378  0.00  0.00    +0.370 C 
ATOM     27  O   LIG    1       10.711  -6.544  -2.433  0.00  0.00    -0.420 OA
BRANCH  26  28
ATOM     28  C   LIG    1       13.051  -6.641  -2.727  0.00  0.00    -0.110 C 
ATOM     29  C   LIG    1       13.989  -6.615  -1.518  0.00  0.00    +0.050 C 
ATOM     30  C   LIG    1       13.717  -5.927  -3.904  0.00  0.00    +0.050 C 
ATOM     31  C   LIG    1       12.756  -8.092  -3.111  0.00  0.00    +0.050 C 
ENDBRANCH  26  28
ENDBRANCH  21  26
ENDBRANCH  19  20
ENDBRANCH  18  19
ENDBRANCH   5  18
TORSDOF 11
