REMARK  Name = ZINCrH000004mMCH.0
REMARK                            x       y       z     vdW  Elec       q    Type
REMARK                         _______ _______ _______ _____ _____    ______ ____
ROOT
ATOM      1  N   LIG    1        0.311   8.348  -0.326  0.00  0.00    -0.560 N 
ATOM      2  C   LIG    1        1.469   7.673  -0.185  0.00  0.00    +0.570 C 
ATOM      3  O   LIG    1        2.522   8.277  -0.116  0.00  0.00    -0.520 OA
ENDROOT
BRANCH   1   7
ATOM      4  C   LIG    1        0.363  12.489  -0.824  0.00  0.00    +0.090 A 
ATOM      5  C   LIG    1        0.992  11.914   0.269  0.00  0.00    -0.030 A 
ATOM      6  C   LIG    1        0.976  10.543   0.435  0.00  0.00    +0.070 A 
ATOM      7  C   LIG    1        0.328   9.739  -0.494  0.00  0.00    +0.140 A 
ATOM      8  C   LIG    1       -0.297  10.313  -1.593  0.00  0.00    +0.030 A 
ATOM      9  C   LIG    1       -0.286  11.686  -1.754  0.00  0.00    +0.080 A 
ATOM     10  F   LIG    1       -0.899  12.246  -2.820  0.00  0.00    -0.130 F 
BRANCH   4  12
ATOM     11  C   LIG    1        1.064  14.603   0.009  0.00  0.00    +0.250 C 
ATOM     12  O   LIG    1        0.380  13.839  -0.986  0.00  0.00    -0.310 OA
ENDBRANCH   4  12
ENDBRANCH   1   7
BRANCH   2  13
ATOM     13  C   LIG    1        1.459   6.199  -0.115  0.00  0.00    -0.180 A 
ATOM     14  C   LIG    1        2.664   5.492  -0.076  0.00  0.00    +0.120 A 
ATOM     15  C   LIG    1        2.651   4.117  -0.011  0.00  0.00    -0.030 A 
ATOM     16  C   LIG    1        1.440   3.431   0.016  0.00  0.00    +0.150 A 
ATOM     17  C   LIG    1        0.238   4.133  -0.027  0.00  0.00    -0.060 A 
ATOM     18  C   LIG    1        0.244   5.508  -0.087  0.00  0.00    +0.090 A 
BRANCH  16  19
ATOM     19  N   LIG    1        1.431   2.042   0.082  0.00  0.00    -0.490 N 
ATOM     20  C   LIG    1        0.054   1.525   0.101  0.00  0.00    +0.170 C 
ATOM     21  C   LIG    1        0.090  -0.005   0.112  0.00  0.00    +0.230 C 
ATOM     22  O   LIG    1        0.852  -0.451   1.238  0.00  0.00    -0.380 OA
ATOM     23  C   LIG    1        2.197   0.034   1.251  0.00  0.00    +0.230 C 
ATOM     24  C   LIG    1        2.183   1.565   1.251  0.00  0.00    +0.180 C 
ENDBRANCH  16  19
ENDBRANCH   2  13
BRANCH   1  25
ATOM     25  C   LIG    1       -0.964   7.629  -0.303  0.00  0.00    +0.220 C 
ATOM     26  C   LIG    1       -1.104   6.797  -1.579  0.00  0.00    +0.040 C 
ATOM     27  C   LIG    1       -2.115   8.634  -0.221  0.00  0.00    +0.050 C 
ENDBRANCH   1  25
TORSDOF 5
