REMARK  Name = ZINCqH0000051aOe.0
REMARK                            x       y       z     vdW  Elec       q    Type
REMARK                         _______ _______ _______ _____ _____    ______ ____
ROOT
ATOM      1  C   LIG    1       -7.669   0.154   0.038  0.00  0.00    +0.510 C 
ATOM      2  O   LIG    1       -7.164  -0.950   0.047  0.00  0.00    -0.480 OA
ENDROOT
BRANCH   1   6
ATOM      3  O   LIG    1      -12.122  -1.611  -0.131  0.00  0.00    -0.520 OA
ATOM      4  C   LIG    1      -11.402  -0.632  -0.042  0.00  0.00    +0.540 A 
ATOM      5  C   LIG    1       -9.951  -0.803  -0.059  0.00  0.00    +0.060 A 
ATOM      6  C   LIG    1       -9.145   0.295   0.046  0.00  0.00    -0.030 A 
ATOM      7  C   LIG    1       -9.774   1.620   0.161  0.00  0.00    -0.120 A 
ATOM      8  C   LIG    1       -8.992   2.774   0.265  0.00  0.00    +0.100 A 
ATOM      9  C   LIG    1       -9.594   3.995   0.371  0.00  0.00    -0.010 A 
ATOM     10  C   LIG    1      -10.978   4.101   0.376  0.00  0.00    +0.070 A 
ATOM     11  C   LIG    1      -11.768   2.977   0.274  0.00  0.00    -0.020 A 
ATOM     12  C   LIG    1      -11.176   1.721   0.165  0.00  0.00    +0.180 A 
ATOM     13  N   LIG    1      -11.955   0.589   0.063  0.00  0.00    -0.630 N 
ATOM     14  H   LIG    1      -12.921   0.674   0.068  0.00  0.00    +0.420 HD
ENDBRANCH   1   6
BRANCH   1  15
ATOM     15  O   LIG    1       -6.888   1.252   0.021  0.00  0.00    -0.330 OA
BRANCH  15  16
ATOM     16  C   LIG    1       -5.452   1.039   0.015  0.00  0.00    +0.260 C 
BRANCH  16  17
ATOM     17  C   LIG    1       -4.747   2.371  -0.004  0.00  0.00    +0.440 C 
ATOM     18  O   LIG    1       -5.392   3.399  -0.011  0.00  0.00    -0.410 OA
BRANCH  17  19
ATOM     19  C   LIG    1       -3.331   2.423  -0.014  0.00  0.00    -0.070 A 
ATOM     20  C   LIG    1       -2.585   3.562  -0.019  0.00  0.00    +0.090 A 
ATOM     21  C   LIG    1       -1.225   3.163  -0.030  0.00  0.00    -0.150 A 
ATOM     22  C   LIG    1       -0.012   3.861  -0.051  0.00  0.00    +0.080 A 
ATOM     23  C   LIG    1        1.167   3.171  -0.056  0.00  0.00    +0.000 A 
ATOM     24  C   LIG    1        1.171   1.782  -0.041  0.00  0.00    +0.070 A 
ATOM     25  C   LIG    1       -0.013   1.076  -0.020  0.00  0.00    +0.020 A 
ATOM     26  C   LIG    1       -1.224   1.756  -0.020  0.00  0.00    +0.080 A 
ATOM     27  O   LIG    1       -2.510   1.349  -0.007  0.00  0.00    -0.170 OA
ENDBRANCH  17  19
ENDBRANCH  16  17
ENDBRANCH  15  16
ENDBRANCH   1  15
TORSDOF 5
