REMARK  Name = ZINCtV00001bB3UU.0
REMARK                            x       y       z     vdW  Elec       q    Type
REMARK                         _______ _______ _______ _____ _____    ______ ____
ROOT
ATOM      1  C   LIG    1        4.082   7.366   0.003  0.00  0.00    +0.100 A 
ATOM      2  C   LIG    1        3.941   5.992   0.002  0.00  0.00    -0.010 A 
ATOM      3  C   LIG    1        2.663   5.423   0.006  0.00  0.00    -0.070 A 
ATOM      4  C   LIG    1        1.535   6.249   0.021  0.00  0.00    +0.040 A 
ATOM      5  C   LIG    1        1.684   7.619   0.027  0.00  0.00    -0.040 A 
ATOM      6  C   LIG    1        2.952   8.183   0.017  0.00  0.00    +0.120 A 
ENDROOT
BRANCH   1   8
ATOM      7  C   LIG    1        6.435   7.026  -0.021  0.00  0.00    +0.240 C 
ATOM      8  O   LIG    1        5.323   7.922  -0.006  0.00  0.00    -0.300 OA
ENDBRANCH   1   8
BRANCH   3   9
ATOM      9  C   LIG    1        2.506   3.960  -0.001  0.00  0.00    +0.060 C 
ATOM     10  C   LIG    1        1.275   3.414   0.008  0.00  0.00    +0.060 C 
BRANCH  10  11
ATOM     11  C   LIG    1        1.119   1.957   0.002  0.00  0.00    +0.150 A 
ATOM     12  N   LIG    1       -0.016   1.333   0.009  0.00  0.00    -0.460 NA
ATOM     13  C   LIG    1        0.002  -0.004   0.002  0.00  0.00    +0.080 A 
ATOM     14  C   LIG    1       -1.088  -0.903   0.007  0.00  0.00    +0.080 A 
ATOM     15  C   LIG    1       -0.876  -2.247  -0.002  0.00  0.00    -0.070 A 
ATOM     16  C   LIG    1        0.412  -2.764  -0.018  0.00  0.00    -0.060 A 
ATOM     17  C   LIG    1        1.495  -1.913  -0.023  0.00  0.00    +0.060 A 
ATOM     18  C   LIG    1        0.625  -4.255  -0.029  0.00  0.00    +0.110 C 
ATOM     19  C   LIG    1       -2.055  -3.187   0.004  0.00  0.00    +0.110 C 
ATOM     20  C   LIG    1        1.299  -0.534  -0.013  0.00  0.00    -0.170 A 
ATOM     21  S   LIG    1        2.446   0.803  -0.017  0.00  0.00    +0.060 S 
ENDBRANCH  10  11
ENDBRANCH   3   9
BRANCH   6  22
ATOM     22  O   LIG    1        3.093   9.534   0.023  0.00  0.00    -0.290 OA
BRANCH  22  23
ATOM     23  C   LIG    1        1.894  10.312   0.038  0.00  0.00    +0.240 C 
BRANCH  23  24
ATOM     24  C   LIG    1        2.245  11.777   0.042  0.00  0.00    -0.100 A 
ATOM     25  C   LIG    1        2.413  12.444   1.241  0.00  0.00    +0.030 A 
ATOM     26  C   LIG    1        2.740  13.788   1.245  0.00  0.00    +0.010 A 
ATOM     27  C   LIG    1        2.889  14.466   0.050  0.00  0.00    +0.010 A 
ATOM     28  C   LIG    1        2.717  13.800  -1.149  0.00  0.00    +0.010 A 
ATOM     29  C   LIG    1        2.395  12.455  -1.153  0.00  0.00    +0.030 A 
ENDBRANCH  23  24
ENDBRANCH  22  23
ENDBRANCH   6  22
TORSDOF 6
