REMARK  Name = ZINCpe000027pHqa.0
REMARK                            x       y       z     vdW  Elec       q    Type
REMARK                         _______ _______ _______ _____ _____    ______ ____
ROOT
ATOM      1  C   LIG    1       -1.630   7.673   0.872  0.00  0.00    +0.160 C 
ATOM      2  C   LIG    1       -2.350   6.389   0.384  0.00  0.00    +0.060 C 
ATOM      3  C   LIG    1       -1.287   5.292   0.600  0.00  0.00    +0.220 C 
ATOM      4  N   LIG    1        0.025   5.956   0.633  0.00  0.00    -0.610 N 
ATOM      5  C   LIG    1        1.210   5.344   0.823  0.00  0.00    +0.590 C 
ATOM      6  O   LIG    1        2.223   6.005   0.948  0.00  0.00    -0.530 OA
ATOM      7  C   LIG    1       -0.172   7.401   0.422  0.00  0.00    +0.260 C 
ENDROOT
BRANCH   5   8
ATOM      8  C   LIG    1        1.280   3.871   0.880  0.00  0.00    -0.280 A 
ATOM      9  C   LIG    1        2.500   3.208   0.682  0.00  0.00    +0.170 A 
ATOM     10  C   LIG    1        2.519   1.841   0.750  0.00  0.00    -0.110 A 
ATOM     11  C   LIG    1        1.334   1.152   0.999  0.00  0.00    +0.420 A 
ATOM     12  N   LIG    1        0.192   1.803   1.178  0.00  0.00    -0.530 NA
ATOM     13  C   LIG    1        0.131   3.117   1.126  0.00  0.00    +0.360 A 
BRANCH  11  14
ATOM     14  N   LIG    1        1.348  -0.231   1.062  0.00  0.00    -0.610 N 
ATOM     15  C   LIG    1        0.092  -0.970   1.214  0.00  0.00    +0.290 C 
ATOM     16  C   LIG    1        2.619  -0.955   0.976  0.00  0.00    +0.290 C 
ENDBRANCH  11  14
ENDBRANCH   5   8
BRANCH   1  18
ATOM     17  C   LIG    1       -1.960  10.045   0.958  0.00  0.00    +0.220 C 
ATOM     18  O   LIG    1       -2.157   8.834   0.227  0.00  0.00    -0.370 OA
ENDBRANCH   1  18
BRANCH   3  19
ATOM     19  C   LIG    1       -1.333   4.287  -0.553  0.00  0.00    +0.310 C 
BRANCH  19  20
ATOM     20  N   LIG    1       -2.556   3.487  -0.455  0.00  0.00    -0.370 N 
ATOM     21  C   LIG    1       -3.479   3.328  -1.427  0.00  0.00    +0.250 A 
ATOM     22  C   LIG    1       -4.454   2.523  -0.946  0.00  0.00    -0.170 A 
ATOM     23  C   LIG    1       -4.109   2.168   0.368  0.00  0.00    +0.340 A 
ATOM     24  N   LIG    1       -2.970   2.749   0.661  0.00  0.00    -0.340 NA
BRANCH  23  25
ATOM     25  N   LIG    1       -4.852   1.340   1.218  0.00  0.00    -0.850 N 
ATOM     26  H   LIG    1       -4.532   1.152   2.114  0.00  0.00    +0.400 HD
ATOM     27  H   LIG    1       -5.688   0.954   0.911  0.00  0.00    +0.410 HD
ENDBRANCH  23  25
ENDBRANCH  19  20
ENDBRANCH   3  19
TORSDOF 6
