REMARK  Name = ZINCpe00000gNinm.0
REMARK                            x       y       z     vdW  Elec       q    Type
REMARK                         _______ _______ _______ _____ _____    ______ ____
ROOT
ATOM      1  C   LIG    1        3.064   1.106  -0.462  0.00  0.00    -0.140 A 
ATOM      2  C   LIG    1        1.994   2.003  -0.450  0.00  0.00    +0.160 A 
ATOM      3  C   LIG    1        0.706   1.533  -0.308  0.00  0.00    +0.020 A 
ATOM      4  C   LIG    1        0.472   0.174  -0.177  0.00  0.00    +0.080 A 
ATOM      5  C   LIG    1        1.529  -0.721  -0.189  0.00  0.00    -0.690 A 
ATOM      6 CL   LIG    1       -1.153  -0.410   0.000  0.00  0.00    -0.020 Cl
ATOM      7  C   LIG    1        2.822  -0.263  -0.331  0.00  0.00    +0.230 A 
ENDROOT
BRANCH   5   8
ATOM      8  S   LIG    1        1.221  -2.448  -0.023  0.00  0.00    +2.690 S 
ATOM      9  O   LIG    1        0.304  -2.591   1.052  0.00  0.00    -0.930 OA
ATOM     10  O   LIG    1        2.490  -3.087  -0.052  0.00  0.00    -0.940 OA
BRANCH   8  11
ATOM     11  N   LIG    1        0.421  -2.937  -1.388  0.00  0.00    -0.990 NA
ATOM     12  C   LIG    1       -1.044  -3.073  -1.399  0.00  0.00    +0.270 C 
ATOM     13  C   LIG    1       -1.587  -2.309  -2.618  0.00  0.00    +0.210 C 
ATOM     14  O   LIG    1       -0.900  -2.751  -3.792  0.00  0.00    -0.370 OA
ATOM     15  C   LIG    1        0.504  -2.486  -3.782  0.00  0.00    +0.220 C 
ATOM     16  C   LIG    1        1.154  -3.253  -2.624  0.00  0.00    +0.280 C 
ENDBRANCH   8  11
ENDBRANCH   5   8
BRANCH   1  18
ATOM     17  O   LIG    1        5.375   0.820  -0.625  0.00  0.00    -0.470 OA
ATOM     18  C   LIG    1        4.446   1.603  -0.615  0.00  0.00    +0.510 C 
BRANCH  18  19
ATOM     19  O   LIG    1        4.677   2.924  -0.741  0.00  0.00    -0.330 OA
BRANCH  19  20
ATOM     20  C   LIG    1        6.060   3.341  -0.887  0.00  0.00    +0.160 C 
ATOM     21  C   LIG    1        6.246   4.782  -0.362  0.00  0.00    +0.080 C 
ATOM     22  C   LIG    1        7.087   5.431  -1.484  0.00  0.00    +0.270 C 
ATOM     23  O   LIG    1        6.743   4.674  -2.682  0.00  0.00    -0.330 OA
ATOM     24  C   LIG    1        6.438   3.411  -2.351  0.00  0.00    +0.470 C 
ATOM     25  O   LIG    1        6.461   2.470  -3.108  0.00  0.00    -0.420 OA
ENDBRANCH  19  20
ENDBRANCH  18  19
ENDBRANCH   1  18
TORSDOF 5
