REMARK  Name = ZINCvU0000000GYh.0
REMARK                            x       y       z     vdW  Elec       q    Type
REMARK                         _______ _______ _______ _____ _____    ______ ____
ROOT
ATOM      1  C   LIG    1       -1.608  -1.392   0.278  0.00  0.00    +0.180 C 
ATOM      2  C   LIG    1       -2.682  -0.344   0.416  0.00  0.00    +0.140 A 
ATOM      3  N   LIG    1       -3.965  -0.566   0.487  0.00  0.00    -0.280 NA
ATOM      4  N   LIG    1       -4.634   0.656   0.609  0.00  0.00    -0.310 N 
ATOM      5  C   LIG    1       -3.723   1.644   0.618  0.00  0.00    +0.180 A 
ATOM      6  C   LIG    1       -4.006   3.120   0.737  0.00  0.00    +0.180 C 
ATOM      7  C   LIG    1       -2.474   1.055   0.492  0.00  0.00    -0.320 A 
ENDROOT
BRANCH   4   8
ATOM      8  C   LIG    1       -6.021   0.823   0.712  0.00  0.00    +0.140 A 
ATOM      9  C   LIG    1       -6.646   1.876   0.058  0.00  0.00    +0.050 A 
ATOM     10  C   LIG    1       -8.014   2.037   0.161  0.00  0.00    +0.050 A 
ATOM     11  C   LIG    1       -8.761   1.150   0.914  0.00  0.00    +0.080 A 
ATOM     12  C   LIG    1       -8.142   0.100   1.567  0.00  0.00    -0.170 A 
ATOM     13  C   LIG    1       -6.775  -0.069   1.464  0.00  0.00    +0.100 A 
BRANCH  12  14
ATOM     14  C   LIG    1       -8.960  -0.865   2.387  0.00  0.00    +0.510 C 
ATOM     15  F   LIG    1       -8.519  -0.839   3.714  0.00  0.00    -0.170 F 
ATOM     16  F   LIG    1       -8.812  -2.157   1.871  0.00  0.00    -0.170 F 
ATOM     17  F   LIG    1      -10.308  -0.494   2.335  0.00  0.00    -0.170 F 
ENDBRANCH  12  14
ENDBRANCH   4   8
BRANCH   7  18
ATOM     18  C   LIG    1       -1.181   1.749   0.452  0.00  0.00    +0.440 C 
ATOM     19  O   LIG    1       -1.142   2.963   0.472  0.00  0.00    -0.430 OA
BRANCH  18  20
ATOM     20  C   LIG    1        0.087   0.963   0.387  0.00  0.00    +0.510 C 
ATOM     21  N   LIG    1        0.746   0.652   1.520  0.00  0.00    -0.600 N 
ATOM     22  C   LIG    1        0.286   1.185   2.805  0.00  0.00    +0.290 C 
ATOM     23  O   LIG    1        0.527   0.609  -0.688  0.00  0.00    -0.500 OA
BRANCH  21  24
ATOM     24  C   LIG    1        1.922  -0.220   1.468  0.00  0.00    +0.350 C 
BRANCH  24  25
ATOM     25  C   LIG    1        3.160   0.618   1.277  0.00  0.00    -0.100 A 
ATOM     26  C   LIG    1        3.610   0.905   0.002  0.00  0.00    +0.050 A 
ATOM     27  C   LIG    1        4.743   1.678  -0.173  0.00  0.00    +0.020 A 
ATOM     28  C   LIG    1        5.432   2.155   0.925  0.00  0.00    +0.030 A 
ATOM     29  C   LIG    1        4.985   1.863   2.202  0.00  0.00    -0.040 A 
ATOM     30 CL   LIG    1        5.850   2.461   3.583  0.00  0.00    -0.070 Cl
ATOM     31  C   LIG    1        3.849   1.094   2.377  0.00  0.00    +0.030 A 
ENDBRANCH  24  25
ENDBRANCH  21  24
ENDBRANCH  18  20
ENDBRANCH   7  18
TORSDOF 6
