REMARK  Name = ZINCpe000000WBh1.1
REMARK                            x       y       z     vdW  Elec       q    Type
REMARK                         _______ _______ _______ _____ _____    ______ ____
ROOT
ATOM      1  N   LIG    1        0.041   3.810   1.465  0.00  0.00    -0.470 N 
ATOM      2  C   LIG    1        1.264   2.998   1.423  0.00  0.00    +0.220 C 
ATOM      3  C   LIG    1        1.240   2.108   0.176  0.00  0.00    +0.290 C 
ATOM      4  N   LIG    1       -0.015   1.342   0.172  0.00  0.00    -0.610 N 
ATOM      5  C   LIG    1       -1.278   2.076   0.341  0.00  0.00    +0.290 C 
ATOM      6  C   LIG    1       -0.008   0.004   0.012  0.00  0.00    +0.520 C 
ATOM      7  O   LIG    1        1.032  -0.573  -0.225  0.00  0.00    -0.530 OA
ATOM      8  C   LIG    1       -1.155   2.966   1.588  0.00  0.00    +0.200 C 
ENDROOT
BRANCH   1  13
ATOM      9  C   LIG    1       -0.897   6.541   3.723  0.00  0.00    +0.190 A 
ATOM     10  C   LIG    1        0.251   6.566   4.515  0.00  0.00    -0.150 A 
ATOM     11  C   LIG    1        1.269   5.675   4.254  0.00  0.00    +0.320 A 
ATOM     12  N   LIG    1        1.171   4.803   3.267  0.00  0.00    -0.540 NA
ATOM     13  C   LIG    1        0.098   4.746   2.491  0.00  0.00    +0.340 A 
ATOM     14  C   LIG    1       -0.966   5.615   2.690  0.00  0.00    -0.080 A 
BRANCH   9  16
ATOM     15  C   LIG    1       -1.759   8.327   5.033  0.00  0.00    +0.250 C 
ATOM     16  O   LIG    1       -1.919   7.405   3.953  0.00  0.00    -0.310 OA
ENDBRANCH   9  16
ENDBRANCH   1  13
BRANCH   6  17
ATOM     17  C   LIG    1       -1.293  -0.775   0.127  0.00  0.00    +0.260 C 
BRANCH  17  18
ATOM     18  N   LIG    1       -1.012  -2.103   0.679  0.00  0.00    -0.730 N 
ATOM     19  H   LIG    1       -0.131  -2.495   0.574  0.00  0.00    +0.410 HD
ATOM     20  C   LIG    1       -1.976  -2.779   1.334  0.00  0.00    +0.710 C 
ATOM     21  O   LIG    1       -3.080  -2.287   1.466  0.00  0.00    -0.590 OA
ATOM     22  N   LIG    1       -1.717  -4.000   1.842  0.00  0.00    -0.870 N 
ATOM     23  H   LIG    1       -2.412  -4.486   2.313  0.00  0.00    +0.420 HD
ATOM     24  H   LIG    1       -0.837  -4.392   1.737  0.00  0.00    +0.400 HD
ENDBRANCH  17  18
BRANCH  17  25
ATOM     25  C   LIG    1       -1.926  -0.923  -1.258  0.00  0.00    -0.070 C 
ATOM     26  C   LIG    1       -2.100   0.460  -1.889  0.00  0.00    +0.030 C 
ATOM     27  C   LIG    1       -3.292  -1.599  -1.126  0.00  0.00    +0.040 C 
ATOM     28  C   LIG    1       -1.018  -1.778  -2.145  0.00  0.00    +0.040 C 
ENDBRANCH  17  25
ENDBRANCH   6  17
TORSDOF 5
