REMARK  Name = ZINCpk000005Jauf.0
REMARK                            x       y       z     vdW  Elec       q    Type
REMARK                         _______ _______ _______ _____ _____    ______ ____
ROOT
ATOM      1  C   LIG    1        4.072   5.643   0.878  0.00  0.00    +0.230 C 
ATOM      2  C   LIG    1        5.221   5.900  -0.100  0.00  0.00    +0.060 C 
ENDROOT
BRANCH   1   3
ATOM      3  N   LIG    1        2.927   5.089   0.151  0.00  0.00    -0.610 N 
ATOM      4  C   LIG    1        2.446   3.873   0.479  0.00  0.00    +0.500 C 
ATOM      5  O   LIG    1        2.960   3.239   1.375  0.00  0.00    -0.520 OA
ATOM      6  C   LIG    1        2.306   5.856  -0.931  0.00  0.00    +0.290 C 
BRANCH   4   7
ATOM      7  C   LIG    1        1.268   3.303  -0.269  0.00  0.00    +0.230 C 
ATOM      8  C   LIG    1       -0.027   3.817   0.360  0.00  0.00    +0.040 C 
ATOM      9  C   LIG    1       -1.208   3.061  -0.260  0.00  0.00    +0.050 C 
ATOM     10  C   LIG    1       -1.135   1.598   0.181  0.00  0.00    +0.070 C 
ATOM     11  C   LIG    1        0.254   1.068  -0.030  0.00  0.00    +0.520 C 
ATOM     12  O   LIG    1        0.413  -0.135  -0.041  0.00  0.00    -0.540 OA
ATOM     13  N   LIG    1        1.320   1.847  -0.212  0.00  0.00    -0.590 N 
ATOM     14  C   LIG    1        2.626   1.201  -0.363  0.00  0.00    +0.290 C 
ENDBRANCH   4   7
ENDBRANCH   1   3
BRANCH   1  15
ATOM     15  C   LIG    1        3.664   6.959   1.544  0.00  0.00    +0.280 C 
BRANCH  15  17
ATOM     16  C   LIG    1        1.950   7.761   3.078  0.00  0.00    +0.610 C 
ATOM     17  N   LIG    1        2.489   6.736   2.389  0.00  0.00    -0.720 N 
ATOM     18  H   LIG    1        2.098   5.850   2.452  0.00  0.00    +0.400 HD
ATOM     19  O   LIG    1        2.439   8.872   2.998  0.00  0.00    -0.520 OA
BRANCH  16  24
ATOM     20  C   LIG    1       -1.853   5.461   5.386  0.00  0.00    +0.180 C 
ATOM     21  C   LIG    1       -0.895   6.535   4.938  0.00  0.00    +0.030 A 
ATOM     22  C   LIG    1       -0.934   7.832   5.316  0.00  0.00    -0.060 A 
ATOM     23  C   LIG    1        0.130   8.482   4.671  0.00  0.00    -0.070 A 
ATOM     24  C   LIG    1        0.772   7.537   3.924  0.00  0.00    -0.100 A 
ATOM     25  C   LIG    1        0.493   9.940   4.782  0.00  0.00    +0.140 C 
ATOM     26  O   LIG    1        0.131   6.362   4.095  0.00  0.00    -0.160 OA
ENDBRANCH  16  24
ENDBRANCH  15  17
ENDBRANCH   1  15
TORSDOF 5
