REMARK  Name = ZINCrg000000tcNU.0
REMARK                            x       y       z     vdW  Elec       q    Type
REMARK                         _______ _______ _______ _____ _____    ______ ____
ROOT
ATOM      1  N   LIG    1        4.683   5.380  -4.352  0.00  0.00    -0.520 NA
ATOM      2  C   LIG    1        4.812   6.056  -3.054  0.00  0.00    +0.190 C 
ATOM      3  C   LIG    1        4.686   5.026  -1.930  0.00  0.00    +0.190 C 
ATOM      4  N   LIG    1        3.389   4.343  -2.038  0.00  0.00    -0.530 NA
ATOM      5  C   LIG    1        3.259   3.667  -3.337  0.00  0.00    +0.190 C 
ATOM      6  C   LIG    1        3.386   4.698  -4.461  0.00  0.00    +0.200 C 
ENDROOT
BRANCH   1   7
ATOM      7  C   LIG    1        4.874   6.326  -5.460  0.00  0.00    +0.280 C 
BRANCH   7  12
ATOM      8  O   LIG    1        5.422   6.255 -10.131  0.00  0.00    -0.510 OA
ATOM      9  C   LIG    1        5.260   5.636  -9.095  0.00  0.00    +0.550 A 
ATOM     10  N   LIG    1        5.155   6.271  -7.905  0.00  0.00    -0.650 N 
ATOM     11  H   LIG    1        5.208   7.239  -7.871  0.00  0.00    +0.420 HD
ATOM     12  C   LIG    1        4.980   5.566  -6.757  0.00  0.00    +0.390 A 
ATOM     13  N   LIG    1        4.893   4.271  -6.721  0.00  0.00    -0.490 NA
ATOM     14  C   LIG    1        4.979   3.521  -7.848  0.00  0.00    +0.150 A 
ATOM     15  C   LIG    1        4.886   2.128  -7.809  0.00  0.00    +0.030 A 
ATOM     16  C   LIG    1        4.978   1.406  -8.978  0.00  0.00    +0.060 A 
ATOM     17  C   LIG    1        5.163   2.046 -10.197  0.00  0.00    -0.010 A 
ATOM     18  C   LIG    1        5.258   3.419 -10.260  0.00  0.00    +0.100 A 
ATOM     19  C   LIG    1        5.167   4.168  -9.089  0.00  0.00    -0.200 A 
ENDBRANCH   7  12
ENDBRANCH   1   7
BRANCH   4  20
ATOM     20  C   LIG    1        3.197   3.397  -0.931  0.00  0.00    +0.200 C 
BRANCH  20  21
ATOM     21  C   LIG    1        1.774   2.902  -0.933  0.00  0.00    +0.520 C 
ATOM     22  N   LIG    1        1.366   2.019  -0.000  0.00  0.00    -0.620 N 
ATOM     23  C   LIG    1       -0.019   1.528   0.010  0.00  0.00    +0.270 C 
ATOM     24  C   LIG    1        0.002  -0.004   0.002  0.00  0.00    +0.010 C 
ATOM     25  C   LIG    1        0.856  -0.505   1.169  0.00  0.00    +0.020 C 
ATOM     26  C   LIG    1        2.292  -0.002   1.006  0.00  0.00    +0.010 C 
ATOM     27  C   LIG    1        2.297   1.530   1.025  0.00  0.00    +0.260 C 
ATOM     28  O   LIG    1        0.995   3.298  -1.775  0.00  0.00    -0.520 OA
ENDBRANCH  20  21
ENDBRANCH   4  20
TORSDOF 4
