REMARK  Name = ZINCpk00000y6vGd.0
REMARK                            x       y       z     vdW  Elec       q    Type
REMARK                         _______ _______ _______ _____ _____    ______ ____
ROOT
ATOM      1  C   LIG    1       -2.819   1.602  -0.015  0.00  0.00    +0.270 C 
ATOM      2  C   LIG    1       -2.097   1.094   1.236  0.00  0.00    +0.200 C 
ATOM      3  N   LIG    1       -0.703   1.561   1.216  0.00  0.00    -0.500 NA
ATOM      4  C   LIG    1       -0.013   1.086   0.008  0.00  0.00    +0.150 C 
ATOM      5  C   LIG    1       -0.755   1.594  -1.231  0.00  0.00    +0.240 C 
ATOM      6  O   LIG    1       -2.115   1.157  -1.178  0.00  0.00    -0.360 OA
ENDROOT
BRANCH   3   7
ATOM      7  C   LIG    1        0.012   1.142   2.429  0.00  0.00    +0.190 C 
ATOM      8  C   LIG    1        1.410   1.800   2.489  0.00  0.00    +0.080 C 
ATOM      9  C   LIG    1        2.264   0.671   3.108  0.00  0.00    +0.270 C 
ATOM     10  N   LIG    1        1.571  -0.576   2.766  0.00  0.00    -0.560 N 
ATOM     11  C   LIG    1        0.299  -0.343   2.389  0.00  0.00    +0.490 C 
ATOM     12  O   LIG    1       -0.499  -1.196   2.062  0.00  0.00    -0.490 OA
BRANCH  10  13
ATOM     13  C   LIG    1        2.155  -1.846   2.827  0.00  0.00    +0.160 A 
ATOM     14  C   LIG    1        3.477  -1.985   3.227  0.00  0.00    -0.040 A 
ATOM     15  C   LIG    1        4.050  -3.241   3.291  0.00  0.00    +0.040 A 
ATOM     16  C   LIG    1        3.310  -4.357   2.947  0.00  0.00    -0.020 A 
ATOM     17  C   LIG    1        1.995  -4.222   2.544  0.00  0.00    +0.040 A 
ATOM     18  C   LIG    1        1.415  -2.970   2.483  0.00  0.00    -0.010 A 
ENDBRANCH  10  13
ENDBRANCH   3   7
BRANCH   1  23
ATOM     19  N   LIG    1       -5.356   1.752   0.241  0.00  0.00    -0.470 N 
ATOM     20  C   LIG    1       -6.378   0.875   0.092  0.00  0.00    +0.380 A 
ATOM     21  N   LIG    1       -5.858  -0.272  -0.251  0.00  0.00    -0.300 NA
ATOM     22  N   LIG    1       -4.579  -0.162  -0.329  0.00  0.00    -0.260 NA
ATOM     23  C   LIG    1       -4.225   1.061  -0.039  0.00  0.00    +0.170 A 
BRANCH  19  25
ATOM     24  C   LIG    1       -5.482   4.033  -0.634  0.00  0.00    +0.050 C 
ATOM     25  C   LIG    1       -5.455   3.163   0.624  0.00  0.00    +0.300 C 
ENDBRANCH  19  25
ENDBRANCH   1  23
TORSDOF 4
