REMARK  Name = ZINCpk00000xI9nt.0
REMARK                            x       y       z     vdW  Elec       q    Type
REMARK                         _______ _______ _______ _____ _____    ______ ____
ROOT
ATOM      1  N   LIG    1        0.636  -2.675  -0.017  0.00  0.00    -0.550 N 
ATOM      2  C   LIG    1        1.641  -1.776  -0.022  0.00  0.00    +0.600 A 
ATOM      3  C   LIG    1        1.337  -0.405  -0.013  0.00  0.00    -0.190 A 
ATOM      4  C   LIG    1        0.002  -0.004   0.002  0.00  0.00    +0.370 A 
ATOM      5  N   LIG    1       -0.986  -0.977   0.007  0.00  0.00    -0.510 N 
ATOM      6  C   LIG    1       -2.398  -0.586   0.023  0.00  0.00    +0.340 C 
ATOM      7  N   LIG    1       -0.016   1.326   0.009  0.00  0.00    -0.510 NA
ATOM      8  C   LIG    1        1.224   1.795   0.000  0.00  0.00    +0.440 A 
ATOM      9  N   LIG    1        1.960   2.950  -0.001  0.00  0.00    -0.450 N 
ATOM     10  C   LIG    1        3.297   2.600  -0.015  0.00  0.00    +0.070 A 
ATOM     11  C   LIG    1        4.461   3.556  -0.021  0.00  0.00    +0.190 C 
ATOM     12  C   LIG    1        3.378   1.272  -0.023  0.00  0.00    +0.170 A 
ATOM     13  N   LIG    1        2.093   0.758  -0.014  0.00  0.00    -0.350 N 
ATOM     14  O   LIG    1        2.801  -2.149  -0.035  0.00  0.00    -0.500 OA
ATOM     15  C   LIG    1       -0.648  -2.280  -0.003  0.00  0.00    +0.710 A 
ATOM     16  O   LIG    1       -1.527  -3.120   0.001  0.00  0.00    -0.540 OA
ENDROOT
BRANCH   9  17
ATOM     17  C   LIG    1        1.426   4.314   0.012  0.00  0.00    +0.260 C 
ATOM     18  C   LIG    1        1.899   5.059  -1.238  0.00  0.00    +0.050 C 
BRANCH  17  19
ATOM     19  C   LIG    1        1.923   5.045   1.260  0.00  0.00    +0.030 C 
ATOM     20  C   LIG    1        1.348   4.373   2.509  0.00  0.00    +0.020 C 
ENDBRANCH  17  19
ENDBRANCH   9  17
BRANCH   1  21
ATOM     21  C   LIG    1        0.950  -4.106  -0.027  0.00  0.00    +0.350 C 
BRANCH  21  22
ATOM     22  C   LIG    1        1.045  -4.598  -1.473  0.00  0.00    +0.180 C 
BRANCH  22  23
ATOM     23  O   LIG    1        2.150  -3.964  -2.119  0.00  0.00    -0.380 OA
BRANCH  23  25
ATOM     24  C   LIG    1        3.534  -3.619  -4.071  0.00  0.00    +0.040 C 
ATOM     25  C   LIG    1        2.329  -4.355  -3.482  0.00  0.00    +0.150 C 
ENDBRANCH  23  25
ENDBRANCH  22  23
ENDBRANCH  21  22
ENDBRANCH   1  21
TORSDOF 6
