REMARK  Name = ZINCrH000004stdq.0
REMARK                            x       y       z     vdW  Elec       q    Type
REMARK                         _______ _______ _______ _____ _____    ______ ____
ROOT
ATOM      1  C   LIG    1        1.179   1.784   0.000  0.00  0.00    +0.190 A 
ATOM      2  C   LIG    1       -0.013   1.076   0.008  0.00  0.00    -0.080 A 
ATOM      3  C   LIG    1       -1.218   1.749   0.017  0.00  0.00    +0.080 A 
ATOM      4  C   LIG    1       -1.248   3.134   0.031  0.00  0.00    -0.030 A 
ATOM      5  C   LIG    1       -0.072   3.854   0.023  0.00  0.00    +0.080 A 
ATOM      6  C   LIG    1        1.154   3.186   0.008  0.00  0.00    -0.170 A 
ENDROOT
BRANCH   6   7
ATOM      7  C   LIG    1        2.416   3.951   0.001  0.00  0.00    +0.560 C 
ATOM      8  N   LIG    1        2.387   5.298   0.008  0.00  0.00    -0.730 N 
ATOM      9  H   LIG    1        1.536   5.765   0.018  0.00  0.00    +0.400 HD
ATOM     10  O   LIG    1        3.481   3.366  -0.012  0.00  0.00    -0.510 OA
BRANCH   8  11
ATOM     11  C   LIG    1        3.639   6.058   0.001  0.00  0.00    +0.300 C 
ATOM     12  C   LIG    1        4.128   6.223  -1.440  0.00  0.00    +0.040 C 
BRANCH  11  13
ATOM     13  C   LIG    1        3.407   7.416   0.611  0.00  0.00    -0.070 A 
ATOM     14  C   LIG    1        4.357   7.969   1.448  0.00  0.00    +0.060 A 
ATOM     15  C   LIG    1        4.146   9.215   2.009  0.00  0.00    +0.030 A 
ATOM     16  C   LIG    1        2.983   9.910   1.732  0.00  0.00    +0.070 A 
ATOM     17  C   LIG    1        2.029   9.356   0.891  0.00  0.00    +0.070 A 
ATOM     18  F   LIG    1        0.892  10.033   0.619  0.00  0.00    -0.130 F 
ATOM     19  F   LIG    1        2.776  11.128   2.279  0.00  0.00    -0.130 F 
ATOM     20  C   LIG    1        2.246   8.111   0.327  0.00  0.00    +0.020 A 
ENDBRANCH  11  13
ENDBRANCH   8  11
ENDBRANCH   6   7
BRANCH   1  21
ATOM     21  O   LIG    1        2.364   1.125  -0.015  0.00  0.00    -0.270 OA
BRANCH  21  22
ATOM     22  C   LIG    1        2.312  -0.303  -0.023  0.00  0.00    +0.340 C 
BRANCH  22  26
ATOM     23  C   LIG    1        6.757  -2.061  -1.513  0.00  0.00    +0.260 C 
ATOM     24  C   LIG    1        5.587  -1.599  -0.683  0.00  0.00    +0.180 A 
ATOM     25  N   LIG    1        4.440  -1.149  -1.132  0.00  0.00    -0.470 NA
ATOM     26  C   LIG    1        3.713  -0.858  -0.039  0.00  0.00    +0.170 A 
ATOM     27  N   LIG    1        4.438  -1.147   0.999  0.00  0.00    -0.360 NA
ATOM     28  O   LIG    1        5.518  -1.575   0.651  0.00  0.00    +0.090 OA
ENDBRANCH  22  26
ENDBRANCH  21  22
ENDBRANCH   1  21
TORSDOF 6
