REMARK  Name = ZINCqH0000004yQt.0
REMARK                            x       y       z     vdW  Elec       q    Type
REMARK                         _______ _______ _______ _____ _____    ______ ____
ROOT
ATOM      1  C   LIG    1        0.002  -0.004   0.002  0.00  0.00    +0.210 A 
ATOM      2  C   LIG    1       -0.663  -0.717   0.981  0.00  0.00    -0.150 A 
ATOM      3  C   LIG    1       -0.619  -2.113   0.936  0.00  0.00    +0.450 A 
ATOM      4  N   LIG    1        0.058  -2.705  -0.042  0.00  0.00    -0.570 NA
ATOM      5  C   LIG    1        0.682  -1.984  -0.963  0.00  0.00    +0.400 A 
ATOM      6  N   LIG    1        0.653  -0.659  -0.947  0.00  0.00    -0.540 NA
ENDROOT
BRANCH   5   7
ATOM      7  C   LIG    1        1.428  -2.678  -2.042  0.00  0.00    -0.000 A 
ATOM      8  C   LIG    1        2.095  -1.954  -3.034  0.00  0.00    +0.030 A 
ATOM      9  C   LIG    1        2.782  -2.640  -4.016  0.00  0.00    +0.250 A 
ATOM     10  N   LIG    1        2.804  -3.958  -4.031  0.00  0.00    -0.470 NA
ATOM     11  C   LIG    1        2.184  -4.679  -3.117  0.00  0.00    +0.250 A 
ATOM     12  C   LIG    1        1.478  -4.074  -2.097  0.00  0.00    +0.020 A 
ENDBRANCH   5   7
BRANCH   1  14
ATOM     13  C   LIG    1        1.417   2.032  -0.001  0.00  0.00    +0.040 C 
ATOM     14  C   LIG    1       -0.018   1.503   0.010  0.00  0.00    +0.100 C 
ENDBRANCH   1  14
BRANCH   3  15
ATOM     15  N   LIG    1       -1.270  -2.869   1.897  0.00  0.00    -0.700 N 
ATOM     16  H   LIG    1       -1.235  -3.837   1.859  0.00  0.00    +0.410 HD
BRANCH  15  17
ATOM     17  C   LIG    1       -2.013  -2.205   2.971  0.00  0.00    +0.220 C 
ATOM     18  C   LIG    1       -3.425  -1.873   2.486  0.00  0.00    +0.040 C 
BRANCH  17  19
ATOM     19  C   LIG    1       -2.096  -3.135   4.184  0.00  0.00    +0.270 C 
BRANCH  19  20
ATOM     20  C   LIG    1       -2.751  -2.408   5.330  0.00  0.00    -0.130 A 
ATOM     21  C   LIG    1       -4.130  -2.369   5.425  0.00  0.00    +0.050 A 
ATOM     22  C   LIG    1       -4.732  -1.708   6.479  0.00  0.00    -0.010 A 
ATOM     23  C   LIG    1       -3.954  -1.075   7.434  0.00  0.00    +0.110 A 
ATOM     24  C   LIG    1       -2.573  -1.110   7.334  0.00  0.00    -0.010 A 
ATOM     25  F   LIG    1       -4.541  -0.424   8.461  0.00  0.00    -0.140 F 
ATOM     26  C   LIG    1       -1.973  -1.776   6.282  0.00  0.00    +0.060 A 
ENDBRANCH  19  20
BRANCH  19  27
ATOM     27  O   LIG    1       -2.869  -4.289   3.847  0.00  0.00    -0.550 OA
ATOM     28  H   LIG    1       -3.776  -4.090   3.577  0.00  0.00    +0.380 HD
ENDBRANCH  19  27
ENDBRANCH  17  19
ENDBRANCH  15  17
ENDBRANCH   3  15
TORSDOF 7
