REMARK  Name = ZINCrH000004q0Iv.1
REMARK                            x       y       z     vdW  Elec       q    Type
REMARK                         _______ _______ _______ _____ _____    ______ ____
ROOT
ATOM      1  C   LIG    1       -4.659  -0.385   1.809  0.00  0.00    +0.090 C 
ATOM      2  C   LIG    1       -3.392  -1.156   1.432  0.00  0.00    +0.060 C 
ATOM      3  C   LIG    1       -2.945  -2.045   2.611  0.00  0.00    +0.080 C 
ATOM      4  C   LIG    1       -1.855  -1.185   3.303  0.00  0.00    +0.080 C 
ATOM      5  C   LIG    1       -1.184  -0.493   2.090  0.00  0.00    +0.250 C 
ATOM      6  N   LIG    1       -2.294  -0.212   1.155  0.00  0.00    -0.380 N 
ATOM      7  H   LIG    1       -2.617   0.735   1.290  0.00  0.00    +0.430 HD
ENDROOT
BRANCH   2   8
ATOM      8  C   LIG    1       -3.658  -2.021   0.198  0.00  0.00    +0.090 C 
BRANCH   8   9
ATOM      9  C   LIG    1       -4.843  -2.915   0.458  0.00  0.00    -0.040 A 
ATOM     10  C   LIG    1       -4.741  -3.952   1.366  0.00  0.00    +0.020 A 
ATOM     11  C   LIG    1       -5.830  -4.769   1.608  0.00  0.00    +0.060 A 
ATOM     12  C   LIG    1       -7.017  -4.556   0.933  0.00  0.00    +0.030 A 
ATOM     13  C   LIG    1       -7.117  -3.522   0.021  0.00  0.00    +0.070 A 
ATOM     14  C   LIG    1       -6.031  -2.702  -0.217  0.00  0.00    -0.170 A 
BRANCH  14  15
ATOM     15  C   LIG    1       -6.140  -1.575  -1.212  0.00  0.00    +0.500 C 
ATOM     16  F   LIG    1       -5.172  -1.738  -2.209  0.00  0.00    -0.170 F 
ATOM     17  F   LIG    1       -5.937  -0.355  -0.559  0.00  0.00    -0.180 F 
ATOM     18  F   LIG    1       -7.413  -1.587  -1.792  0.00  0.00    -0.170 F 
ENDBRANCH  14  15
ENDBRANCH   8   9
ENDBRANCH   2   8
BRANCH   6  19
ATOM     19  C   LIG    1       -1.831  -0.384  -0.228  0.00  0.00    +0.340 C 
BRANCH  19  20
ATOM     20  C   LIG    1       -0.794   0.663  -0.545  0.00  0.00    -0.030 A 
ATOM     21  C   LIG    1        0.555   0.366  -0.406  0.00  0.00    +0.230 A 
ATOM     22  N   LIG    1        1.464   1.278  -0.681  0.00  0.00    -0.390 NA
ATOM     23  CA  LIG    1        1.090   2.486  -1.095  0.00  0.00    +0.080 A 
ATOM     24  C   LIG    1       -0.267   2.781  -1.233  0.00  0.00    +0.270 A 
ATOM     25  N   LIG    1       -1.172   1.861  -0.954  0.00  0.00    -0.430 NA
BRANCH  23  26
ATOM     26  C   LIG    1        2.108   3.513  -1.406  0.00  0.00    +0.530 C 
ATOM     27  OXT LIG    1        1.762   4.622  -1.785  0.00  0.00    -0.660 OA
ATOM     28  O   LIG    1        3.296   3.252  -1.284  0.00  0.00    -0.640 OA
ENDBRANCH  23  26
ENDBRANCH  19  20
ENDBRANCH   6  19
TORSDOF 6
