REMARK  Name = ZINCrH000004q0Iv.0
REMARK                            x       y       z     vdW  Elec       q    Type
REMARK                         _______ _______ _______ _____ _____    ______ ____
ROOT
ATOM      1  C   LIG    1        1.206  -0.496  -2.149  0.00  0.00    +0.100 C 
ATOM      2  C   LIG    1        0.140   0.600  -2.202  0.00  0.00    +0.060 C 
ATOM      3  C   LIG    1        0.778   1.932  -2.648  0.00  0.00    +0.080 C 
ATOM      4  C   LIG    1        1.037   2.662  -1.304  0.00  0.00    +0.080 C 
ATOM      5  C   LIG    1       -0.186   2.220  -0.468  0.00  0.00    +0.260 C 
ATOM      6  N   LIG    1       -0.426   0.814  -0.858  0.00  0.00    -0.380 N 
ATOM      7  H   LIG    1       -1.419   0.631  -0.874  0.00  0.00    +0.420 HD
ENDROOT
BRANCH   2   8
ATOM      8  C   LIG    1       -0.971   0.203  -3.177  0.00  0.00    +0.100 C 
BRANCH   8   9
ATOM      9  C   LIG    1       -0.368  -0.124  -4.519  0.00  0.00    -0.040 A 
ATOM     10  C   LIG    1        0.218   0.873  -5.275  0.00  0.00    +0.020 A 
ATOM     11  C   LIG    1        0.772   0.573  -6.506  0.00  0.00    +0.060 A 
ATOM     12  C   LIG    1        0.739  -0.725  -6.981  0.00  0.00    +0.030 A 
ATOM     13  C   LIG    1        0.153  -1.723  -6.224  0.00  0.00    +0.070 A 
ATOM     14  C   LIG    1       -0.396  -1.424  -4.992  0.00  0.00    -0.170 A 
BRANCH  14  15
ATOM     15  C   LIG    1       -1.029  -2.513  -4.165  0.00  0.00    +0.510 C 
ATOM     16  F   LIG    1       -2.369  -2.193  -3.921  0.00  0.00    -0.170 F 
ATOM     17  F   LIG    1       -0.349  -2.630  -2.948  0.00  0.00    -0.180 F 
ATOM     18  F   LIG    1       -0.958  -3.726  -4.858  0.00  0.00    -0.170 F 
ENDBRANCH  14  15
ENDBRANCH   8   9
ENDBRANCH   2   8
BRANCH   6  19
ATOM     19  C   LIG    1        0.227  -0.085   0.103  0.00  0.00    +0.340 C 
BRANCH  19  20
ATOM     20  C   LIG    1       -0.442   0.044   1.447  0.00  0.00    -0.030 A 
ATOM     21  C   LIG    1       -1.452  -0.838   1.804  0.00  0.00    +0.240 A 
ATOM     22  N   LIG    1       -2.037  -0.733   2.980  0.00  0.00    -0.390 NA
ATOM     23  CA  LIG    1       -1.666   0.228   3.822  0.00  0.00    +0.080 A 
ATOM     24  C   LIG    1       -0.653   1.117   3.458  0.00  0.00    +0.270 A 
ATOM     25  N   LIG    1       -0.069   1.000   2.279  0.00  0.00    -0.430 NA
BRANCH  23  26
ATOM     26  C   LIG    1       -2.324   0.354   5.141  0.00  0.00    +0.530 C 
ATOM     27  OXT LIG    1       -3.211  -0.425   5.458  0.00  0.00    -0.640 OA
ATOM     28  O   LIG    1       -1.982   1.238   5.913  0.00  0.00    -0.660 OA
ENDBRANCH  23  26
ENDBRANCH  19  20
ENDBRANCH   6  19
TORSDOF 6
