REMARK  Name = ZINCqH0000006Ii5.0
REMARK                            x       y       z     vdW  Elec       q    Type
REMARK                         _______ _______ _______ _____ _____    ______ ____
ROOT
ATOM      1  C   LIG    1        2.331   0.926   0.654  0.00  0.00    +0.520 C 
ATOM      2  N   LIG    1        1.362   1.593  -0.002  0.00  0.00    -0.720 N 
ATOM      3  H   LIG    1        1.574   2.409  -0.482  0.00  0.00    +0.400 HD
ATOM      4  O   LIG    1        2.066  -0.095   1.254  0.00  0.00    -0.500 OA
ENDROOT
BRANCH   1   5
ATOM      5  C   LIG    1        3.745   1.447   0.644  0.00  0.00    +0.240 C 
BRANCH   5   6
ATOM      6  O   LIG    1        4.581   0.573   1.404  0.00  0.00    -0.270 OA
BRANCH   6  12
ATOM      7  C   LIG    1        6.766   0.089   2.222  0.00  0.00    +0.090 A 
ATOM      8  C   LIG    1        8.102   0.421   2.316  0.00  0.00    +0.030 A 
ATOM      9  C   LIG    1        8.581   1.573   1.680  0.00  0.00    -0.170 A 
ATOM     10  C   LIG    1        7.700   2.382   0.952  0.00  0.00    +0.080 A 
ATOM     11  C   LIG    1        6.370   2.041   0.859  0.00  0.00    -0.050 A 
ATOM     12  C   LIG    1        5.895   0.901   1.495  0.00  0.00    +0.130 A 
BRANCH   9  13
ATOM     13  C   LIG    1       10.002   1.932   1.776  0.00  0.00    +0.400 C 
ATOM     14  O   LIG    1       10.763   1.230   2.408  0.00  0.00    -0.460 OA
ATOM     15  C   LIG    1       10.514   3.172   1.091  0.00  0.00    +0.080 C 
ENDBRANCH   9  13
BRANCH   7  17
ATOM     16  C   LIG    1        7.245  -1.813   3.567  0.00  0.00    +0.240 C 
ATOM     17  O   LIG    1        6.298  -1.028   2.839  0.00  0.00    -0.300 OA
ENDBRANCH   7  17
ENDBRANCH   6  12
ENDBRANCH   5   6
ENDBRANCH   1   5
BRANCH   2  18
ATOM     18  C   LIG    1       -0.013   1.086   0.008  0.00  0.00    +0.290 C 
BRANCH  18  19
ATOM     19  C   LIG    1       -0.742   1.585  -1.213  0.00  0.00    -0.090 A 
ATOM     20  C   LIG    1       -0.551   2.883  -1.649  0.00  0.00    +0.000 A 
ATOM     21  C   LIG    1       -1.217   3.340  -2.771  0.00  0.00    +0.000 A 
ATOM     22  C   LIG    1       -2.079   2.501  -3.453  0.00  0.00    +0.000 A 
ATOM     23  C   LIG    1       -2.273   1.205  -3.014  0.00  0.00    +0.020 A 
ATOM     24  C   LIG    1       -1.605   0.747  -1.893  0.00  0.00    +0.020 A 
ENDBRANCH  18  19
BRANCH  18  25
ATOM     25  C   LIG    1       -0.729   1.579   1.267  0.00  0.00    -0.030 C 
ATOM     26  C   LIG    1        0.011   1.072   2.506  0.00  0.00    +0.030 C 
ATOM     27  C   LIG    1       -2.164   1.050   1.278  0.00  0.00    +0.030 C 
ENDBRANCH  18  25
ENDBRANCH   2  18
TORSDOF 8
