REMARK  Name = ZINCpk00000l7r4f.0
REMARK                            x       y       z     vdW  Elec       q    Type
REMARK                         _______ _______ _______ _____ _____    ______ ____
ROOT
ATOM      1  O   LIG    1        8.151   2.580   2.814  0.00  0.00    -0.510 OA
ATOM      2  C   LIG    1        6.983   2.751   3.102  0.00  0.00    +0.560 C 
ATOM      3  N   LIG    1        6.079   1.782   2.854  0.00  0.00    -0.590 N 
ATOM      4  C   LIG    1        6.474   0.504   2.374  0.00  0.00    +0.270 C 
ATOM      5  C   LIG    1        6.671   0.423   0.825  0.00  0.00    +0.010 C 
ATOM      6  C   LIG    1        5.558   1.297   0.173  0.00  0.00    +0.260 C 
ATOM      7  N   LIG    1        4.292   1.234   0.816  0.00  0.00    -0.600 N 
ATOM      8  C   LIG    1        3.980   2.303   1.799  0.00  0.00    +0.270 C 
ATOM      9  C   LIG    1        3.416   0.245   0.550  0.00  0.00    +0.520 C 
ATOM     10  O   LIG    1        3.729  -0.659  -0.196  0.00  0.00    -0.500 OA
ATOM     11  C   LIG    1        4.626   2.003   3.072  0.00  0.00    +0.270 C 
ENDROOT
BRANCH   2  12
ATOM     12  C   LIG    1        6.553   4.021   3.724  0.00  0.00    -0.120 A 
ATOM     13  C   LIG    1        7.318   4.600   4.737  0.00  0.00    +0.130 A 
ATOM     14  C   LIG    1        6.912   5.786   5.313  0.00  0.00    +0.050 A 
ATOM     15  C   LIG    1        5.747   6.401   4.888  0.00  0.00    +0.130 A 
ATOM     16  C   LIG    1        4.984   5.833   3.884  0.00  0.00    -0.050 A 
ATOM     17  C   LIG    1        5.382   4.650   3.297  0.00  0.00    +0.110 A 
BRANCH  16  18
ATOM     18  N   LIG    1        3.740   6.498   3.436  0.00  0.00    +0.030 N 
ATOM     19  O   LIG    1        3.067   5.999   2.552  0.00  0.00    -0.160 OA
ATOM     20  O   LIG    1        3.389   7.545   3.951  0.00  0.00    -0.150 OA
ENDBRANCH  16  18
ENDBRANCH   2  12
BRANCH   9  21
ATOM     21  C   LIG    1        2.047   0.261   1.180  0.00  0.00    +0.150 C 
ATOM     22  C   LIG    1        1.153   1.339   0.514  0.00  0.00    +0.040 C 
ATOM     23  C   LIG    1       -0.270   0.797   0.794  0.00  0.00    +0.010 C 
ATOM     24  C   LIG    1       -0.055  -0.704   1.071  0.00  0.00    +0.190 C 
ATOM     25  O   LIG    1        1.347  -0.972   0.908  0.00  0.00    -0.350 OA
ENDBRANCH   9  21
TORSDOF 3
