REMARK  Name = ZINCrH00000No58x.0
REMARK                            x       y       z     vdW  Elec       q    Type
REMARK                         _______ _______ _______ _____ _____    ______ ____
ROOT
ATOM      1  C   LIG    1        4.686   7.282   0.525  0.00  0.00    +0.100 C 
ATOM      2  C   LIG    1        4.365   5.815   0.402  0.00  0.00    -0.110 A 
ATOM      3  C   LIG    1        3.046   5.410   0.415  0.00  0.00    +0.050 A 
ATOM      4  C   LIG    1        2.691   4.075   0.310  0.00  0.00    +0.030 A 
ATOM      5  C   LIG    1        3.725   3.142   0.189  0.00  0.00    +0.160 A 
ATOM      6  C   LIG    1        5.058   3.566   0.173  0.00  0.00    -0.170 A 
ATOM      7  C   LIG    1        5.919   2.356   0.012  0.00  0.00    +0.040 C 
ATOM      8  C   LIG    1        7.143   2.353   0.865  0.00  0.00    +0.280 C 
ATOM      9  N   LIG    1        6.958   1.656   2.137  0.00  0.00    -0.390 N 
ATOM     10  C   LIG    1        6.548   0.273   1.840  0.00  0.00    +0.280 C 
ATOM     11  C   LIG    1        5.118   0.306   1.316  0.00  0.00    +0.060 C 
ATOM     12  C   LIG    1        8.220   1.650   2.889  0.00  0.00    +0.320 C 
ATOM     13  H   LIG    1        6.240   2.116   2.678  0.00  0.00    +0.430 HD
ATOM     14  C   LIG    1        4.980   1.169   0.075  0.00  0.00    +0.260 C 
ATOM     15  N   LIG    1        3.625   1.764   0.079  0.00  0.00    -0.560 N 
ATOM     16  C   LIG    1        2.472   1.073  -0.016  0.00  0.00    +0.590 C 
ATOM     17  O   LIG    1        1.412   1.665  -0.081  0.00  0.00    -0.510 OA
ATOM     18  C   LIG    1        5.402   4.899   0.287  0.00  0.00    +0.060 A 
ENDROOT
BRANCH  16  19
ATOM     19  C   LIG    1        2.495  -0.403  -0.040  0.00  0.00    -0.300 A 
ATOM     20  C   LIG    1        3.391  -1.075  -0.881  0.00  0.00    +0.110 A 
ATOM     21  C   LIG    1        3.419  -2.451  -0.909  0.00  0.00    -0.220 A 
ATOM     22  C   LIG    1        2.559  -3.186  -0.102  0.00  0.00    +0.330 A 
ATOM     23  C   LIG    1        1.658  -2.522   0.751  0.00  0.00    -0.330 A 
ATOM     24  O   LIG    1        2.591  -4.539  -0.132  0.00  0.00    -0.600 OA
ATOM     25 BR   LIG    1        4.634  -3.346  -2.049  0.00  0.00    -0.070 Br
ATOM     26  C   LIG    1        1.628  -1.127   0.774  0.00  0.00    +0.170 A 
BRANCH  23  27
ATOM     27  C   LIG    1        0.751  -3.293   1.610  0.00  0.00    +0.450 C 
ATOM     28  O   LIG    1        0.780  -4.506   1.588  0.00  0.00    -0.450 OA
ENDBRANCH  23  27
ENDBRANCH  16  19
TORSDOF 2
