REMARK  Name = ZINCrH00000No58x.1
REMARK                            x       y       z     vdW  Elec       q    Type
REMARK                         _______ _______ _______ _____ _____    ______ ____
ROOT
ATOM      1  C   LIG    1        1.845  -2.586   3.292  0.00  0.00    +0.090 C 
ATOM      2  C   LIG    1        0.559  -1.932   2.857  0.00  0.00    -0.110 A 
ATOM      3  C   LIG    1       -0.400  -1.633   3.803  0.00  0.00    +0.050 A 
ATOM      4  C   LIG    1       -1.600  -1.028   3.464  0.00  0.00    +0.030 A 
ATOM      5  C   LIG    1       -1.806  -0.727   2.115  0.00  0.00    +0.160 A 
ATOM      6  C   LIG    1       -0.832  -1.044   1.166  0.00  0.00    -0.160 A 
ATOM      7  C   LIG    1       -1.334  -0.623  -0.194  0.00  0.00    +0.060 C 
ATOM      8  C   LIG    1       -1.471  -1.856  -1.067  0.00  0.00    +0.260 C 
ATOM      9  N   LIG    1       -2.522  -1.727  -2.072  0.00  0.00    -0.380 N 
ATOM     10  C   LIG    1       -3.807  -1.541  -1.376  0.00  0.00    +0.270 C 
ATOM     11  C   LIG    1       -3.807  -0.141  -0.771  0.00  0.00    +0.080 C 
ATOM     12  C   LIG    1       -2.574  -2.945  -2.892  0.00  0.00    +0.330 C 
ATOM     13  H   LIG    1       -2.334  -0.929  -2.660  0.00  0.00    +0.430 HD
ATOM     14  C   LIG    1       -2.623   0.107   0.114  0.00  0.00    +0.220 C 
ATOM     15  N   LIG    1       -2.896  -0.102   1.536  0.00  0.00    -0.550 N 
ATOM     16  C   LIG    1       -4.026   0.255   2.178  0.00  0.00    +0.590 C 
ATOM     17  O   LIG    1       -4.195  -0.071   3.338  0.00  0.00    -0.510 OA
ATOM     18  C   LIG    1        0.363  -1.643   1.511  0.00  0.00    +0.060 A 
ENDROOT
BRANCH  16  19
ATOM     19  C   LIG    1       -5.059   1.040   1.474  0.00  0.00    -0.310 A 
ATOM     20  C   LIG    1       -4.682   2.084   0.621  0.00  0.00    +0.110 A 
ATOM     21  C   LIG    1       -5.640   2.819  -0.043  0.00  0.00    -0.220 A 
ATOM     22  C   LIG    1       -6.988   2.536   0.137  0.00  0.00    +0.330 A 
ATOM     23  C   LIG    1       -7.379   1.493   0.996  0.00  0.00    -0.330 A 
ATOM     24  O   LIG    1       -7.926   3.265  -0.514  0.00  0.00    -0.600 OA
ATOM     25 BR   LIG    1       -5.118   4.222  -1.199  0.00  0.00    -0.070 Br
ATOM     26  C   LIG    1       -6.406   0.747   1.664  0.00  0.00    +0.170 A 
BRANCH  23  27
ATOM     27  C   LIG    1       -8.803   1.192   1.191  0.00  0.00    +0.450 C 
ATOM     28  O   LIG    1       -9.645   1.842   0.609  0.00  0.00    -0.450 OA
ENDBRANCH  23  27
ENDBRANCH  16  19
TORSDOF 2
