REMARK  Name = ZINCrH00000No4Pv.0
REMARK                            x       y       z     vdW  Elec       q    Type
REMARK                         _______ _______ _______ _____ _____    ______ ____
ROOT
ATOM      1  N   LIG    1       -2.386   1.312   0.580  0.00  0.00    -0.640 N 
ATOM      2  H   LIG    1       -3.086   1.909   0.887  0.00  0.00    +0.410 HD
ATOM      3  C   LIG    1       -2.690   0.053   0.209  0.00  0.00    +0.550 C 
ATOM      4  O   LIG    1       -1.812  -0.697  -0.178  0.00  0.00    -0.490 OA
ENDROOT
BRANCH   1   9
ATOM      5  N   LIG    1       -0.620   2.992   0.865  0.00  0.00    -0.380 N 
ATOM      6  N   LIG    1        0.764   3.022   0.650  0.00  0.00    -0.280 NA
ATOM      7  C   LIG    1        1.138   1.851   0.200  0.00  0.00    +0.250 A 
ATOM      8  C   LIG    1        0.010   1.032   0.111  0.00  0.00    -0.100 A 
ATOM      9  C   LIG    1       -1.067   1.757   0.521  0.00  0.00    +0.300 A 
BRANCH   5  10
ATOM     10  C   LIG    1       -1.439   4.098   1.365  0.00  0.00    +0.370 C 
BRANCH  10  16
ATOM     11  C   LIG    1       -0.829   7.908  -1.823  0.00  0.00    +0.090 C 
ATOM     12  C   LIG    1       -1.644   6.744  -1.321  0.00  0.00    -0.080 A 
ATOM     13  C   LIG    1       -2.847   6.431  -1.925  0.00  0.00    +0.010 A 
ATOM     14  C   LIG    1       -3.595   5.362  -1.465  0.00  0.00    +0.010 A 
ATOM     15  C   LIG    1       -3.139   4.608  -0.400  0.00  0.00    +0.000 A 
ATOM     16  C   LIG    1       -1.936   4.921   0.204  0.00  0.00    -0.120 A 
ATOM     17  C   LIG    1       -1.191   5.992  -0.253  0.00  0.00    +0.040 A 
ENDBRANCH  10  16
ENDBRANCH   5  10
ENDBRANCH   1   9
BRANCH   3  18
ATOM     18  C   LIG    1       -4.076  -0.415   0.271  0.00  0.00    -0.040 C 
ATOM     19  C   LIG    1       -4.380  -1.675  -0.100  0.00  0.00    +0.120 C 
BRANCH  19  20
ATOM     20  C   LIG    1       -5.774  -2.145  -0.038  0.00  0.00    -0.010 A 
ATOM     21  C   LIG    1       -6.820  -1.225   0.082  0.00  0.00    +0.050 A 
ATOM     22  C   LIG    1       -8.124  -1.673   0.134  0.00  0.00    +0.080 A 
ATOM     23  C   LIG    1       -8.396  -3.029   0.079  0.00  0.00    +0.050 A 
ATOM     24  C   LIG    1       -7.365  -3.945  -0.034  0.00  0.00    +0.090 A 
ATOM     25  C   LIG    1       -6.057  -3.513  -0.093  0.00  0.00    -0.020 A 
BRANCH  25  26
ATOM     26  N   LIG    1       -4.956  -4.495  -0.214  0.00  0.00    +0.020 N 
ATOM     27  O   LIG    1       -3.907  -4.309   0.377  0.00  0.00    -0.140 OA
ATOM     28  O   LIG    1       -5.099  -5.488  -0.904  0.00  0.00    -0.140 OA
ENDBRANCH  25  26
ENDBRANCH  19  20
ENDBRANCH   3  18
TORSDOF 6
