REMARK  Name = ZINCrH00000No4PV.1
REMARK                            x       y       z     vdW  Elec       q    Type
REMARK                         _______ _______ _______ _____ _____    ______ ____
ROOT
ATOM      1  C   LIG    1       -2.539  -4.171   0.004  0.00  0.00    +0.370 C 
ATOM      2  C   LIG    1       -2.832  -4.683   1.388  0.00  0.00    -0.180 A 
ATOM      3  C   LIG    1       -2.443  -4.766   2.687  0.00  0.00    +0.110 A 
ATOM      4  N   LIG    1       -3.398  -5.496   3.335  0.00  0.00    -0.380 N 
ATOM      5  H   LIG    1       -3.384  -5.717   4.280  0.00  0.00    +0.450 HD
ATOM      6  N   LIG    1       -4.318  -5.846   2.509  0.00  0.00    -0.200 NA
ATOM      7  C   LIG    1       -4.051  -5.393   1.300  0.00  0.00    -0.040 A 
ATOM      8  C   LIG    1       -4.512  -5.329  -0.098  0.00  0.00    +0.610 C 
ATOM      9  O   LIG    1       -5.533  -5.840  -0.515  0.00  0.00    -0.510 OA
ATOM     10  N   LIG    1       -3.645  -4.627  -0.847  0.00  0.00    -0.600 N 
ATOM     11  C   LIG    1       -3.781  -4.359  -2.281  0.00  0.00    +0.330 C 
ENDROOT
BRANCH   1  16
ATOM     12  C   LIG    1       -1.200  -0.637   0.010  0.00  0.00    +0.140 A 
ATOM     13  C   LIG    1       -2.374   0.101   0.031  0.00  0.00    -0.080 A 
ATOM     14  C   LIG    1       -3.595  -0.545   0.034  0.00  0.00    +0.040 A 
ATOM     15  C   LIG    1       -3.648  -1.927   0.027  0.00  0.00    -0.020 A 
ATOM     16  C   LIG    1       -2.479  -2.665   0.011  0.00  0.00    -0.040 A 
ATOM     17  C   LIG    1       -1.255  -2.024   0.003  0.00  0.00    +0.000 A 
BRANCH  12  18
ATOM     18  O   LIG    1        0.002  -0.004   0.002  0.00  0.00    -0.320 OA
BRANCH  18  19
ATOM     19  C   LIG    1       -0.017   1.425   0.010  0.00  0.00    +0.180 C 
BRANCH  19  21
ATOM     20  C   LIG    1        1.397   3.484   0.007  0.00  0.00    +0.040 C 
ATOM     21  C   LIG    1        1.418   1.954  -0.001  0.00  0.00    +0.020 C 
ENDBRANCH  19  21
ENDBRANCH  18  19
ENDBRANCH  12  18
ENDBRANCH   1  16
BRANCH   3  22
ATOM     22  C   LIG    1       -1.222  -4.180   3.283  0.00  0.00    -0.070 A 
ATOM     23  C   LIG    1       -0.229  -5.009   3.802  0.00  0.00    +0.050 A 
ATOM     24  C   LIG    1        0.910  -4.457   4.353  0.00  0.00    +0.000 A 
ATOM     25  C   LIG    1        1.065  -3.083   4.401  0.00  0.00    +0.040 A 
ATOM     26  C   LIG    1        0.084  -2.251   3.895  0.00  0.00    -0.010 A 
ATOM     27  C   LIG    1       -1.062  -2.791   3.334  0.00  0.00    +0.150 A 
BRANCH  27  28
ATOM     28  O   LIG    1       -2.027  -1.974   2.836  0.00  0.00    -0.480 OA
ATOM     29  H   LIG    1       -2.700  -1.721   3.483  0.00  0.00    +0.390 HD
ENDBRANCH  27  28
ENDBRANCH   3  22
TORSDOF 6
