REMARK  Name = ZINCrH000004qRPD.0
REMARK                            x       y       z     vdW  Elec       q    Type
REMARK                         _______ _______ _______ _____ _____    ______ ____
ROOT
ATOM      1  N   LIG    1        4.724   5.379  -0.737  0.00  0.00    -0.670 N 
ATOM      2  H   LIG    1        3.895   5.861  -0.591  0.00  0.00    +0.410 HD
ATOM      3  C   LIG    1        4.766   4.043  -0.567  0.00  0.00    +0.560 C 
ATOM      4  O   LIG    1        5.823   3.450  -0.662  0.00  0.00    -0.490 OA
ENDROOT
BRANCH   3   5
ATOM      5  C   LIG    1        3.526   3.298  -0.264  0.00  0.00    -0.190 A 
ATOM      6  C   LIG    1        2.296   3.945  -0.289  0.00  0.00    +0.140 A 
ATOM      7  C   LIG    1        1.148   3.189   0.006  0.00  0.00    -0.110 A 
ATOM      8  C   LIG    1       -0.129   3.774   0.001  0.00  0.00    +0.060 A 
ATOM      9  C   LIG    1       -1.220   3.011   0.292  0.00  0.00    -0.040 A 
ATOM     10  C   LIG    1       -1.085   1.656   0.589  0.00  0.00    +0.070 A 
ATOM     11  C   LIG    1        0.139   1.060   0.609  0.00  0.00    +0.070 A 
ATOM     12 CL   LIG    1       -2.799   3.734   0.285  0.00  0.00    -0.060 Cl
ATOM     13  C   LIG    1        1.288   1.812   0.315  0.00  0.00    +0.160 A 
ATOM     14  N   LIG    1        2.500   1.245   0.323  0.00  0.00    -0.470 NA
ATOM     15  C   LIG    1        3.581   1.929   0.051  0.00  0.00    +0.220 A 
ATOM     16  C   LIG    1        4.918   1.233   0.077  0.00  0.00    +0.160 C 
ENDBRANCH   3   5
BRANCH   1  22
ATOM     17  C   LIG    1        6.806   9.106  -3.174  0.00  0.00    +0.100 C 
ATOM     18  C   LIG    1        6.915   7.881  -2.303  0.00  0.00    -0.090 A 
ATOM     19  C   LIG    1        8.157   7.440  -1.885  0.00  0.00    +0.120 A 
ATOM     20  C   LIG    1        8.262   6.316  -1.086  0.00  0.00    -0.660 A 
ATOM     21  C   LIG    1        7.125   5.634  -0.699  0.00  0.00    +0.140 A 
ATOM     22  C   LIG    1        5.877   6.071  -1.122  0.00  0.00    +0.130 A 
ATOM     23  C   LIG    1        5.775   7.200  -1.924  0.00  0.00    -0.050 A 
ATOM     24  C   LIG    1        4.422   7.681  -2.381  0.00  0.00    +0.110 C 
BRANCH  20  25
ATOM     25  S   LIG    1        9.847   5.758  -0.555  0.00  0.00    +2.700 S 
ATOM     26  O   LIG    1       10.785   6.263  -1.496  0.00  0.00    -0.960 OA
ATOM     27  O   LIG    1        9.708   4.374  -0.263  0.00  0.00    -0.950 OA
BRANCH  25  28
ATOM     28  N   LIG    1       10.175   6.510   0.883  0.00  0.00    -1.250 NA
ATOM     29  H   LIG    1        9.812   7.391   1.064  0.00  0.00    +0.420 HD
ATOM     30  H   LIG    1       10.731   6.069   1.545  0.00  0.00    +0.420 HD
ENDBRANCH  25  28
ENDBRANCH  20  25
ENDBRANCH   1  22
TORSDOF 4
