REMARK  Name = ZINCrD000000AGke.0
REMARK                            x       y       z     vdW  Elec       q    Type
REMARK                         _______ _______ _______ _____ _____    ______ ____
ROOT
ATOM      1  O   LIG    1       -1.897   1.974   6.220  0.00  0.00    -0.510 OA
ATOM      2  C   LIG    1       -2.434   3.057   6.320  0.00  0.00    +0.560 C 
ATOM      3  N   LIG    1       -2.879   3.692   5.218  0.00  0.00    -0.610 N 
ATOM      4  C   LIG    1       -3.624   4.957   5.321  0.00  0.00    +0.250 C 
ATOM      5  C   LIG    1       -4.907   4.831   4.493  0.00  0.00    +0.220 C 
ATOM      6  O   LIG    1       -4.575   4.396   3.172  0.00  0.00    -0.370 OA
ATOM      7  C   LIG    1       -3.966   3.104   3.117  0.00  0.00    +0.160 C 
ATOM      8  C   LIG    1       -2.634   3.142   3.875  0.00  0.00    +0.260 C 
ENDROOT
BRANCH   7   9
ATOM      9  C   LIG    1       -3.713   2.720   1.658  0.00  0.00    +0.000 C 
ATOM     10  C   LIG    1       -3.069   1.331   1.596  0.00  0.00    +0.010 C 
ATOM     11  C   LIG    1       -2.893   0.924   0.131  0.00  0.00    +0.210 C 
ATOM     12  O   LIG    1       -4.162   0.945  -0.524  0.00  0.00    -0.380 OA
ATOM     13  C   LIG    1       -4.790   2.229  -0.539  0.00  0.00    +0.210 C 
ATOM     14  C   LIG    1       -5.043   2.688   0.899  0.00  0.00    +0.000 C 
ENDBRANCH   7   9
BRANCH   2  15
ATOM     15  C   LIG    1       -2.603   3.692   7.676  0.00  0.00    -0.150 C 
ATOM     16  C   LIG    1       -2.921   2.769   8.854  0.00  0.00    +0.100 C 
ATOM     17  C   LIG    1       -4.005   3.688   8.288  0.00  0.00    +0.050 C 
BRANCH  15  18
ATOM     18  C   LIG    1       -1.730   4.891   7.946  0.00  0.00    +0.000 A 
ATOM     19  C   LIG    1       -2.299   6.141   8.097  0.00  0.00    +0.020 A 
ATOM     20  C   LIG    1       -1.499   7.239   8.349  0.00  0.00    +0.060 A 
ATOM     21  C   LIG    1       -0.128   7.089   8.441  0.00  0.00    +0.020 A 
ATOM     22  C   LIG    1        0.442   5.839   8.285  0.00  0.00    +0.070 A 
ATOM     23  C   LIG    1       -0.359   4.740   8.037  0.00  0.00    -0.170 A 
BRANCH  23  24
ATOM     24  C   LIG    1        0.263   3.378   7.867  0.00  0.00    +0.500 C 
ATOM     25  F   LIG    1        0.097   2.951   6.546  0.00  0.00    -0.160 F 
ATOM     26  F   LIG    1       -0.359   2.470   8.732  0.00  0.00    -0.170 F 
ATOM     27  F   LIG    1        1.627   3.447   8.167  0.00  0.00    -0.180 F 
ENDBRANCH  23  24
ENDBRANCH  15  18
ENDBRANCH   2  15
TORSDOF 4
