REMARK  Name = ZINCvU0000000DCP.0
REMARK                            x       y       z     vdW  Elec       q    Type
REMARK                         _______ _______ _______ _____ _____    ______ ____
ROOT
ATOM      1  C   LIG    1       -1.625   3.184   0.955  0.00  0.00    -0.180 A 
ATOM      2  C   LIG    1       -2.880   3.700   0.766  0.00  0.00    +0.050 A 
ATOM      3  S   LIG    1       -3.676   2.915  -0.519  0.00  0.00    +0.330 S 
ATOM      4  C   LIG    1       -2.308   1.863  -0.834  0.00  0.00    -0.090 A 
ATOM      5  C   LIG    1       -1.309   2.116   0.020  0.00  0.00    -0.010 A 
ENDROOT
BRANCH   5   6
ATOM      6  C   LIG    1       -0.017   1.390   0.010  0.00  0.00    -0.030 A 
ATOM      7  C   LIG    1        1.184   2.099   0.002  0.00  0.00    +0.050 A 
ATOM      8  C   LIG    1        2.384   1.418  -0.014  0.00  0.00    +0.030 A 
ATOM      9  C   LIG    1        2.397   0.033  -0.021  0.00  0.00    -0.030 A 
ATOM     10  C   LIG    1        1.208  -0.675  -0.013  0.00  0.00    +0.030 A 
ATOM     11 CL   LIG    1        3.910  -0.817  -0.040  0.00  0.00    -0.070 Cl
ATOM     12  C   LIG    1        0.002  -0.004   0.002  0.00  0.00    +0.050 A 
ENDBRANCH   5   6
BRANCH   2  13
ATOM     13  N   LIG    1       -3.428   4.724   1.520  0.00  0.00    -0.620 N 
ATOM     14  H   LIG    1       -2.915   5.125   2.239  0.00  0.00    +0.430 HD
ATOM     15  C   LIG    1       -4.675   5.162   1.255  0.00  0.00    +0.580 C 
ATOM     16  O   LIG    1       -5.318   4.659   0.354  0.00  0.00    -0.500 OA
BRANCH  15  17
ATOM     17  C   LIG    1       -5.258   6.251   2.057  0.00  0.00    -0.290 A 
ATOM     18  C   LIG    1       -6.537   6.729   1.805  0.00  0.00    +0.270 A 
ATOM     19  C   LIG    1       -7.016   7.797   2.606  0.00  0.00    -0.180 A 
ATOM     20  C   LIG    1       -8.366   8.175   2.556  0.00  0.00    +0.110 A 
ATOM     21  C   LIG    1       -8.823   9.166   3.377  0.00  0.00    +0.000 A 
ATOM     22  C   LIG    1       -7.962   9.811   4.252  0.00  0.00    +0.110 A 
ATOM     23  C   LIG    1       -6.625   9.473   4.300  0.00  0.00    +0.010 A 
ATOM     24  C   LIG    1       -6.134   8.474   3.470  0.00  0.00    +0.150 A 
ATOM     25  O   LIG    1       -4.819   8.155   3.489  0.00  0.00    -0.260 OA
ATOM     26  C   LIG    1       -4.505   6.883   3.156  0.00  0.00    +0.530 A 
ATOM     27  O   LIG    1       -3.629   6.278   3.744  0.00  0.00    -0.440 OA
ENDBRANCH  15  17
ENDBRANCH   2  13
BRANCH   1  28
ATOM     28  C   LIG    1       -0.701   3.657   1.986  0.00  0.00    +0.540 C 
ATOM     29  O   LIG    1        0.075   4.561   1.739  0.00  0.00    -0.490 OA
BRANCH  28  30
ATOM     30  O   LIG    1       -0.710   3.091   3.210  0.00  0.00    -0.340 OA
BRANCH  30  32
ATOM     31  C   LIG    1        0.062   2.842   5.486  0.00  0.00    +0.070 C 
ATOM     32  C   LIG    1        0.219   3.602   4.168  0.00  0.00    +0.200 C 
ENDBRANCH  30  32
ENDBRANCH  28  30
ENDBRANCH   1  28
TORSDOF 6
