REMARK  Name = ZINCqH0000007Dsx.0
REMARK                            x       y       z     vdW  Elec       q    Type
REMARK                         _______ _______ _______ _____ _____    ______ ____
ROOT
ATOM      1  C   LIG    1       -1.256   7.155  -1.031  0.00  0.00    +0.040 C 
ATOM      2  C   LIG    1       -0.348   7.045  -2.258  0.00  0.00    +0.020 C 
ATOM      3  C   LIG    1        1.117   7.074  -1.810  0.00  0.00    +0.280 C 
ATOM      4  N   LIG    1        1.326   6.019  -0.809  0.00  0.00    -0.610 N 
ATOM      5  C   LIG    1        0.443   5.975   0.365  0.00  0.00    +0.270 C 
ATOM      6  C   LIG    1        2.305   5.107  -0.967  0.00  0.00    +0.530 C 
ATOM      7  O   LIG    1        3.082   5.205  -1.893  0.00  0.00    -0.510 OA
ATOM      8  C   LIG    1       -1.010   5.961  -0.105  0.00  0.00    +0.030 C 
ENDROOT
BRANCH   6   9
ATOM      9  C   LIG    1        2.434   3.964   0.006  0.00  0.00    +0.210 C 
ATOM     10  O   LIG    1        3.810   3.613   0.144  0.00  0.00    -0.350 OA
ATOM     11  C   LIG    1        4.013   2.420   0.909  0.00  0.00    +0.230 C 
ATOM     12  C   LIG    1        3.533   1.226   0.082  0.00  0.00    +0.060 C 
ATOM     13  C   LIG    1        2.154   1.504  -0.461  0.00  0.00    -0.060 A 
ATOM     14  C   LIG    1        1.395   0.444  -0.930  0.00  0.00    +0.010 A 
ATOM     15  C   LIG    1        0.132   0.665  -1.443  0.00  0.00    +0.020 A 
ATOM     16  C   LIG    1       -0.381   1.948  -1.479  0.00  0.00    +0.010 A 
ATOM     17  C   LIG    1        0.374   3.005  -1.012  0.00  0.00    +0.010 A 
ATOM     18  C   LIG    1        1.643   2.785  -0.500  0.00  0.00    -0.110 A 
ENDBRANCH   6   9
BRANCH   1  23
ATOM     19  C   LIG    1       -4.832   8.245  -1.581  0.00  0.00    +0.130 A 
ATOM     20  C   LIG    1       -5.343   7.164  -2.283  0.00  0.00    -0.080 A 
ATOM     21  C   LIG    1       -4.531   6.086  -2.577  0.00  0.00    +0.040 A 
ATOM     22  C   LIG    1       -3.208   6.086  -2.177  0.00  0.00    -0.030 A 
ATOM     23  C   LIG    1       -2.697   7.160  -1.472  0.00  0.00    -0.040 A 
ATOM     24  C   LIG    1       -3.505   8.241  -1.175  0.00  0.00    -0.020 A 
BRANCH  19  26
ATOM     25  C   LIG    1       -6.983   9.243  -1.740  0.00  0.00    +0.250 C 
ATOM     26  O   LIG    1       -5.628   9.307  -1.291  0.00  0.00    -0.320 OA
ENDBRANCH  19  26
ENDBRANCH   1  23
TORSDOF 3
