REMARK  Name = ZINCrH000004tNzn.0
REMARK                            x       y       z     vdW  Elec       q    Type
REMARK                         _______ _______ _______ _____ _____    ______ ____
ROOT
ATOM      1  O   LIG    1        3.063   2.145   1.107  0.00  0.00    -0.510 OA
ATOM      2  C   LIG    1        2.164   1.529   0.575  0.00  0.00    +0.510 C 
ATOM      3  N   LIG    1        1.139   2.192   0.003  0.00  0.00    -0.670 N 
ATOM      4  H   LIG    1        0.453   1.704  -0.477  0.00  0.00    +0.420 HD
ENDROOT
BRANCH   3   5
ATOM      5  C   LIG    1        1.067   3.586   0.101  0.00  0.00    +0.140 A 
ATOM      6  C   LIG    1       -0.170   4.210   0.206  0.00  0.00    -0.010 A 
ATOM      7  C   LIG    1       -0.244   5.583   0.309  0.00  0.00    +0.040 A 
ATOM      8  C   LIG    1        0.922   6.346   0.296  0.00  0.00    -0.020 A 
ATOM      9  C   LIG    1        2.162   5.718   0.185  0.00  0.00    +0.070 A 
ATOM     10  C   LIG    1        2.231   4.344   0.088  0.00  0.00    +0.020 A 
BRANCH   8  11
ATOM     11  C   LIG    1        0.845   7.824   0.400  0.00  0.00    +0.090 A 
ATOM     12  C   LIG    1       -0.290   8.556   0.512  0.00  0.00    +0.160 A 
ATOM     13  N   LIG    1        0.084   9.892   0.581  0.00  0.00    -0.420 N 
ATOM     14  C   LIG    1       -0.511  11.128   0.697  0.00  0.00    +0.220 A 
ATOM     15  C   LIG    1        0.257  12.202   0.726  0.00  0.00    +0.010 A 
ATOM     16  S   LIG    1        1.920  11.604   0.593  0.00  0.00    +0.160 S 
ATOM     17  C   LIG    1        1.444   9.901   0.505  0.00  0.00    +0.160 A 
ATOM     18  N   LIG    1        1.892   8.673   0.404  0.00  0.00    -0.440 NA
ENDBRANCH   8  11
ENDBRANCH   3   5
BRANCH   2  19
ATOM     19  C   LIG    1        2.188   0.022   0.559  0.00  0.00    +0.320 C 
BRANCH  19  20
ATOM     20  N   LIG    1        3.396  -0.454   1.239  0.00  0.00    -0.710 N 
ATOM     21  H   LIG    1        4.025   0.183   1.612  0.00  0.00    +0.420 HD
ATOM     22  C   LIG    1        3.631  -1.776   1.347  0.00  0.00    +0.610 C 
ATOM     23  O   LIG    1        2.841  -2.575   0.880  0.00  0.00    -0.510 OA
BRANCH  22  24
ATOM     24  C   LIG    1        4.838  -2.252   2.028  0.00  0.00    -0.060 A 
ATOM     25  C   LIG    1        5.197  -3.558   2.206  0.00  0.00    +0.060 A 
ATOM     26  C   LIG    1        6.415  -3.551   2.902  0.00  0.00    +0.010 A 
ATOM     27  C   LIG    1        6.744  -2.256   3.116  0.00  0.00    +0.000 A 
ATOM     28 BR   LIG    1        8.293  -1.647   4.014  0.00  0.00    +0.070 Br
ATOM     29  O   LIG    1        5.794  -1.477   2.583  0.00  0.00    -0.150 OA
ENDBRANCH  22  24
ENDBRANCH  19  20
ENDBRANCH   2  19
TORSDOF 5
