REMARK  Name = ZINCpk00001AZimo.1
REMARK                            x       y       z     vdW  Elec       q    Type
REMARK                         _______ _______ _______ _____ _____    ______ ____
ROOT
ATOM      1  N   LIG    1       -4.778   1.080   0.025  0.00  0.00    -0.440 N 
ATOM      2  C   LIG    1       -3.550   1.664   0.028  0.00  0.00    +0.570 A 
ATOM      3  N   LIG    1       -3.690   2.975   0.035  0.00  0.00    -0.500 NA
ATOM      4  C   LIG    1       -4.985   3.295   0.043  0.00  0.00    +0.350 A 
ATOM      5  N   LIG    1       -5.673   4.497   0.052  0.00  0.00    -0.510 N 
ATOM      6  C   LIG    1       -4.934   5.763   0.055  0.00  0.00    +0.340 C 
ATOM      7  C   LIG    1       -7.019   4.504   0.060  0.00  0.00    +0.710 A 
ATOM      8  O   LIG    1       -7.606   5.569   0.068  0.00  0.00    -0.530 OA
ATOM      9  N   LIG    1       -7.730   3.363   0.057  0.00  0.00    -0.650 N 
ATOM     10  H   LIG    1       -8.699   3.404   0.062  0.00  0.00    +0.440 HD
ATOM     11  C   LIG    1       -7.116   2.162   0.048  0.00  0.00    +0.600 A 
ATOM     12  O   LIG    1       -7.772   1.135   0.046  0.00  0.00    -0.520 OA
ATOM     13  C   LIG    1       -5.710   2.108   0.041  0.00  0.00    -0.170 A 
ENDROOT
BRANCH   2  14
ATOM     14  N   LIG    1       -2.349   0.993   0.019  0.00  0.00    -0.550 N 
ATOM     15  H   LIG    1       -2.336   0.023   0.013  0.00  0.00    +0.400 HD
BRANCH  14  16
ATOM     16  N   LIG    1       -1.145   1.710   0.017  0.00  0.00    -0.200 NA
ATOM     17  C   LIG    1       -0.013   1.076   0.008  0.00  0.00    +0.240 C 
BRANCH  17  18
ATOM     18  C   LIG    1        1.254   1.830  -0.000  0.00  0.00    -0.070 A 
ATOM     19  C   LIG    1        1.238   3.227   0.002  0.00  0.00    +0.100 A 
ATOM     20  C   LIG    1        2.426   3.928   0.000  0.00  0.00    -0.020 A 
ATOM     21  C   LIG    1        3.634   3.248  -0.015  0.00  0.00    +0.120 A 
ATOM     22  C   LIG    1        3.656   1.862  -0.023  0.00  0.00    -0.020 A 
ATOM     23  F   LIG    1        4.795   3.939  -0.023  0.00  0.00    -0.140 F 
ATOM     24  C   LIG    1        2.475   1.151  -0.015  0.00  0.00    +0.080 A 
ENDBRANCH  17  18
ENDBRANCH  14  16
ENDBRANCH   2  14
BRANCH   1  25
ATOM     25  C   LIG    1       -5.062  -0.357   0.012  0.00  0.00    +0.300 C 
BRANCH  25  27
ATOM     26  C   LIG    1       -5.455  -2.373   1.436  0.00  0.00    +0.040 C 
ATOM     27  C   LIG    1       -5.158  -0.872   1.450  0.00  0.00    +0.010 C 
ENDBRANCH  25  27
ENDBRANCH   1  25
TORSDOF 5
