REMARK  Name = ZINCvU00000007b7.0
REMARK                            x       y       z     vdW  Elec       q    Type
REMARK                         _______ _______ _______ _____ _____    ______ ____
ROOT
ATOM      1  C   LIG    1        4.800   0.923  -0.170  0.00  0.00    -0.010 C 
ATOM      2  C   LIG    1        5.053   0.102   1.098  0.00  0.00    +0.050 C 
ATOM      3  C   LIG    1        6.411  -0.594   0.986  0.00  0.00    +0.210 C 
ATOM      4  N   LIG    1        7.466   0.413   0.815  0.00  0.00    -0.480 N 
ATOM      5  C   LIG    1        7.270   1.182  -0.421  0.00  0.00    +0.200 C 
ATOM      6  C   LIG    1        5.938   1.931  -0.352  0.00  0.00    +0.070 C 
ENDROOT
BRANCH   4   7
ATOM      7  C   LIG    1        8.719  -0.172   0.842  0.00  0.00    +0.410 A 
ATOM      8  C   LIG    1        9.591   0.043   1.938  0.00  0.00    -0.140 A 
ATOM      9  C   LIG    1        9.400   0.821   3.156  0.00  0.00    -0.020 A 
ATOM     10  C   LIG    1       10.438   0.800   3.990  0.00  0.00    -0.010 A 
ATOM     11  S   LIG    1       11.743  -0.185   3.358  0.00  0.00    +0.190 S 
ATOM     12  C   LIG    1       10.838  -0.581   1.905  0.00  0.00    +0.090 A 
ATOM     13  N   LIG    1       11.159  -1.338   0.847  0.00  0.00    -0.490 NA
ATOM     14  C   LIG    1       10.319  -1.503  -0.148  0.00  0.00    +0.540 A 
ATOM     15  N   LIG    1        9.125  -0.938  -0.160  0.00  0.00    -0.550 NA
BRANCH   9  16
ATOM     16  C   LIG    1        8.157   1.578   3.439  0.00  0.00    -0.020 A 
ATOM     17  C   LIG    1        7.707   2.544   2.540  0.00  0.00    +0.090 A 
ATOM     18  C   LIG    1        6.546   3.242   2.806  0.00  0.00    +0.020 A 
ATOM     19  C   LIG    1        5.836   2.992   3.968  0.00  0.00    -0.030 A 
ATOM     20  C   LIG    1        6.282   2.037   4.866  0.00  0.00    +0.010 A 
ATOM     21 CL   LIG    1        4.381   3.879   4.300  0.00  0.00    -0.070 Cl
ATOM     22  C   LIG    1        7.438   1.330   4.607  0.00  0.00    +0.040 A 
ENDBRANCH   9  16
ENDBRANCH   4   7
BRANCH   1  24
ATOM     23  O   LIG    1        3.469   2.870  -0.090  0.00  0.00    -0.510 OA
ATOM     24  C   LIG    1        3.491   1.658  -0.041  0.00  0.00    +0.520 C 
ATOM     25  N   LIG    1        2.345   0.970   0.128  0.00  0.00    -0.670 N 
ATOM     26  H   LIG    1        2.369   0.006   0.235  0.00  0.00    +0.410 HD
BRANCH  25  27
ATOM     27  C   LIG    1        1.119   1.645   0.148  0.00  0.00    +0.140 A 
ATOM     28  C   LIG    1       -0.012   1.050  -0.395  0.00  0.00    -0.030 A 
ATOM     29  C   LIG    1       -1.219   1.721  -0.378  0.00  0.00    +0.030 A 
ATOM     30  C   LIG    1       -1.304   2.979   0.189  0.00  0.00    -0.010 A 
ATOM     31  C   LIG    1       -0.179   3.575   0.730  0.00  0.00    +0.020 A 
ATOM     32  C   LIG    1        1.032   2.911   0.711  0.00  0.00    +0.020 A 
ENDBRANCH  25  27
ENDBRANCH   1  24
TORSDOF 4
