REMARK  Name = ZINCvU00000004yL.0
REMARK                            x       y       z     vdW  Elec       q    Type
REMARK                         _______ _______ _______ _____ _____    ______ ____
ROOT
ATOM      1  C   LIG    1       -2.376   0.791   1.365  0.00  0.00    +0.150 A 
ATOM      2  N   LIG    1       -2.717  -0.027   0.397  0.00  0.00    -0.290 NA
ATOM      3  N   LIG    1       -3.902  -0.480   0.604  0.00  0.00    -0.270 NA
ATOM      4  C   LIG    1       -4.386   0.017   1.707  0.00  0.00    +0.220 A 
ATOM      5  N   LIG    1       -3.429   0.841   2.236  0.00  0.00    -0.410 N 
ENDROOT
BRANCH   5   6
ATOM      6  C   LIG    1       -3.514   1.585   3.423  0.00  0.00    +0.100 A 
ATOM      7  C   LIG    1       -3.610   0.934   4.646  0.00  0.00    +0.050 A 
ATOM      8  C   LIG    1       -3.687   1.668   5.813  0.00  0.00    +0.050 A 
ATOM      9  C   LIG    1       -3.680   3.051   5.764  0.00  0.00    -0.020 A 
ATOM     10  C   LIG    1       -3.590   3.702   4.546  0.00  0.00    +0.060 A 
ATOM     11 CL   LIG    1       -3.783   3.971   7.232  0.00  0.00    -0.050 Cl
ATOM     12  C   LIG    1       -3.507   2.972   3.376  0.00  0.00    +0.060 A 
ENDBRANCH   5   6
BRANCH   4  13
ATOM     13  C   LIG    1       -5.744  -0.269   2.294  0.00  0.00    +0.270 C 
ATOM     14  C   LIG    1       -6.814   0.476   1.492  0.00  0.00    +0.030 C 
BRANCH  13  15
ATOM     15  N   LIG    1       -6.008  -1.713   2.239  0.00  0.00    -0.530 NA
ATOM     16  C   LIG    1       -6.007  -2.196   0.852  0.00  0.00    +0.210 C 
ATOM     17  C   LIG    1       -7.272  -2.043   2.910  0.00  0.00    +0.200 C 
ENDBRANCH  13  15
ENDBRANCH   4  13
BRANCH   1  18
ATOM     18  S   LIG    1       -0.848   1.655   1.518  0.00  0.00    +0.090 S 
BRANCH  18  20
ATOM     19  C   LIG    1       -0.759   1.577  -1.211  0.00  0.00    +0.090 C 
ATOM     20  C   LIG    1       -0.008   1.075   0.024  0.00  0.00    +0.020 C 
BRANCH  20  21
ATOM     21  C   LIG    1        1.403   1.603   0.003  0.00  0.00    +0.540 C 
ATOM     22  N   LIG    1        2.336   1.006  -0.765  0.00  0.00    -0.660 N 
ATOM     23  H   LIG    1        2.116   0.198  -1.254  0.00  0.00    +0.420 HD
ATOM     24  O   LIG    1        1.700   2.567   0.678  0.00  0.00    -0.500 OA
BRANCH  22  25
ATOM     25  C   LIG    1        3.622   1.552  -0.857  0.00  0.00    +0.120 A 
ATOM     26  C   LIG    1        4.194   2.174   0.244  0.00  0.00    +0.080 A 
ATOM     27  C   LIG    1        5.466   2.706   0.153  0.00  0.00    +0.050 A 
ATOM     28  C   LIG    1        6.166   2.631  -1.038  0.00  0.00    -0.020 A 
ATOM     29  C   LIG    1        5.597   2.017  -2.140  0.00  0.00    +0.020 A 
ATOM     30 CL   LIG    1        7.761   3.308  -1.150  0.00  0.00    -0.050 Cl
ATOM     31  C   LIG    1        4.328   1.476  -2.053  0.00  0.00    +0.090 A 
ATOM     32  F   LIG    1        3.772   0.877  -3.129  0.00  0.00    -0.130 F 
ENDBRANCH  22  25
ENDBRANCH  20  21
ENDBRANCH  18  20
ENDBRANCH   1  18
TORSDOF 7
