REMARK  Name = ZINCpe000000T4hu.0
REMARK                            x       y       z     vdW  Elec       q    Type
REMARK                         _______ _______ _______ _____ _____    ______ ____
ROOT
ATOM      1  C   LIG    1       -0.759   9.793  -2.251  0.00  0.00    +0.520 C 
ATOM      2  N   LIG    1       -1.022   8.597  -1.690  0.00  0.00    -0.690 N 
ATOM      3  H   LIG    1       -1.108   7.808  -2.247  0.00  0.00    +0.410 HD
ATOM      4  C   LIG    1       -1.164   8.496  -0.353  0.00  0.00    +0.690 C 
ATOM      5  N   LIG    1       -1.427   7.300   0.209  0.00  0.00    -0.730 N 
ATOM      6  H   LIG    1       -1.514   6.511  -0.349  0.00  0.00    +0.400 HD
ATOM      7  O   LIG    1       -1.055   9.485   0.346  0.00  0.00    -0.530 OA
ATOM      8  O   LIG    1       -0.650  10.779  -1.554  0.00  0.00    -0.460 OA
ENDROOT
BRANCH   1   9
ATOM      9  C   LIG    1       -0.600   9.905  -3.746  0.00  0.00    +0.020 C 
BRANCH   9  10
ATOM     10  C   LIG    1       -0.309  11.360  -4.120  0.00  0.00    +0.260 C 
BRANCH  10  18
ATOM     11  C   LIG    1       -1.374  11.144  -6.283  0.00  0.00    +0.150 C 
ATOM     12  C   LIG    1       -1.127  11.107  -7.765  0.00  0.00    +0.530 C 
ATOM     13  N   LIG    1        0.098  11.006  -8.291  0.00  0.00    -0.720 N 
ATOM     14  H   LIG    1        0.186  10.962  -9.256  0.00  0.00    +0.400 HD
ATOM     15  C   LIG    1        1.310  10.957  -7.478  0.00  0.00    +0.270 C 
ATOM     16  C   LIG    1        0.959  10.587  -6.035  0.00  0.00    +0.180 C 
ATOM     17  O   LIG    1       -2.078  11.172  -8.515  0.00  0.00    -0.540 OA
ATOM     18  N   LIG    1       -0.129  11.465  -5.574  0.00  0.00    -0.520 NA
BRANCH  11  20
ATOM     19  C   LIG    1       -1.987  13.550  -6.566  0.00  0.00    +0.020 C 
ATOM     20  C   LIG    1       -2.426  12.211  -5.971  0.00  0.00    +0.000 C 
ATOM     21  C   LIG    1       -3.768  11.798  -6.579  0.00  0.00    +0.030 C 
ENDBRANCH  11  20
ENDBRANCH  10  18
ENDBRANCH   9  10
ENDBRANCH   1   9
BRANCH   5  22
ATOM     22  C   LIG    1       -1.581   7.191   1.661  0.00  0.00    +0.340 C 
BRANCH  22  23
ATOM     23  C   LIG    1       -1.868   5.758   2.030  0.00  0.00    -0.110 A 
ATOM     24  C   LIG    1       -0.825   4.894   2.309  0.00  0.00    +0.020 A 
ATOM     25  C   LIG    1       -1.088   3.580   2.646  0.00  0.00    +0.010 A 
ATOM     26  C   LIG    1       -2.393   3.129   2.705  0.00  0.00    +0.010 A 
ATOM     27  C   LIG    1       -3.436   3.991   2.422  0.00  0.00    +0.010 A 
ATOM     28  C   LIG    1       -3.173   5.307   2.089  0.00  0.00    +0.020 A 
ENDBRANCH  22  23
ENDBRANCH   5  22
TORSDOF 6
