REMARK  Name = ZINCqH0000002nsf.0
REMARK                            x       y       z     vdW  Elec       q    Type
REMARK                         _______ _______ _______ _____ _____    ______ ____
ROOT
ATOM      1  C   LIG    1        2.606   3.812   3.059  0.00  0.00    +0.060 C 
ENDROOT
BRANCH   1   3
ATOM      2  N   LIG    1        1.271   1.774   2.630  0.00  0.00    -0.610 N 
ATOM      3  C   LIG    1        1.295   3.108   2.818  0.00  0.00    +0.520 C 
ATOM      4  O   LIG    1        0.262   3.743   2.792  0.00  0.00    -0.540 OA
BRANCH   2   5
ATOM      5  C   LIG    1       -0.011   1.075   2.506  0.00  0.00    +0.230 C 
ATOM      6  C   LIG    1       -0.035   0.283   1.197  0.00  0.00    +0.030 C 
BRANCH   5   7
ATOM      7  C   LIG    1       -0.184   0.116   3.686  0.00  0.00    +0.010 C 
BRANCH   7   8
ATOM      8  C   LIG    1       -0.295   0.919   4.984  0.00  0.00    +0.000 C 
ATOM      9  C   LIG    1       -0.468  -0.040   6.163  0.00  0.00    +0.000 C 
ENDBRANCH   7   8
ENDBRANCH   5   7
ENDBRANCH   2   5
BRANCH   2  10
ATOM     10  C   LIG    1        2.526   1.023   2.549  0.00  0.00    +0.270 C 
BRANCH  10  11
ATOM     11  C   LIG    1        2.991   0.962   1.093  0.00  0.00    -0.010 C 
BRANCH  11  12
ATOM     12  C   LIG    1        4.302   0.177   1.008  0.00  0.00    +0.000 C 
BRANCH  12  14
ATOM     13  C   LIG    1        6.078  -0.668  -0.532  0.00  0.00    +0.000 C 
ATOM     14  C   LIG    1        4.767   0.116  -0.448  0.00  0.00    +0.000 C 
ENDBRANCH  12  14
ENDBRANCH  11  12
ENDBRANCH  10  11
ENDBRANCH   2  10
ENDBRANCH   1   3
BRANCH   1  15
ATOM     15  C   LIG    1        2.344   5.289   3.360  0.00  0.00    +0.110 C 
BRANCH  15  16
ATOM     16  C   LIG    1        3.655   5.992   3.602  0.00  0.00    -0.020 A 
ATOM     17  C   LIG    1        4.174   6.067   4.881  0.00  0.00    -0.010 A 
ATOM     18  C   LIG    1        5.378   6.708   5.102  0.00  0.00    +0.120 A 
ATOM     19  C   LIG    1        6.059   7.282   4.045  0.00  0.00    -0.680 A 
ATOM     20  C   LIG    1        5.538   7.212   2.766  0.00  0.00    +0.130 A 
ATOM     21  C   LIG    1        4.336   6.567   2.545  0.00  0.00    -0.010 A 
BRANCH  19  22
ATOM     22  S   LIG    1        7.592   8.105   4.327  0.00  0.00    +2.700 S 
ATOM     23  O   LIG    1        8.290   8.088   3.090  0.00  0.00    -0.960 OA
ATOM     24  O   LIG    1        8.124   7.561   5.527  0.00  0.00    -0.950 OA
BRANCH  22  25
ATOM     25  N   LIG    1        7.245   9.692   4.646  0.00  0.00    -1.120 NA
ATOM     26  H   LIG    1        7.541  10.385   4.036  0.00  0.00    +0.420 HD
ATOM     27  C   LIG    1        6.492  10.049   5.851  0.00  0.00    +0.290 C 
ENDBRANCH  22  25
ENDBRANCH  19  22
ENDBRANCH  15  16
ENDBRANCH   1  15
TORSDOF 12
