REMARK  Name = ZINCAx0000000c9s.0
REMARK                            x       y       z     vdW  Elec       q    Type
REMARK                         _______ _______ _______ _____ _____    ______ ____
ROOT
ATOM      1  C   LIG    1       -1.589  10.146  -0.045  0.00  0.00    -0.050 A 
ATOM      2  C   LIG    1       -0.854   9.218   0.699  0.00  0.00    +0.050 A 
ATOM      3  C   LIG    1       -1.060   7.867   0.523  0.00  0.00    +0.150 A 
ATOM      4  C   LIG    1       -2.006   7.428  -0.401  0.00  0.00    -0.170 A 
ATOM      5  C   LIG    1       -2.263   5.991  -0.619  0.00  0.00    +0.560 A 
ATOM      6  N   LIG    1       -3.190   5.638  -1.535  0.00  0.00    -0.510 N 
ATOM      7  C   LIG    1       -3.873   6.564  -2.227  0.00  0.00    +0.710 A 
ATOM      8  N   LIG    1       -3.681   7.884  -2.064  0.00  0.00    -0.640 N 
ATOM      9  H   LIG    1       -4.200   8.513  -2.589  0.00  0.00    +0.440 HD
ATOM     10  O   LIG    1       -4.700   6.192  -3.037  0.00  0.00    -0.520 OA
ATOM     11  O   LIG    1       -1.653   5.146   0.008  0.00  0.00    -0.470 OA
ATOM     12  C   LIG    1       -2.747   8.356  -1.152  0.00  0.00    +0.200 A 
ATOM     13  C   LIG    1       -2.536   9.713  -0.971  0.00  0.00    +0.010 A 
ENDROOT
BRANCH   1  19
ATOM     14  N   LIG    1       -4.451  14.045   1.173  0.00  0.00    -0.490 N 
ATOM     15  C   LIG    1       -3.056  14.458   1.377  0.00  0.00    +0.190 C 
ATOM     16  C   LIG    1       -2.191  13.901   0.241  0.00  0.00    +0.310 C 
ATOM     17  N   LIG    1       -2.404  12.448   0.162  0.00  0.00    -0.610 N 
ATOM     18  C   LIG    1       -3.785  11.950   0.089  0.00  0.00    +0.300 C 
ATOM     19  C   LIG    1       -1.359  11.595   0.152  0.00  0.00    +0.560 C 
ATOM     20  O   LIG    1       -0.230  12.016   0.304  0.00  0.00    -0.510 OA
ATOM     21  C   LIG    1       -4.588  12.584   1.236  0.00  0.00    +0.190 C 
BRANCH  14  28
ATOM     22  C   LIG    1       -5.481  16.055   2.048  0.00  0.00    -0.080 A 
ATOM     23  C   LIG    1       -6.335  16.665   2.974  0.00  0.00    +0.170 A 
ATOM     24  C   LIG    1       -6.977  15.897   3.926  0.00  0.00    -0.020 A 
ATOM     25  C   LIG    1       -6.783  14.527   3.966  0.00  0.00    +0.120 A 
ATOM     26  C   LIG    1       -5.947  13.911   3.055  0.00  0.00    -0.040 A 
ATOM     27  F   LIG    1       -6.527  18.001   2.940  0.00  0.00    -0.120 F 
ATOM     28  C   LIG    1       -5.293  14.664   2.090  0.00  0.00    +0.180 A 
BRANCH  22  30
ATOM     29  N   LIG    1       -4.272  17.470   0.278  0.00  0.00    -0.400 NA
ATOM     30  C   LIG    1       -4.807  16.844   1.061  0.00  0.00    +0.260 C 
ENDBRANCH  22  30
ENDBRANCH  14  28
ENDBRANCH   1  19
BRANCH   6  31
ATOM     31  C   LIG    1       -3.449   4.279  -1.764  0.00  0.00    +0.110 A 
ATOM     32  C   LIG    1       -2.483   3.479  -2.359  0.00  0.00    +0.080 A 
ATOM     33  C   LIG    1       -2.740   2.140  -2.584  0.00  0.00    +0.010 A 
ATOM     34  C   LIG    1       -3.960   1.597  -2.216  0.00  0.00    +0.120 A 
ATOM     35  C   LIG    1       -4.926   2.396  -1.627  0.00  0.00    +0.010 A 
ATOM     36  F   LIG    1       -4.210   0.288  -2.437  0.00  0.00    -0.130 F 
ATOM     37  C   LIG    1       -4.671   3.733  -1.396  0.00  0.00    +0.080 A 
ENDBRANCH   6  31
TORSDOF 4
