REMARK  Name = ZINCvU00000009su.0
REMARK                            x       y       z     vdW  Elec       q    Type
REMARK                         _______ _______ _______ _____ _____    ______ ____
ROOT
ATOM      1  N   LIG    1       -2.620   2.245   1.286  0.00  0.00    -0.670 N 
ATOM      2  H   LIG    1       -2.350   1.344   1.051  0.00  0.00    +0.410 HD
ATOM      3  C   LIG    1       -3.920   2.595   1.227  0.00  0.00    +0.530 C 
ATOM      4  O   LIG    1       -4.248   3.745   1.431  0.00  0.00    -0.490 OA
ENDROOT
BRANCH   1   8
ATOM      5  C   LIG    1        0.235   5.037   2.477  0.00  0.00    -0.110 A 
ATOM      6  C   LIG    1        0.570   4.040   1.553  0.00  0.00    +0.080 A 
ATOM      7  C   LIG    1       -0.375   3.117   1.166  0.00  0.00    -0.020 A 
ATOM      8  C   LIG    1       -1.664   3.178   1.687  0.00  0.00    +0.170 A 
ATOM      9  C   LIG    1       -2.001   4.164   2.609  0.00  0.00    +0.010 A 
ATOM     10  C   LIG    1       -1.062   5.090   3.003  0.00  0.00    +0.070 A 
BRANCH   5  12
ATOM     11  C   LIG    1        0.914   6.985   3.785  0.00  0.00    -0.080 C 
ATOM     12  C   LIG    1        1.240   6.024   2.894  0.00  0.00    +0.160 C 
BRANCH  11  13
ATOM     13  C   LIG    1        1.885   7.938   4.187  0.00  0.00    +0.500 C 
ATOM     14  O   LIG    1        3.010   7.889   3.729  0.00  0.00    -0.520 OA
BRANCH  13  15
ATOM     15  O   LIG    1        1.559   8.898   5.078  0.00  0.00    -0.350 OA
BRANCH  15  17
ATOM     16  C   LIG    1        2.034  10.830   6.449  0.00  0.00    +0.070 C 
ATOM     17  C   LIG    1        2.586   9.824   5.438  0.00  0.00    +0.200 C 
ENDBRANCH  15  17
ENDBRANCH  13  15
ENDBRANCH  11  13
ENDBRANCH   5  12
ENDBRANCH   1   8
BRANCH   3  18
ATOM     18  C   LIG    1       -4.966   1.558   0.908  0.00  0.00    +0.100 C 
BRANCH  18  19
ATOM     19  S   LIG    1       -6.606   2.335   0.902  0.00  0.00    -0.140 S 
BRANCH  19  20
ATOM     20  C   LIG    1       -7.711   0.952   0.506  0.00  0.00    +0.110 C 
BRANCH  20  21
ATOM     21  C   LIG    1       -7.418   0.458  -0.887  0.00  0.00    -0.090 A 
ATOM     22  C   LIG    1       -7.391   1.348  -1.945  0.00  0.00    +0.030 A 
ATOM     23  C   LIG    1       -7.117   0.895  -3.222  0.00  0.00    +0.000 A 
ATOM     24  C   LIG    1       -6.881  -0.449  -3.443  0.00  0.00    +0.000 A 
ATOM     25  C   LIG    1       -6.912  -1.339  -2.386  0.00  0.00    +0.000 A 
ATOM     26  C   LIG    1       -7.181  -0.886  -1.108  0.00  0.00    +0.010 A 
ENDBRANCH  20  21
BRANCH  20  27
ATOM     27  C   LIG    1       -9.143   1.416   0.584  0.00  0.00    -0.060 A 
ATOM     28  C   LIG    1       -9.545   2.538  -0.116  0.00  0.00    +0.030 A 
ATOM     29  C   LIG    1      -10.860   2.960  -0.048  0.00  0.00    +0.010 A 
ATOM     30  C   LIG    1      -11.770   2.266   0.727  0.00  0.00    +0.010 A 
ATOM     31  C   LIG    1      -11.366   1.147   1.431  0.00  0.00    +0.010 A 
ATOM     32  C   LIG    1      -10.053   0.721   1.359  0.00  0.00    +0.020 A 
ENDBRANCH  20  27
ENDBRANCH  19  20
ENDBRANCH  18  19
ENDBRANCH   3  18
TORSDOF 10
