REMARK  Name = ZINCqH0000051b3o.0
REMARK                            x       y       z     vdW  Elec       q    Type
REMARK                         _______ _______ _______ _____ _____    ______ ____
ROOT
ATOM      1  C   LIG    1        6.178  -0.551  -0.153  0.00  0.00    +0.270 C 
ENDROOT
BRANCH   1   3
ATOM      2  O   LIG    1        7.089   1.616  -0.355  0.00  0.00    -0.510 OA
ATOM      3  C   LIG    1        7.316   0.427  -0.280  0.00  0.00    +0.520 C 
ATOM      4  N   LIG    1        8.588  -0.019  -0.309  0.00  0.00    -0.730 N 
ATOM      5  H   LIG    1        8.770  -0.970  -0.249  0.00  0.00    +0.400 HD
BRANCH   4   6
ATOM      6  C   LIG    1        9.695   0.932  -0.432  0.00  0.00    +0.260 C 
BRANCH   6   7
ATOM      7  C   LIG    1       11.023   0.172  -0.441  0.00  0.00    +0.010 C 
BRANCH   7   8
ATOM      8  C   LIG    1       12.179   1.165  -0.570  0.00  0.00    +0.080 C 
BRANCH   8   9
ATOM      9  C   LIG    1       13.486   0.416  -0.579  0.00  0.00    -0.080 A 
ATOM     10  C   LIG    1       14.147   0.164   0.609  0.00  0.00    +0.000 A 
ATOM     11  C   LIG    1       15.344  -0.528   0.601  0.00  0.00    +0.000 A 
ATOM     12  C   LIG    1       15.886  -0.958  -0.596  0.00  0.00    +0.000 A 
ATOM     13  C   LIG    1       15.228  -0.701  -1.784  0.00  0.00    +0.000 A 
ATOM     14  C   LIG    1       14.028  -0.014  -1.776  0.00  0.00    +0.000 A 
ENDBRANCH   8   9
ENDBRANCH   7   8
ENDBRANCH   6   7
ENDBRANCH   4   6
ENDBRANCH   1   3
BRANCH   1  15
ATOM     15  O   LIG    1        4.918   0.171  -0.144  0.00  0.00    -0.330 OA
BRANCH  15  16
ATOM     16  C   LIG    1        3.793  -0.564  -0.036  0.00  0.00    +0.520 C 
ATOM     17  O   LIG    1        3.862  -1.774   0.049  0.00  0.00    -0.500 OA
BRANCH  16  18
ATOM     18  C   LIG    1        2.478   0.101  -0.021  0.00  0.00    -0.130 A 
ATOM     19  C   LIG    1        2.384   1.487   0.003  0.00  0.00    +0.110 A 
ATOM     20  C   LIG    1        1.144   2.111   0.017  0.00  0.00    -0.010 A 
ATOM     21  C   LIG    1       -0.017   1.401   0.010  0.00  0.00    +0.070 A 
ATOM     22  C   LIG    1        0.002  -0.004  -0.013  0.00  0.00    -0.070 A 
ATOM     23  C   LIG    1       -1.188  -0.751  -0.021  0.00  0.00    +0.030 A 
ATOM     24  C   LIG    1       -1.129  -2.111  -0.044  0.00  0.00    +0.010 A 
ATOM     25  C   LIG    1        0.094  -2.776  -0.059  0.00  0.00    +0.030 A 
ATOM     26  C   LIG    1        1.268  -2.083  -0.052  0.00  0.00    +0.040 A 
ATOM     27  C   LIG    1        1.245  -0.683  -0.029  0.00  0.00    -0.010 A 
ENDBRANCH  16  18
ENDBRANCH  15  16
ENDBRANCH   1  15
TORSDOF 8
