REMARK  Name = ZINCpe00000VVGaO.0
REMARK                            x       y       z     vdW  Elec       q    Type
REMARK                         _______ _______ _______ _____ _____    ______ ____
ROOT
ATOM      1  C   LIG    1       -2.522   1.248  -0.086  0.00  0.00    +0.210 C 
ATOM      2  C   LIG    1       -3.495   2.446  -0.042  0.00  0.00    +0.050 C 
ATOM      3  C   LIG    1       -2.671   3.538   0.690  0.00  0.00    +0.040 C 
ATOM      4  C   LIG    1       -1.242   3.254   0.166  0.00  0.00    +0.250 C 
ATOM      5  N   LIG    1       -1.162   1.785   0.065  0.00  0.00    -0.610 N 
ATOM      6  C   LIG    1       -0.029   1.056   0.100  0.00  0.00    +0.520 C 
ATOM      7  O   LIG    1       -0.088  -0.156   0.100  0.00  0.00    -0.520 OA
ENDROOT
BRANCH   1   8
ATOM      8  C   LIG    1       -2.649   0.520  -1.426  0.00  0.00    +0.330 C 
BRANCH   8  15
ATOM      9  C   LIG    1       -3.429  -2.262  -0.302  0.00  0.00    +0.150 C 
ATOM     10  C   LIG    1       -4.328  -1.303  -1.040  0.00  0.00    +0.090 A 
ATOM     11  C   LIG    1       -5.635  -1.499  -1.333  0.00  0.00    -0.120 A 
ATOM     12  C   LIG    1       -6.093  -0.375  -2.028  0.00  0.00    +0.070 A 
ATOM     13  N   LIG    1       -5.099   0.468  -2.143  0.00  0.00    -0.300 NA
ATOM     14  C   LIG    1       -7.491  -0.171  -2.553  0.00  0.00    +0.160 C 
ATOM     15  N   LIG    1       -3.975  -0.094  -1.524  0.00  0.00    -0.370 N 
ENDBRANCH   8  15
ENDBRANCH   1   8
BRANCH   6  16
ATOM     16  C   LIG    1        1.310   1.745   0.133  0.00  0.00    +0.360 C 
BRANCH  16  17
ATOM     17  N   LIG    1        2.376   0.741   0.161  0.00  0.00    -0.560 N 
ATOM     18  C   LIG    1        2.899   0.231   1.282  0.00  0.00    +0.710 C 
ATOM     19  N   LIG    1        3.862  -0.676   1.034  0.00  0.00    -0.720 N 
ATOM     20  H   LIG    1        4.374  -1.171   1.692  0.00  0.00    +0.440 HD
ATOM     21  C   LIG    1        3.990  -0.764  -0.431  0.00  0.00    +0.120 C 
ATOM     22  C   LIG    1        5.393  -0.349  -0.878  0.00  0.00    +0.090 C 
ATOM     23  C   LIG    1        3.669  -2.180  -0.914  0.00  0.00    +0.080 C 
ATOM     24  O   LIG    1        2.542   0.549   2.400  0.00  0.00    -0.540 OA
ATOM     25  C   LIG    1        2.955   0.220  -0.939  0.00  0.00    +0.540 C 
ATOM     26  O   LIG    1        2.701   0.484  -2.095  0.00  0.00    -0.460 OA
ENDBRANCH  16  17
ENDBRANCH   6  16
TORSDOF 4
