REMARK  Name = ZINCrH000004nnTd.0
REMARK                            x       y       z     vdW  Elec       q    Type
REMARK                         _______ _______ _______ _____ _____    ______ ____
ROOT
ATOM      1  N   LIG    1        5.551   1.877   3.531  0.00  0.00    -0.490 N 
ATOM      2  C   LIG    1        5.965   0.648   2.839  0.00  0.00    +0.200 C 
ATOM      3  C   LIG    1        5.491   0.701   1.385  0.00  0.00    +0.200 C 
ATOM      4  N   LIG    1        4.030   0.854   1.353  0.00  0.00    -0.540 NA
ATOM      5  C   LIG    1        3.616   2.083   2.045  0.00  0.00    +0.200 C 
ATOM      6  C   LIG    1        4.090   2.030   3.499  0.00  0.00    +0.200 C 
ENDROOT
BRANCH   1  11
ATOM      7  C   LIG    1        6.222   2.994   6.971  0.00  0.00    +0.150 A 
ATOM      8  C   LIG    1        6.979   1.932   7.446  0.00  0.00    -0.100 A 
ATOM      9  C   LIG    1        7.259   0.858   6.622  0.00  0.00    +0.080 A 
ATOM     10  C   LIG    1        6.787   0.837   5.324  0.00  0.00    -0.080 A 
ATOM     11  C   LIG    1        6.029   1.898   4.843  0.00  0.00    +0.150 A 
ATOM     12  C   LIG    1        5.752   2.980   5.667  0.00  0.00    -0.040 A 
BRANCH   7  14
ATOM     13  C   LIG    1        6.469   3.999   9.111  0.00  0.00    +0.250 C 
ATOM     14  O   LIG    1        5.947   4.049   7.781  0.00  0.00    -0.320 OA
ENDBRANCH   7  14
ENDBRANCH   1  11
BRANCH   4  15
ATOM     15  C   LIG    1        3.528   0.832  -0.027  0.00  0.00    +0.350 C 
BRANCH  15  16
ATOM     16  C   LIG    1        2.023   0.744  -0.013  0.00  0.00    +0.180 A 
ATOM     17  N   LIG    1        1.193   1.749   0.000  0.00  0.00    -0.280 NA
ATOM     18  N   LIG    1       -0.016   1.308   0.009  0.00  0.00    -0.270 NA
ATOM     19  C   LIG    1        0.002  -0.004   0.002  0.00  0.00    +0.210 A 
ATOM     20  O   LIG    1        1.295  -0.386  -0.012  0.00  0.00    -0.210 OA
BRANCH  19  21
ATOM     21  C   LIG    1       -1.176  -0.897   0.008  0.00  0.00    -0.020 A 
ATOM     22  C   LIG    1       -1.005  -2.282  -0.007  0.00  0.00    +0.070 A 
ATOM     23  C   LIG    1       -2.108  -3.110   0.003  0.00  0.00    +0.040 A 
ATOM     24  C   LIG    1       -3.383  -2.570   0.018  0.00  0.00    -0.010 A 
ATOM     25  C   LIG    1       -3.559  -1.196   0.028  0.00  0.00    +0.040 A 
ATOM     26 CL   LIG    1       -4.767  -3.619   0.025  0.00  0.00    -0.050 Cl
ATOM     27  C   LIG    1       -2.463  -0.358   0.023  0.00  0.00    +0.100 A 
ENDBRANCH  19  21
ENDBRANCH  15  16
ENDBRANCH   4  15
TORSDOF 5
