REMARK  Name = ZINCpe000000YiNS.1
REMARK                            x       y       z     vdW  Elec       q    Type
REMARK                         _______ _______ _______ _____ _____    ______ ____
ROOT
ATOM      1  S   LIG    1       -2.165   1.409   7.246  0.00  0.00    +2.720 S 
ATOM      2  O   LIG    1       -2.645   0.261   6.560  0.00  0.00    -0.950 OA
ATOM      3  O   LIG    1       -2.961   2.165   8.148  0.00  0.00    -0.950 OA
ENDROOT
BRANCH   1   7
ATOM      4  C   LIG    1        2.158  -1.192   8.748  0.00  0.00    +0.350 C 
ATOM      5  N   LIG    1        1.063  -0.218   8.750  0.00  0.00    -0.400 N 
ATOM      6  C   LIG    1        0.086  -0.126   7.816  0.00  0.00    +0.340 A 
ATOM      7  C   LIG    1       -0.744   0.891   8.149  0.00  0.00    -0.750 A 
ATOM      8  C   LIG    1       -0.276   1.453   9.341  0.00  0.00    +0.110 A 
ATOM      9  C   LIG    1        0.853   0.750   9.705  0.00  0.00    -0.060 A 
BRANCH   9  10
ATOM     10  C   LIG    1        1.679   0.992  10.893  0.00  0.00    +0.600 C 
ATOM     11  O   LIG    1        2.592   0.234  11.163  0.00  0.00    -0.550 OA
ATOM     12  N   LIG    1        1.427   2.052  11.685  0.00  0.00    -0.840 N 
ATOM     13  H   LIG    1        2.016   2.252  12.429  0.00  0.00    +0.410 HD
ATOM     14  H   LIG    1        0.656   2.615  11.511  0.00  0.00    +0.410 HD
ENDBRANCH   9  10
ENDBRANCH   1   7
BRANCH   1  15
ATOM     15  N   LIG    1       -1.647   2.466   6.081  0.00  0.00    -1.060 N 
ATOM     16  H   LIG    1       -1.936   3.392   6.103  0.00  0.00    +0.430 HD
BRANCH  15  17
ATOM     17  C   LIG    1       -0.793   2.025   5.067  0.00  0.00    +0.160 A 
ATOM     18  C   LIG    1       -1.291   1.247   4.029  0.00  0.00    +0.020 A 
ATOM     19  C   LIG    1       -0.447   0.810   3.026  0.00  0.00    +0.060 A 
ATOM     20  C   LIG    1        0.892   1.149   3.050  0.00  0.00    -0.020 A 
ATOM     21  C   LIG    1        1.397   1.922   4.088  0.00  0.00    +0.180 A 
ATOM     22  C   LIG    1        0.553   2.363   5.096  0.00  0.00    +0.010 A 
BRANCH  21  23
ATOM     23  N   LIG    1        2.755   2.261   4.114  0.00  0.00    -0.570 N 
ATOM     24  C   LIG    1        3.755   1.861   3.112  0.00  0.00    +0.260 C 
ATOM     25  C   LIG    1        5.064   2.495   3.622  0.00  0.00    +0.260 C 
ATOM     26  O   LIG    1        4.670   3.181   4.846  0.00  0.00    -0.320 OA
ATOM     27  C   LIG    1        3.360   3.005   5.054  0.00  0.00    +0.640 C 
ATOM     28  O   LIG    1        2.772   3.473   6.008  0.00  0.00    -0.500 OA
ENDBRANCH  21  23
ENDBRANCH  15  17
ENDBRANCH   1  15
TORSDOF 5
