REMARK  Name = ZINCrH000004mrPy.0
REMARK                            x       y       z     vdW  Elec       q    Type
REMARK                         _______ _______ _______ _____ _____    ______ ____
ROOT
ATOM      1  C   LIG    1       -0.060   5.351   0.031  0.00  0.00    +0.280 C 
ATOM      2  C   LIG    1       -0.136   5.867   1.484  0.00  0.00    +0.050 C 
ATOM      3  C   LIG    1        0.792   7.110   1.460  0.00  0.00    +0.040 C 
ATOM      4  C   LIG    1        1.897   6.655   0.474  0.00  0.00    +0.250 C 
ATOM      5  N   LIG    1        1.185   5.869  -0.554  0.00  0.00    -0.610 N 
ATOM      6  C   LIG    1        1.606   5.658  -1.817  0.00  0.00    +0.540 C 
ATOM      7  O   LIG    1        0.936   4.991  -2.576  0.00  0.00    -0.500 OA
ENDROOT
BRANCH   1  14
ATOM      8  C   LIG    1       -1.237   3.137   0.030  0.00  0.00    +0.160 A 
ATOM      9  C   LIG    1       -1.219   1.750   0.017  0.00  0.00    -0.060 A 
ATOM     10  C   LIG    1       -0.013   1.076   0.008  0.00  0.00    +0.090 A 
ATOM     11  C   LIG    1        1.176   1.783   0.000  0.00  0.00    -0.120 A 
ATOM     12  C   LIG    1        1.160   3.167   0.008  0.00  0.00    +0.090 A 
ATOM     13 BR   LIG    1        2.825   0.858  -0.020  0.00  0.00    -0.050 Br
ATOM     14  C   LIG    1       -0.043   3.844   0.023  0.00  0.00    -0.110 A 
BRANCH   8  16
ATOM     15  C   LIG    1       -3.611   3.009   0.051  0.00  0.00    +0.240 C 
ATOM     16  O   LIG    1       -2.422   3.802   0.045  0.00  0.00    -0.310 OA
ENDBRANCH   8  16
ENDBRANCH   1  14
BRANCH   6  17
ATOM     17  C   LIG    1        2.909   6.252  -2.286  0.00  0.00    +0.150 C 
ATOM     18  C   LIG    1        2.793   7.786  -2.446  0.00  0.00    +0.100 C 
ATOM     19  C   LIG    1        3.628   8.053  -3.683  0.00  0.00    +0.140 C 
ATOM     20  N   LIG    1        3.823   6.931  -4.290  0.00  0.00    -0.260 NA
ATOM     21  O   LIG    1        3.209   5.838  -3.635  0.00  0.00    -0.150 OA
BRANCH  19  22
ATOM     22  C   LIG    1        4.132   9.371  -4.120  0.00  0.00    +0.170 A 
ATOM     23  C   LIG    1        4.897   9.469  -5.282  0.00  0.00    +0.020 A 
ATOM     24  C   LIG    1        5.359  10.713  -5.681  0.00  0.00    +0.070 A 
ATOM     25  C   LIG    1        5.048  11.816  -4.899  0.00  0.00    -0.010 A 
ATOM     26  C   LIG    1        4.288  11.646  -3.755  0.00  0.00    +0.280 A 
ATOM     27  N   LIG    1        3.857  10.453  -3.400  0.00  0.00    -0.460 NA
ENDBRANCH  19  22
ENDBRANCH   6  17
TORSDOF 4
