REMARK  Name = ZINCqH0000007eT4.0
REMARK                            x       y       z     vdW  Elec       q    Type
REMARK                         _______ _______ _______ _____ _____    ______ ____
ROOT
ATOM      1  C   LIG    1       -2.088   6.425   0.860  0.00  0.00    +0.530 C 
ATOM      2  N   LIG    1       -1.410   6.126  -0.266  0.00  0.00    -0.600 N 
ATOM      3  C   LIG    1       -2.058   6.274  -1.571  0.00  0.00    +0.290 C 
ATOM      4  O   LIG    1       -1.551   6.303   1.941  0.00  0.00    -0.520 OA
ENDROOT
BRANCH   1   5
ATOM      5  C   LIG    1       -3.511   6.912   0.776  0.00  0.00    +0.130 C 
BRANCH   5  12
ATOM      6  C   LIG    1       -3.795   8.394   2.779  0.00  0.00    +0.150 A 
ATOM      7  C   LIG    1       -4.279   8.632   4.057  0.00  0.00    -0.060 A 
ATOM      8  C   LIG    1       -4.999   7.654   4.716  0.00  0.00    +0.070 A 
ATOM      9  C   LIG    1       -5.237   6.438   4.102  0.00  0.00    -0.070 A 
ATOM     10  C   LIG    1       -4.761   6.200   2.824  0.00  0.00    +0.080 A 
ATOM     11 CL   LIG    1       -6.142   5.211   4.931  0.00  0.00    -0.070 Cl
ATOM     12  C   LIG    1       -4.036   7.174   2.165  0.00  0.00    -0.090 A 
BRANCH   6  14
ATOM     13  C   LIG    1       -2.878  10.587   2.822  0.00  0.00    +0.250 C 
ATOM     14  O   LIG    1       -3.087   9.355   2.129  0.00  0.00    -0.310 OA
ENDBRANCH   6  14
ENDBRANCH   5  12
ENDBRANCH   1   5
BRANCH   2  15
ATOM     15  C   LIG    1       -0.026   5.653  -0.184  0.00  0.00    +0.330 C 
BRANCH  15  16
ATOM     16  C   LIG    1       -0.014   4.150  -0.078  0.00  0.00    +0.500 C 
ATOM     17  N   LIG    1        1.157   3.490   0.009  0.00  0.00    -0.670 N 
ATOM     18  H   LIG    1        1.988   3.984   0.085  0.00  0.00    +0.410 HD
ATOM     19  O   LIG    1       -1.060   3.534  -0.072  0.00  0.00    -0.500 OA
BRANCH  17  20
ATOM     20  C   LIG    1        1.175   2.088  -0.009  0.00  0.00    +0.170 A 
ATOM     21  C   LIG    1        0.140   1.388  -0.609  0.00  0.00    +0.030 A 
ATOM     22  C   LIG    1        0.160   0.005  -0.627  0.00  0.00    +0.030 A 
ATOM     23  C   LIG    1        1.209  -0.683  -0.046  0.00  0.00    +0.010 A 
ATOM     24  C   LIG    1        2.245   0.007   0.555  0.00  0.00    +0.020 A 
ATOM     25  C   LIG    1        2.235   1.394   0.577  0.00  0.00    -0.120 A 
BRANCH  25  26
ATOM     26  S   LIG    1        3.554   2.276   1.341  0.00  0.00    -0.130 S 
ATOM     27  C   LIG    1        4.643   0.951   1.931  0.00  0.00    +0.150 C 
ENDBRANCH  25  26
ENDBRANCH  17  20
ENDBRANCH  15  16
ENDBRANCH   2  15
TORSDOF 7
