REMARK  Name = ZINCrD0000074hQg.0
REMARK                            x       y       z     vdW  Elec       q    Type
REMARK                         _______ _______ _______ _____ _____    ______ ____
ROOT
ATOM      1  C   LIG    1       -2.767   6.770   4.074  0.00  0.00    +0.020 C 
ATOM      2  C   LIG    1       -1.281   6.439   4.229  0.00  0.00    +0.180 C 
ATOM      3  C   LIG    1       -1.064   4.910   4.298  0.00  0.00    +0.100 C 
ATOM      4  C   LIG    1       -0.804   4.541   2.850  0.00  0.00    -0.160 A 
ATOM      5  C   LIG    1       -0.828   3.327   2.197  0.00  0.00    +0.160 A 
ATOM      6  C   LIG    1       -0.551   3.263   0.843  0.00  0.00    -0.700 A 
ATOM      7  C   LIG    1       -0.260   4.420   0.144  0.00  0.00    +0.160 A 
ATOM      8  C   LIG    1       -0.238   5.637   0.792  0.00  0.00    -0.030 A 
ATOM      9  C   LIG    1       -0.509   5.710   2.157  0.00  0.00    +0.160 A 
ATOM     10  N   LIG    1       -0.530   6.818   3.013  0.00  0.00    -0.460 N 
ENDROOT
BRANCH   6  11
ATOM     11  S   LIG    1       -0.575   1.711   0.010  0.00  0.00    +2.710 S 
ATOM     12  O   LIG    1       -1.403   0.853   0.784  0.00  0.00    -0.960 OA
ATOM     13  O   LIG    1       -0.817   1.995  -1.361  0.00  0.00    -0.960 OA
BRANCH  11  14
ATOM     14  N   LIG    1        0.955   1.084   0.096  0.00  0.00    -1.250 NA
ATOM     15  H   LIG    1        1.721   1.679   0.128  0.00  0.00    +0.420 HD
ATOM     16  H   LIG    1        1.086   0.123   0.109  0.00  0.00    +0.420 HD
ENDBRANCH  11  14
ENDBRANCH   6  11
BRANCH  10  17
ATOM     17  C   LIG    1       -1.144   7.979   2.355  0.00  0.00    +0.220 C 
BRANCH  17  18
ATOM     18  C   LIG    1       -1.171   9.161   3.326  0.00  0.00    +0.210 C 
BRANCH  18  19
ATOM     19  O   LIG    1        0.167   9.584   3.598  0.00  0.00    -0.300 OA
BRANCH  19  20
ATOM     20  C   LIG    1        0.319  10.692   4.368  0.00  0.00    +0.150 A 
ATOM     21  C   LIG    1       -0.770  11.285   4.942  0.00  0.00    -0.100 A 
ATOM     22  C   LIG    1       -0.631  12.422   5.734  0.00  0.00    +0.050 A 
ATOM     23  C   LIG    1        0.592  12.976   5.959  0.00  0.00    -0.020 A 
ATOM     24  C   LIG    1        1.737  12.396   5.387  0.00  0.00    -0.020 A 
ATOM     25  C   LIG    1        3.014  12.941   5.599  0.00  0.00    +0.010 A 
ATOM     26  C   LIG    1        4.103  12.342   5.044  0.00  0.00    +0.020 A 
ATOM     27  C   LIG    1        3.969  11.204   4.251  0.00  0.00    -0.010 A 
ATOM     28  C   LIG    1        2.746  10.652   4.019  0.00  0.00    +0.050 A 
ATOM     29  C   LIG    1        1.602  11.235   4.585  0.00  0.00    -0.070 A 
ENDBRANCH  19  20
ENDBRANCH  18  19
ENDBRANCH  17  18
ENDBRANCH  10  17
TORSDOF 6
