REMARK  Name = ZINCpk000000p8hK.0
REMARK                            x       y       z     vdW  Elec       q    Type
REMARK                         _______ _______ _______ _____ _____    ______ ____
ROOT
ATOM      1  C   LIG    1        1.952  -1.682  -0.018  0.00  0.00    +0.340 C 
ATOM      2  C   LIG    1        2.578  -1.926   1.371  0.00  0.00    +0.050 C 
ATOM      3  C   LIG    1        3.879  -2.703   1.035  0.00  0.00    +0.040 C 
ATOM      4  C   LIG    1        4.302  -2.038  -0.299  0.00  0.00    +0.250 C 
ATOM      5  N   LIG    1        3.036  -1.775  -1.007  0.00  0.00    -0.610 N 
ATOM      6  C   LIG    1        2.896  -1.641  -2.341  0.00  0.00    +0.560 C 
ATOM      7  O   LIG    1        1.801  -1.424  -2.817  0.00  0.00    -0.530 OA
ENDROOT
BRANCH   6   8
ATOM      8  C   LIG    1        4.098  -1.760  -3.241  0.00  0.00    -0.060 C 
ATOM      9  C   LIG    1        3.867  -1.638  -4.749  0.00  0.00    +0.090 C 
ATOM     10  C   LIG    1        4.550  -0.506  -3.985  0.00  0.00    -0.090 C 
ATOM     11  C   LIG    1        6.054  -0.303  -4.198  0.00  0.00    +0.040 C 
ATOM     12  C   LIG    1        6.590   0.580  -3.065  0.00  0.00    +0.210 C 
ATOM     13  O   LIG    1        5.823   1.784  -3.000  0.00  0.00    -0.380 OA
ATOM     14  C   LIG    1        4.450   1.594  -2.655  0.00  0.00    +0.220 C 
ATOM     15  C   LIG    1        3.757   0.786  -3.758  0.00  0.00    +0.030 C 
ENDBRANCH   6   8
BRANCH   1  21
ATOM     16  C   LIG    1       -0.044   0.002  -0.060  0.00  0.00    -0.020 A 
ATOM     17  N   LIG    1       -0.108   1.324  -0.114  0.00  0.00    -0.210 NA
ATOM     18  N   LIG    1        1.090   1.790  -0.149  0.00  0.00    -0.220 N 
ATOM     19  H   LIG    1        1.311   2.733  -0.191  0.00  0.00    +0.480 HD
ATOM     20  N   LIG    1        1.957   0.841  -0.122  0.00  0.00    -0.270 NA
ATOM     21  C   LIG    1        1.331  -0.310  -0.066  0.00  0.00    +0.070 A 
BRANCH  16  22
ATOM     22  C   LIG    1       -1.175  -0.946  -0.006  0.00  0.00    +0.560 C 
ATOM     23  O   LIG    1       -0.964  -2.142   0.040  0.00  0.00    -0.490 OA
BRANCH  22  24
ATOM     24  O   LIG    1       -2.441  -0.485  -0.008  0.00  0.00    -0.340 OA
BRANCH  24  26
ATOM     25  C   LIG    1       -4.859  -0.767   0.036  0.00  0.00    +0.070 C 
ATOM     26  C   LIG    1       -3.503  -1.474   0.047  0.00  0.00    +0.200 C 
ENDBRANCH  24  26
ENDBRANCH  22  24
ENDBRANCH  16  22
ENDBRANCH   1  21
TORSDOF 5
