REMARK  Name = ZINCnE000001KM4K.0
REMARK                            x       y       z     vdW  Elec       q    Type
REMARK                         _______ _______ _______ _____ _____    ______ ____
ROOT
ATOM      1  C   LIG    1        5.832  -0.113   2.891  0.00  0.00    +0.080 A 
ATOM      2  C   LIG    1        7.188  -0.274   3.135  0.00  0.00    -0.090 A 
ATOM      3  C   LIG    1        8.088  -0.266   2.087  0.00  0.00    +0.120 A 
ATOM      4  C   LIG    1        7.630  -0.100   0.774  0.00  0.00    -0.160 A 
ATOM      5  C   LIG    1        6.260   0.058   0.529  0.00  0.00    +0.040 A 
ATOM      6  F   LIG    1        9.408  -0.419   2.329  0.00  0.00    -0.120 F 
ATOM      7  C   LIG    1        5.368   0.049   1.583  0.00  0.00    +0.160 A 
ENDROOT
BRANCH   4   8
ATOM      8  C   LIG    1        8.585  -0.091  -0.344  0.00  0.00    +0.520 C 
ATOM      9  O   LIG    1        9.781  -0.229  -0.129  0.00  0.00    -0.670 OA
ATOM     10  O   LIG    1        8.182   0.054  -1.491  0.00  0.00    -0.690 OA
ENDBRANCH   4   8
BRANCH   1  12
ATOM     11  C   LIG    1        5.495  -0.285   5.237  0.00  0.00    +0.220 C 
ATOM     12  O   LIG    1        4.953  -0.116   3.926  0.00  0.00    -0.320 OA
ENDBRANCH   1  12
BRANCH   7  13
ATOM     13  N   LIG    1        3.997   0.206   1.342  0.00  0.00    -0.740 N 
ATOM     14  H   LIG    1        3.370   0.200   2.082  0.00  0.00    +0.400 HD
BRANCH  13  15
ATOM     15  C   LIG    1        3.510   0.381  -0.029  0.00  0.00    +0.370 C 
BRANCH  15  16
ATOM     16  C   LIG    1        2.010   0.528  -0.014  0.00  0.00    +0.010 A 
ATOM     17  N   LIG    1        1.133  -0.433  -0.011  0.00  0.00    -0.350 NA
ATOM     18  O   LIG    1        0.002  -0.004   0.002  0.00  0.00    +0.110 OA
ATOM     19  C   LIG    1       -0.016   1.336   0.009  0.00  0.00    -0.030 A 
ATOM     20  C   LIG    1        1.278   1.737  -0.001  0.00  0.00    -0.040 A 
BRANCH  19  21
ATOM     21  C   LIG    1       -1.235   2.222   0.020  0.00  0.00    +0.020 C 
ATOM     22  C   LIG    1       -1.217   3.099   1.274  0.00  0.00    +0.050 C 
ATOM     23  C   LIG    1       -2.496   1.355   0.022  0.00  0.00    +0.040 C 
ATOM     24  C   LIG    1       -1.230   3.111  -1.224  0.00  0.00    +0.050 C 
ENDBRANCH  19  21
ENDBRANCH  15  16
ENDBRANCH  13  15
ENDBRANCH   7  13
TORSDOF 6
