REMARK  Name = ZINCrH00000No4Kk.0
REMARK                            x       y       z     vdW  Elec       q    Type
REMARK                         _______ _______ _______ _____ _____    ______ ____
ROOT
ATOM      1  C   LIG    1       -5.268   5.231   4.969  0.00  0.00    +0.390 C 
ATOM      2  O   LIG    1       -6.194   5.120   4.189  0.00  0.00    -0.450 OA
ENDROOT
BRANCH   1   3
ATOM      3  C   LIG    1       -3.952   5.295   4.490  0.00  0.00    -0.230 C 
ATOM      4  C   LIG    1       -3.719   5.346   3.155  0.00  0.00    +0.270 C 
ATOM      5  N   LIG    1       -2.509   5.490   2.550  0.00  0.00    -0.530 N 
ATOM      6  C   LIG    1       -2.620   5.500   1.160  0.00  0.00    +0.140 A 
ATOM      7  C   LIG    1       -1.644   5.622   0.172  0.00  0.00    -0.020 A 
ATOM      8  C   LIG    1       -2.002   5.611  -1.160  0.00  0.00    +0.040 A 
ATOM      9  C   LIG    1       -3.329   5.480  -1.526  0.00  0.00    -0.010 A 
ATOM     10  C   LIG    1       -4.304   5.358  -0.550  0.00  0.00    +0.070 A 
ATOM     11  C   LIG    1       -3.950   5.369   0.780  0.00  0.00    -0.130 A 
ATOM     12  C   LIG    1       -1.241   5.615   3.272  0.00  0.00    +0.320 C 
ATOM     13  C   LIG    1       -4.755   5.259   2.055  0.00  0.00    +0.000 C 
ATOM     14  C   LIG    1       -5.748   6.418   2.162  0.00  0.00    +0.080 C 
ATOM     15  C   LIG    1       -5.487   3.917   2.112  0.00  0.00    +0.090 C 
ENDBRANCH   1   3
BRANCH   1  17
ATOM     16  C   LIG    1       -5.161   3.966   7.099  0.00  0.00    +0.060 C 
ATOM     17  C   LIG    1       -5.535   5.301   6.450  0.00  0.00    +0.150 C 
BRANCH  17  18
ATOM     18  O   LIG    1       -6.943   5.571   6.677  0.00  0.00    -0.330 OA
BRANCH  18  19
ATOM     19  C   LIG    1       -7.262   6.255   7.787  0.00  0.00    +0.460 C 
ATOM     20  O   LIG    1       -6.393   6.611   8.548  0.00  0.00    -0.510 OA
BRANCH  19  21
ATOM     21  C   LIG    1       -8.704   6.573   8.089  0.00  0.00    +0.110 C 
BRANCH  21  22
ATOM     22  C   LIG    1       -8.790   7.347   9.406  0.00  0.00    +0.040 C 
BRANCH  22  23
ATOM     23  C   LIG    1      -10.254   7.670   9.712  0.00  0.00    +0.160 C 
ATOM     24  C   LIG    1      -10.343   8.554  10.974  0.00  0.00    +0.010 C 
ATOM     25  C   LIG    1      -11.594   7.976  11.693  0.00  0.00    +0.000 C 
ATOM     26  C   LIG    1      -11.482   6.476  11.320  0.00  0.00    +0.200 C 
ATOM     27  O   LIG    1      -10.974   6.460   9.977  0.00  0.00    -0.380 OA
ENDBRANCH  22  23
ENDBRANCH  21  22
ENDBRANCH  19  21
ENDBRANCH  18  19
ENDBRANCH  17  18
ENDBRANCH   1  17
TORSDOF 7
