REMARK  Name = ZINCvU0000000EJa.0
REMARK                            x       y       z     vdW  Elec       q    Type
REMARK                         _______ _______ _______ _____ _____    ______ ____
ROOT
ATOM      1  C   LIG    1        1.031  -2.152  -0.274  0.00  0.00    +0.200 A 
ATOM      2  N   LIG    1        1.946  -2.902  -0.846  0.00  0.00    -0.280 NA
ATOM      3  N   LIG    1        1.761  -4.230  -0.452  0.00  0.00    -0.300 N 
ATOM      4  C   LIG    1        0.704  -4.313   0.376  0.00  0.00    +0.300 A 
ATOM      5  C   LIG    1        0.191  -3.042   0.535  0.00  0.00    -0.280 A 
ENDROOT
BRANCH   1   9
ATOM      6  C   LIG    1        0.572   2.057  -0.701  0.00  0.00    +0.120 A 
ATOM      7  C   LIG    1       -0.546   1.248  -0.570  0.00  0.00    -0.040 A 
ATOM      8  C   LIG    1       -0.400  -0.118  -0.432  0.00  0.00    +0.110 A 
ATOM      9  C   LIG    1        0.873  -0.686  -0.423  0.00  0.00    -0.040 A 
ATOM     10  C   LIG    1        1.998   0.128  -0.555  0.00  0.00    +0.000 A 
ATOM     11  C   LIG    1        1.847   1.495  -0.694  0.00  0.00    +0.090 A 
BRANCH   6  13
ATOM     12  C   LIG    1       -0.911   3.911  -0.837  0.00  0.00    +0.240 C 
ATOM     13  O   LIG    1        0.424   3.402  -0.837  0.00  0.00    -0.300 OA
ENDBRANCH   6  13
BRANCH  11  14
ATOM     14  O   LIG    1        2.942   2.291  -0.822  0.00  0.00    -0.310 OA
ATOM     15  C   LIG    1        4.218   1.647  -0.805  0.00  0.00    +0.230 C 
ENDBRANCH  11  14
ENDBRANCH   1   9
BRANCH   3  16
ATOM     16  C   LIG    1        2.552  -5.311  -0.861  0.00  0.00    +0.140 A 
ATOM     17  C   LIG    1        2.271  -6.592  -0.403  0.00  0.00    -0.010 A 
ATOM     18  C   LIG    1        3.050  -7.657  -0.812  0.00  0.00    +0.050 A 
ATOM     19  C   LIG    1        4.115  -7.447  -1.669  0.00  0.00    +0.010 A 
ATOM     20  C   LIG    1        4.400  -6.172  -2.123  0.00  0.00    +0.050 A 
ATOM     21  C   LIG    1        3.622  -5.104  -1.721  0.00  0.00    +0.030 A 
ENDBRANCH   3  16
BRANCH   5  22
ATOM     22  C   LIG    1       -0.968  -2.655   1.356  0.00  0.00    +0.600 C 
ATOM     23  N   LIG    1       -1.645  -3.591   2.049  0.00  0.00    -0.670 N 
ATOM     24  H   LIG    1       -1.418  -4.529   1.948  0.00  0.00    +0.410 HD
ATOM     25  O   LIG    1       -1.315  -1.490   1.408  0.00  0.00    -0.500 OA
BRANCH  23  26
ATOM     26  C   LIG    1       -2.677  -3.211   2.915  0.00  0.00    +0.160 A 
ATOM     27  C   LIG    1       -2.599  -2.009   3.604  0.00  0.00    +0.040 A 
ATOM     28  C   LIG    1       -3.621  -1.633   4.454  0.00  0.00    +0.050 A 
ATOM     29  C   LIG    1       -4.717  -2.460   4.627  0.00  0.00    -0.050 A 
ATOM     30  C   LIG    1       -4.795  -3.662   3.945  0.00  0.00    +0.050 A 
ATOM     31 CL   LIG    1       -5.997  -1.988   5.700  0.00  0.00    -0.070 Cl
ATOM     32  C   LIG    1       -3.778  -4.039   3.090  0.00  0.00    +0.010 A 
ENDBRANCH  23  26
ENDBRANCH   5  22
TORSDOF 6
