REMARK  Name = ZINCzw00000008eP.1
REMARK                            x       y       z     vdW  Elec       q    Type
REMARK                         _______ _______ _______ _____ _____    ______ ____
ROOT
ATOM      1  N   LIG    1        1.872   4.878  -5.676  0.00  0.00    -0.710 N 
ATOM      2  H   LIG    1        2.542   4.554  -5.054  0.00  0.00    +0.400 HD
ATOM      3  C   LIG    1        1.102   5.934  -5.348  0.00  0.00    +0.520 C 
ATOM      4  O   LIG    1        0.201   6.279  -6.082  0.00  0.00    -0.500 OA
ENDROOT
BRANCH   1  12
ATOM      5  C   LIG    1        2.326   2.825  -6.929  0.00  0.00    +0.300 C 
ATOM      6  N   LIG    1        2.364   2.241  -8.263  0.00  0.00    -0.710 N 
ATOM      7  H   LIG    1        2.471   1.279  -8.335  0.00  0.00    +0.410 HD
ATOM      8  C   LIG    1        2.262   2.945  -9.391  0.00  0.00    +0.520 C 
ATOM      9  C   LIG    1        2.045   4.430  -9.425  0.00  0.00    +0.090 C 
ATOM     10  C   LIG    1        2.396   5.038  -8.065  0.00  0.00    +0.030 C 
ATOM     11  O   LIG    1        2.348   2.353 -10.447  0.00  0.00    -0.530 OA
ATOM     12  C   LIG    1        1.698   4.219  -6.973  0.00  0.00    +0.250 C 
BRANCH   5  17
ATOM     13  N   LIG    1        1.979   1.243  -4.963  0.00  0.00    -0.360 N 
ATOM     14  N   LIG    1        0.901   0.555  -4.391  0.00  0.00    -0.270 NA
ATOM     15  C   LIG    1       -0.173   0.827  -5.088  0.00  0.00    +0.230 A 
ATOM     16  C   LIG    1        0.185   1.698  -6.121  0.00  0.00    -0.090 A 
ATOM     17  C   LIG    1        1.513   1.940  -6.020  0.00  0.00    +0.050 A 
BRANCH  13  19
ATOM     18  C   LIG    1        3.551   2.240  -3.377  0.00  0.00    +0.040 C 
ATOM     19  C   LIG    1        3.367   1.212  -4.495  0.00  0.00    +0.320 C 
ENDBRANCH  13  19
ENDBRANCH   5  17
ENDBRANCH   1  12
BRANCH   3  20
ATOM     20  C   LIG    1        1.361   6.687  -4.068  0.00  0.00    +0.010 C 
ATOM     21  C   LIG    1        1.137   5.768  -2.848  0.00  0.00    +0.290 C 
ATOM     22  N   LIG    1       -0.263   6.038  -2.429  0.00  0.00    -0.390 N 
ATOM     23  C   LIG    1       -0.417   7.506  -2.596  0.00  0.00    +0.300 C 
ATOM     24  H   LIG    1       -0.912   5.544  -3.023  0.00  0.00    +0.430 HD
ATOM     25  C   LIG    1        0.339   7.830  -3.903  0.00  0.00    +0.110 C 
BRANCH  25  26
ATOM     26  C   LIG    1        1.046   9.155  -3.783  0.00  0.00    +0.120 A 
ATOM     27  C   LIG    1        2.291   9.213  -3.186  0.00  0.00    -0.050 A 
ATOM     28  C   LIG    1        2.936  10.436  -3.085  0.00  0.00    +0.080 A 
ATOM     29  C   LIG    1        2.297  11.562  -3.580  0.00  0.00    -0.010 A 
ATOM     30  C   LIG    1        1.049  11.428  -4.160  0.00  0.00    +0.280 A 
ATOM     31  N   LIG    1        0.468  10.247  -4.243  0.00  0.00    -0.470 NA
ENDBRANCH  25  26
BRANCH  22  32
ATOM     32  C   LIG    1       -0.460   5.657  -1.024  0.00  0.00    +0.330 C 
BRANCH  32  33
ATOM     33  C   LIG    1       -0.420   4.156  -0.899  0.00  0.00    -0.160 A 
ATOM     34  C   LIG    1        0.781   3.514  -0.663  0.00  0.00    +0.030 A 
ATOM     35  C   LIG    1        0.818   2.137  -0.550  0.00  0.00    +0.020 A 
ATOM     36  C   LIG    1       -0.347   1.402  -0.671  0.00  0.00    +0.060 A 
ATOM     37  C   LIG    1       -1.547   2.043  -0.912  0.00  0.00    +0.020 A 
ATOM     38  C   LIG    1       -1.584   3.421  -1.022  0.00  0.00    +0.040 A 
ENDBRANCH  32  33
ENDBRANCH  22  32
ENDBRANCH   3  20
TORSDOF 7
