REMARK  Name = ZINCzw00000008eP.0
REMARK                            x       y       z     vdW  Elec       q    Type
REMARK                         _______ _______ _______ _____ _____    ______ ____
ROOT
ATOM      1  N   LIG    1        4.332   3.216  -2.858  0.00  0.00    -0.710 N 
ATOM      2  H   LIG    1        4.026   3.987  -3.360  0.00  0.00    +0.400 HD
ATOM      3  C   LIG    1        4.263   3.217  -1.512  0.00  0.00    +0.530 C 
ATOM      4  O   LIG    1        4.729   2.292  -0.880  0.00  0.00    -0.500 OA
ENDROOT
BRANCH   1  12
ATOM      5  C   LIG    1        5.700   2.510  -4.759  0.00  0.00    +0.300 C 
ATOM      6  N   LIG    1        6.056   1.374  -5.601  0.00  0.00    -0.710 N 
ATOM      7  H   LIG    1        6.798   1.480  -6.216  0.00  0.00    +0.410 HD
ATOM      8  C   LIG    1        5.425   0.200  -5.578  0.00  0.00    +0.520 C 
ATOM      9  C   LIG    1        4.294  -0.115  -4.642  0.00  0.00    +0.090 C 
ATOM     10  C   LIG    1        3.711   1.179  -4.071  0.00  0.00    +0.040 C 
ATOM     11  O   LIG    1        5.785  -0.660  -6.354  0.00  0.00    -0.530 OA
ATOM     12  C   LIG    1        4.867   2.049  -3.563  0.00  0.00    +0.260 C 
BRANCH   5  17
ATOM     13  N   LIG    1        7.379   4.418  -4.582  0.00  0.00    -0.360 N 
ATOM     14  N   LIG    1        8.586   4.649  -3.909  0.00  0.00    -0.280 NA
ATOM     15  C   LIG    1        8.881   3.578  -3.218  0.00  0.00    +0.240 A 
ATOM     16  C   LIG    1        7.870   2.633  -3.424  0.00  0.00    -0.090 A 
ATOM     17  C   LIG    1        6.958   3.176  -4.263  0.00  0.00    +0.050 A 
BRANCH  13  19
ATOM     18  C   LIG    1        5.697   6.191  -4.662  0.00  0.00    +0.030 C 
ATOM     19  C   LIG    1        6.694   5.359  -5.471  0.00  0.00    +0.310 C 
ENDBRANCH  13  19
ENDBRANCH   5  17
ENDBRANCH   1  12
BRANCH   3  20
ATOM     20  C   LIG    1        3.609   4.368  -0.791  0.00  0.00    +0.010 C 
ATOM     21  C   LIG    1        4.664   5.395  -0.303  0.00  0.00    +0.290 C 
ATOM     22  N   LIG    1        4.029   6.076   0.846  0.00  0.00    -0.380 N 
ATOM     23  C   LIG    1        2.999   5.183   1.409  0.00  0.00    +0.280 C 
ATOM     24  H   LIG    1        3.601   6.935   0.536  0.00  0.00    +0.430 HD
ATOM     25  C   LIG    1        2.985   3.902   0.550  0.00  0.00    +0.110 C 
BRANCH  25  26
ATOM     26  C   LIG    1        1.573   3.416   0.341  0.00  0.00    +0.120 A 
ATOM     27  C   LIG    1        0.554   4.333   0.171  0.00  0.00    -0.050 A 
ATOM     28  C   LIG    1       -0.741   3.876  -0.021  0.00  0.00    +0.080 A 
ATOM     29  C   LIG    1       -0.962   2.508  -0.041  0.00  0.00    -0.010 A 
ATOM     30  C   LIG    1        0.107   1.651   0.142  0.00  0.00    +0.280 A 
ATOM     31  N   LIG    1        1.326   2.121   0.322  0.00  0.00    -0.460 NA
ENDBRANCH  25  26
BRANCH  22  32
ATOM     32  C   LIG    1        5.043   6.367   1.867  0.00  0.00    +0.320 C 
BRANCH  32  33
ATOM     33  C   LIG    1        6.025   7.374   1.327  0.00  0.00    -0.160 A 
ATOM     34  C   LIG    1        7.159   6.946   0.662  0.00  0.00    +0.040 A 
ATOM     35  C   LIG    1        8.057   7.871   0.162  0.00  0.00    +0.030 A 
ATOM     36  C   LIG    1        7.827   9.223   0.336  0.00  0.00    +0.060 A 
ATOM     37  C   LIG    1        6.696   9.650   1.006  0.00  0.00    +0.030 A 
ATOM     38  C   LIG    1        5.795   8.726   1.502  0.00  0.00    +0.040 A 
ENDBRANCH  32  33
ENDBRANCH  22  32
ENDBRANCH   3  20
TORSDOF 7
