REMARK  Name = ZINCpk00000KfKxs.0
REMARK                            x       y       z     vdW  Elec       q    Type
REMARK                         _______ _______ _______ _____ _____    ______ ____
ROOT
ATOM      1  O   LIG    1       -1.297   2.766   0.599  0.00  0.00    -0.570 OA
ATOM      2  C   LIG    1       -1.234   1.608   0.234  0.00  0.00    +0.710 C 
ATOM      3  N   LIG    1       -2.358   0.949  -0.112  0.00  0.00    -0.600 N 
ATOM      4  N   LIG    1       -0.041   0.984   0.174  0.00  0.00    -0.740 N 
ATOM      5  H   LIG    1        0.003   0.042  -0.052  0.00  0.00    +0.390 HD
ENDROOT
BRANCH   4   6
ATOM      6  C   LIG    1        1.190   1.730   0.446  0.00  0.00    +0.340 C 
ATOM      7  C   LIG    1        2.373   1.047  -0.252  0.00  0.00    +0.020 C 
ATOM      8  C   LIG    1        3.684   1.669   0.236  0.00  0.00    +0.040 C 
ATOM      9  C   LIG    1        3.933   1.260   1.693  0.00  0.00    +0.110 C 
ATOM     10  C   LIG    1        2.679   1.535   2.485  0.00  0.00    +0.090 A 
ATOM     11  N   LIG    1        2.545   1.619   3.819  0.00  0.00    -0.360 N 
ATOM     12  N   LIG    1        1.197   1.892   4.098  0.00  0.00    -0.300 NA
ATOM     13  C   LIG    1        0.549   1.967   2.961  0.00  0.00    +0.260 A 
ATOM     14  C   LIG    1        1.458   1.746   1.930  0.00  0.00    -0.250 A 
BRANCH  11  15
ATOM     15  C   LIG    1        3.615   1.455   4.806  0.00  0.00    +0.330 C 
BRANCH  15  16
ATOM     16  C   LIG    1        4.261   2.813   5.089  0.00  0.00    +0.170 C 
BRANCH  16  17
ATOM     17  O   LIG    1        5.304   2.653   6.052  0.00  0.00    -0.570 OA
ATOM     18  H   LIG    1        5.759   3.475   6.279  0.00  0.00    +0.390 HD
ENDBRANCH  16  17
ENDBRANCH  15  16
ENDBRANCH  11  15
ENDBRANCH   4   6
BRANCH   3  19
ATOM     19  C   LIG    1       -3.623   1.675  -0.240  0.00  0.00    +0.210 C 
ATOM     20  C   LIG    1       -3.555   3.200  -0.339  0.00  0.00    +0.040 C 
ATOM     21  C   LIG    1       -4.066   2.538   0.943  0.00  0.00    +0.000 C 
ENDBRANCH   3  19
BRANCH   3  22
ATOM     22  C   LIG    1       -2.313  -0.495  -0.358  0.00  0.00    +0.300 C 
BRANCH  22  23
ATOM     23  C   LIG    1       -2.738  -1.242   0.907  0.00  0.00    -0.050 C 
ATOM     24  C   LIG    1       -2.657  -2.778   0.696  0.00  0.00    +0.020 C 
ATOM     25  C   LIG    1       -2.396  -3.259   2.149  0.00  0.00    +0.200 C 
ATOM     26  O   LIG    1       -1.549  -2.256   2.732  0.00  0.00    -0.380 OA
ATOM     27  C   LIG    1       -1.726  -1.009   2.049  0.00  0.00    +0.190 C 
ENDBRANCH  22  23
ENDBRANCH   3  22
TORSDOF 7
