REMARK  Name = ZINCrD000000fGJn.0
REMARK                            x       y       z     vdW  Elec       q    Type
REMARK                         _______ _______ _______ _____ _____    ______ ____
ROOT
ATOM      1  C   LIG    1       -0.947   7.001   1.205  0.00  0.00    +0.520 C 
ATOM      2  N   LIG    1       -0.460   5.891   0.615  0.00  0.00    -0.720 N 
ATOM      3  H   LIG    1        0.499   5.751   0.562  0.00  0.00    +0.410 HD
ATOM      4  O   LIG    1       -2.145   7.176   1.270  0.00  0.00    -0.520 OA
ENDROOT
BRANCH   2   5
ATOM      5  C   LIG    1       -1.377   4.897   0.052  0.00  0.00    +0.340 C 
ATOM      6  C   LIG    1       -1.764   5.307  -1.370  0.00  0.00    +0.060 C 
BRANCH   5   7
ATOM      7  C   LIG    1       -0.702   3.551   0.021  0.00  0.00    +0.270 A 
ATOM      8  N   LIG    1        0.585   3.364  -0.021  0.00  0.00    -0.480 NA
ATOM      9  C   LIG    1        0.852   2.032  -0.039  0.00  0.00    +0.050 A 
ATOM     10  C   LIG    1        2.033   1.287  -0.082  0.00  0.00    +0.070 A 
ATOM     11  C   LIG    1        1.977  -0.078  -0.090  0.00  0.00    +0.000 A 
ATOM     12  C   LIG    1        0.756  -0.736  -0.055  0.00  0.00    +0.030 A 
ATOM     13  C   LIG    1       -0.422  -0.021  -0.013  0.00  0.00    +0.010 A 
ATOM     14  C   LIG    1       -0.385   1.366  -0.004  0.00  0.00    +0.050 A 
ATOM     15  N   LIG    1       -1.349   2.354   0.028  0.00  0.00    -0.590 N 
ATOM     16  H   LIG    1       -2.309   2.220   0.052  0.00  0.00    +0.430 HD
ENDBRANCH   5   7
ENDBRANCH   2   5
BRANCH   1  17
ATOM     17  C   LIG    1       -0.003   8.023   1.783  0.00  0.00    +0.060 C 
BRANCH  17  18
ATOM     18  C   LIG    1       -0.808   9.175   2.389  0.00  0.00    +0.310 C 
BRANCH  18  19
ATOM     19  C   LIG    1        0.134  10.254   2.857  0.00  0.00    -0.110 A 
ATOM     20  C   LIG    1        0.871  10.075   4.012  0.00  0.00    +0.020 A 
ATOM     21  C   LIG    1        1.739  11.063   4.439  0.00  0.00    +0.000 A 
ATOM     22  C   LIG    1        1.862  12.235   3.716  0.00  0.00    -0.080 A 
ATOM     23  C   LIG    1        1.121  12.416   2.563  0.00  0.00    +0.000 A 
ATOM     24  C   LIG    1        2.803  13.314   4.184  0.00  0.00    +0.090 C 
ATOM     25  C   LIG    1        0.258  11.426   2.133  0.00  0.00    +0.030 A 
ENDBRANCH  18  19
BRANCH  18  28
ATOM     26  C   LIG    1       -3.418   8.912   5.174  0.00  0.00    +0.080 C 
ATOM     27  C   LIG    1       -2.685   9.351   3.932  0.00  0.00    +0.520 C 
ATOM     28  N   LIG    1       -1.588   8.681   3.526  0.00  0.00    -0.720 N 
ATOM     29  H   LIG    1       -1.315   7.872   3.986  0.00  0.00    +0.400 HD
ATOM     30  O   LIG    1       -3.082  10.306   3.299  0.00  0.00    -0.540 OA
ENDBRANCH  18  28
ENDBRANCH  17  18
ENDBRANCH   1  17
TORSDOF 6
