REMARK  Name = ZINCtV00000L6jZd.0
REMARK                            x       y       z     vdW  Elec       q    Type
REMARK                         _______ _______ _______ _____ _____    ______ ____
ROOT
ATOM      1  C   LIG    1        1.087   7.318   0.032  0.00  0.00    +0.150 A 
ATOM      2  N   LIG    1        1.078   5.990   0.028  0.00  0.00    -0.520 NA
ATOM      3  C   LIG    1       -0.070   5.327   0.029  0.00  0.00    +0.370 A 
ATOM      4  N   LIG    1       -1.234   5.958   0.043  0.00  0.00    -0.520 NA
ATOM      5  C   LIG    1       -1.299   7.287   0.053  0.00  0.00    +0.200 A 
ATOM      6  C   LIG    1       -2.656   7.936   0.062  0.00  0.00    +0.110 C 
ATOM      7  C   LIG    1       -2.548   9.395   0.502  0.00  0.00    +0.030 C 
ATOM      8  C   LIG    1       -1.465  10.078  -0.341  0.00  0.00    +0.030 C 
ATOM      9  C   LIG    1       -0.105   9.514   0.069  0.00  0.00    +0.100 C 
ATOM     10  C   LIG    1       -0.132   8.011   0.050  0.00  0.00    -0.160 A 
ENDROOT
BRANCH   3  11
ATOM     11  C   LIG    1       -0.050   3.844   0.022  0.00  0.00    -0.050 A 
ATOM     12  C   LIG    1        1.165   3.161   0.007  0.00  0.00    +0.060 A 
ATOM     13  C   LIG    1        1.177   1.781   0.000  0.00  0.00    +0.000 A 
ATOM     14  C   LIG    1       -0.013   1.076   0.008  0.00  0.00    +0.030 A 
ATOM     15  C   LIG    1       -1.221   1.748   0.017  0.00  0.00    +0.000 A 
ATOM     16  C   LIG    1       -1.246   3.128   0.030  0.00  0.00    +0.070 A 
ENDBRANCH   3  11
BRANCH   1  17
ATOM     17  S   LIG    1        2.613   8.198   0.021  0.00  0.00    +0.030 S 
BRANCH  17  18
ATOM     18  C   LIG    1        3.776   6.812  -0.001  0.00  0.00    +0.090 C 
BRANCH  18  19
ATOM     19  C   LIG    1        5.187   7.340  -0.012  0.00  0.00    +0.410 C 
ATOM     20  O   LIG    1        5.387   8.536  -0.006  0.00  0.00    -0.440 OA
BRANCH  19  24
ATOM     21  C   LIG    1        8.461   4.643  -0.065  0.00  0.00    -0.040 A 
ATOM     22  C   LIG    1        8.693   6.008  -0.059  0.00  0.00    +0.000 A 
ATOM     23  C   LIG    1        7.634   6.891  -0.042  0.00  0.00    +0.090 A 
ATOM     24  C   LIG    1        6.323   6.404  -0.031  0.00  0.00    -0.170 A 
ATOM     25  C   LIG    1        6.097   5.024  -0.033  0.00  0.00    +0.060 A 
ATOM     26  C   LIG    1        7.166   4.154  -0.054  0.00  0.00    +0.000 A 
BRANCH  21  28
ATOM     27  C   LIG    1        9.572   2.796   1.161  0.00  0.00    +0.030 C 
ATOM     28  C   LIG    1        9.624   3.685  -0.084  0.00  0.00    +0.020 C 
ATOM     29  C   LIG    1        9.546   2.812  -1.337  0.00  0.00    +0.030 C 
ENDBRANCH  21  28
ENDBRANCH  19  24
ENDBRANCH  18  19
ENDBRANCH  17  18
ENDBRANCH   1  17
TORSDOF 6
