REMARK  Name = ZINCqH00000397xh.0
REMARK                            x       y       z     vdW  Elec       q    Type
REMARK                         _______ _______ _______ _____ _____    ______ ____
ROOT
ATOM      1  N   LIG    1        1.152   6.153  -2.075  0.00  0.00    -0.710 N 
ATOM      2  H   LIG    1        1.953   5.996  -1.551  0.00  0.00    +0.400 HD
ATOM      3  C   LIG    1        1.189   6.034  -3.417  0.00  0.00    +0.520 C 
ATOM      4  O   LIG    1        0.187   6.231  -4.071  0.00  0.00    -0.530 OA
ENDROOT
BRANCH   1   5
ATOM      5  C   LIG    1       -0.099   6.521  -1.407  0.00  0.00    +0.250 C 
BRANCH   5   9
ATOM      6  N   LIG    1       -1.326   8.591  -0.834  0.00  0.00    -0.850 N 
ATOM      7  H   LIG    1       -1.419   9.556  -0.829  0.00  0.00    +0.400 HD
ATOM      8  H   LIG    1       -2.012   8.036  -0.431  0.00  0.00    +0.400 HD
ATOM      9  C   LIG    1       -0.243   8.021  -1.400  0.00  0.00    +0.510 C 
ATOM     10  O   LIG    1        0.614   8.715  -1.903  0.00  0.00    -0.530 OA
ENDBRANCH   5   9
BRANCH   5  11
ATOM     11  C   LIG    1       -0.079   6.003   0.033  0.00  0.00    +0.100 C 
BRANCH  11  12
ATOM     12  C   LIG    1       -0.059   4.497   0.025  0.00  0.00    -0.080 A 
ATOM     13  C   LIG    1        1.148   3.822   0.011  0.00  0.00    +0.030 A 
ATOM     14  C   LIG    1        1.167   2.440   0.004  0.00  0.00    +0.030 A 
ATOM     15  C   LIG    1       -0.021   1.732   0.012  0.00  0.00    -0.030 A 
ATOM     16  C   LIG    1       -1.229   2.407   0.021  0.00  0.00    +0.030 A 
ATOM     17 CL   LIG    1        0.002  -0.004   0.002  0.00  0.00    -0.070 Cl
ATOM     18  C   LIG    1       -1.247   3.789   0.033  0.00  0.00    +0.030 A 
ENDBRANCH  11  12
ENDBRANCH   5  11
ENDBRANCH   1   5
BRANCH   3  19
ATOM     19  C   LIG    1        2.476   5.656  -4.104  0.00  0.00    +0.070 C 
BRANCH  19  20
ATOM     20  C   LIG    1        2.247   5.590  -5.615  0.00  0.00    +0.110 C 
BRANCH  20  21
ATOM     21  C   LIG    1        3.534   5.212  -6.302  0.00  0.00    -0.080 A 
ATOM     22  C   LIG    1        4.359   6.109  -6.804  0.00  0.00    -0.020 A 
ATOM     23  S   LIG    1        5.762   5.350  -7.532  0.00  0.00    +0.080 S 
ATOM     24  C   LIG    1        5.181   3.738  -7.135  0.00  0.00    -0.140 A 
ATOM     25  C   LIG    1        5.742   2.482  -7.384  0.00  0.00    +0.050 A 
ATOM     26  C   LIG    1        5.094   1.341  -6.972  0.00  0.00    +0.030 A 
ATOM     27  C   LIG    1        3.878   1.430  -6.309  0.00  0.00    +0.010 A 
ATOM     28  C   LIG    1        3.313   2.643  -6.058  0.00  0.00    +0.050 A 
ATOM     29  C   LIG    1        3.956   3.830  -6.468  0.00  0.00    -0.070 A 
ENDBRANCH  20  21
ENDBRANCH  19  20
ENDBRANCH   3  19
TORSDOF 7
