REMARK  Name = ZINCrD000000AlYB.0
REMARK                            x       y       z     vdW  Elec       q    Type
REMARK                         _______ _______ _______ _____ _____    ______ ____
ROOT
ATOM      1  O   LIG    1       -4.006   4.281  -0.266  0.00  0.00    -0.500 OA
ATOM      2  C   LIG    1       -3.897   4.027   0.915  0.00  0.00    +0.520 C 
ATOM      3  N   LIG    1       -4.355   4.897   1.837  0.00  0.00    -0.680 N 
ATOM      4  H   LIG    1       -4.337   4.661   2.777  0.00  0.00    +0.410 HD
ENDROOT
BRANCH   3   5
ATOM      5  C   LIG    1       -4.855   6.141   1.437  0.00  0.00    +0.150 A 
ATOM      6  C   LIG    1       -4.311   6.788   0.335  0.00  0.00    +0.020 A 
ATOM      7  C   LIG    1       -4.810   8.014  -0.060  0.00  0.00    +0.050 A 
ATOM      8  C   LIG    1       -5.843   8.602   0.647  0.00  0.00    -0.100 A 
ATOM      9  C   LIG    1       -6.384   7.962   1.748  0.00  0.00    +0.030 A 
ATOM     10  C   LIG    1       -5.892   6.734   2.144  0.00  0.00    -0.030 A 
BRANCH   8  11
ATOM     11  C   LIG    1       -6.382   9.942   0.217  0.00  0.00    +0.230 C 
BRANCH  11  12
ATOM     12  N   LIG    1       -5.637  11.010   0.896  0.00  0.00    -0.530 NA
ATOM     13  C   LIG    1       -5.888  10.988   2.345  0.00  0.00    +0.140 C 
ATOM     14  C   LIG    1       -5.049  12.077   3.019  0.00  0.00    +0.220 C 
ATOM     15  O   LIG    1       -5.361  13.344   2.435  0.00  0.00    -0.390 OA
ATOM     16  C   LIG    1       -5.128  13.401   1.025  0.00  0.00    +0.220 C 
ATOM     17  C   LIG    1       -5.968  12.326   0.330  0.00  0.00    +0.150 C 
ENDBRANCH  11  12
ENDBRANCH   8  11
ENDBRANCH   3   5
BRANCH   2  18
ATOM     18  C   LIG    1       -3.249   2.738   1.351  0.00  0.00    +0.210 C 
BRANCH  18  19
ATOM     19  N   LIG    1       -2.840   1.971   0.168  0.00  0.00    -0.490 NA
ATOM     20  C   LIG    1       -4.022   1.448  -0.564  0.00  0.00    +0.170 C 
ATOM     21  C   LIG    1       -3.474   0.273  -1.401  0.00  0.00    +0.030 C 
ATOM     22  C   LIG    1       -2.198  -0.184  -0.663  0.00  0.00    +0.040 C 
ATOM     23  C   LIG    1       -2.081   0.752   0.558  0.00  0.00    +0.200 C 
BRANCH  23  24
ATOM     24  C   LIG    1       -0.637   1.092   0.824  0.00  0.00    -0.170 A 
ATOM     25  C   LIG    1        0.121   0.538   1.771  0.00  0.00    +0.000 A 
ATOM     26  C   LIG    1        1.422   1.010   1.827  0.00  0.00    +0.000 A 
ATOM     27  C   LIG    1        1.719   1.946   0.924  0.00  0.00    -0.070 A 
ATOM     28  S   LIG    1        0.308   2.273  -0.073  0.00  0.00    +0.150 S 
ENDBRANCH  23  24
ENDBRANCH  18  19
ENDBRANCH   2  18
TORSDOF 6
