REMARK  Name = ZINCrD000006fiKP.0
REMARK                            x       y       z     vdW  Elec       q    Type
REMARK                         _______ _______ _______ _____ _____    ______ ____
ROOT
ATOM      1  N   LIG    1        2.484   1.517   1.883  0.00  0.00    -0.670 N 
ATOM      2  H   LIG    1        2.489   0.600   1.567  0.00  0.00    +0.410 HD
ATOM      3  C   LIG    1        1.806   2.461   1.200  0.00  0.00    +0.510 C 
ATOM      4  O   LIG    1        1.718   3.586   1.644  0.00  0.00    -0.500 OA
ENDROOT
BRANCH   1   7
ATOM      5  C   LIG    1        3.994   1.286   5.232  0.00  0.00    +0.140 A 
ATOM      6  C   LIG    1        3.303   0.942   4.080  0.00  0.00    +0.020 A 
ATOM      7  C   LIG    1        3.180   1.861   3.047  0.00  0.00    +0.160 A 
ATOM      8  C   LIG    1        3.754   3.120   3.168  0.00  0.00    +0.040 A 
ATOM      9  C   LIG    1        4.439   3.463   4.319  0.00  0.00    +0.030 A 
ATOM     10  C   LIG    1        4.563   2.550   5.350  0.00  0.00    +0.050 A 
ATOM     11  F   LIG    1        5.236   2.886   6.472  0.00  0.00    -0.140 F 
BRANCH   5  13
ATOM     12  C   LIG    1        3.992  -0.957   6.027  0.00  0.00    +0.550 C 
ATOM     13  N   LIG    1        4.120   0.361   6.276  0.00  0.00    -0.660 N 
ATOM     14  H   LIG    1        4.298   0.670   7.178  0.00  0.00    +0.420 HD
ATOM     15  O   LIG    1        3.871  -1.351   4.883  0.00  0.00    -0.520 OA
BRANCH  12  17
ATOM     16  C   LIG    1        3.874  -3.220   6.894  0.00  0.00    +0.160 C 
ATOM     17  C   LIG    1        4.000  -1.919   7.140  0.00  0.00    -0.090 C 
ENDBRANCH  12  17
ENDBRANCH   5  13
ENDBRANCH   1   7
BRANCH   3  18
ATOM     18  C   LIG    1        1.152   2.116  -0.114  0.00  0.00    +0.080 C 
BRANCH  18  19
ATOM     19  C   LIG    1        0.519   3.374  -0.714  0.00  0.00    -0.050 C 
ATOM     20  C   LIG    1       -0.101   3.035  -2.070  0.00  0.00    +0.030 C 
ATOM     21  C   LIG    1        0.985   2.512  -3.012  0.00  0.00    +0.000 C 
ATOM     22  C   LIG    1        2.060   3.585  -3.196  0.00  0.00    +0.000 C 
ATOM     23  C   LIG    1        2.680   3.924  -1.839  0.00  0.00    +0.000 C 
ATOM     24  C   LIG    1        1.594   4.447  -0.898  0.00  0.00    +0.030 C 
BRANCH  19  25
ATOM     25  C   LIG    1       -0.568   3.897   0.228  0.00  0.00    +0.280 C 
BRANCH  25  26
ATOM     26  N   LIG    1       -1.211   5.069  -0.372  0.00  0.00    -0.730 N 
ATOM     27  H   LIG    1       -0.966   5.351  -1.267  0.00  0.00    +0.400 HD
ATOM     28  C   LIG    1       -2.142   5.755   0.321  0.00  0.00    +0.510 C 
ATOM     29  O   LIG    1       -2.447   5.401   1.440  0.00  0.00    -0.550 OA
ATOM     30  C   LIG    1       -2.803   6.960  -0.296  0.00  0.00    +0.090 C 
ENDBRANCH  25  26
ENDBRANCH  19  25
ENDBRANCH  18  19
ENDBRANCH   3  18
TORSDOF 7
