REMARK  Name = ZINCqH00000037Si.0
REMARK                            x       y       z     vdW  Elec       q    Type
REMARK                         _______ _______ _______ _____ _____    ______ ____
ROOT
ATOM      1  C   LIG    1       -3.463  -2.022  -2.799  0.00  0.00    +0.270 A 
ATOM      2  N   LIG    1       -3.941  -1.151  -3.649  0.00  0.00    -0.320 NA
ATOM      3  N   LIG    1       -3.894  -1.613  -4.846  0.00  0.00    -0.030 NA
ATOM      4  N   LIG    1       -3.398  -2.803  -4.845  0.00  0.00    -0.070 NA
ATOM      5  N   LIG    1       -3.098  -3.113  -3.506  0.00  0.00    -0.330 N 
ENDROOT
BRANCH   5   6
ATOM      6  C   LIG    1       -2.539  -4.301  -3.012  0.00  0.00    +0.150 A 
ATOM      7  C   LIG    1       -1.543  -4.251  -2.047  0.00  0.00    +0.060 A 
ATOM      8  C   LIG    1       -0.997  -5.422  -1.558  0.00  0.00    +0.100 A 
ATOM      9  C   LIG    1       -1.436  -6.643  -2.037  0.00  0.00    -0.170 A 
ATOM     10  C   LIG    1       -2.425  -6.695  -3.002  0.00  0.00    +0.100 A 
ATOM     11  C   LIG    1       -2.977  -5.528  -3.491  0.00  0.00    +0.060 A 
BRANCH   9  12
ATOM     12  C   LIG    1       -0.834  -7.919  -1.507  0.00  0.00    +0.510 C 
ATOM     13  F   LIG    1       -1.788  -8.941  -1.559  0.00  0.00    -0.170 F 
ATOM     14  F   LIG    1       -0.427  -7.728  -0.182  0.00  0.00    -0.170 F 
ATOM     15  F   LIG    1        0.272  -8.273  -2.288  0.00  0.00    -0.170 F 
ENDBRANCH   9  12
ENDBRANCH   5   6
BRANCH   1  16
ATOM     16  C   LIG    1       -3.347  -1.844  -1.307  0.00  0.00    +0.320 C 
BRANCH  16  17
ATOM     17  N   LIG    1       -2.091  -1.151  -0.993  0.00  0.00    -0.530 NA
BRANCH  17  19
ATOM     18  C   LIG    1       -1.467  -2.584   0.893  0.00  0.00    +0.020 C 
ATOM     19  C   LIG    1       -1.830  -1.164   0.453  0.00  0.00    +0.180 C 
ENDBRANCH  17  19
BRANCH  17  20
ATOM     20  C   LIG    1       -2.102   0.223  -1.513  0.00  0.00    +0.230 C 
BRANCH  20  21
ATOM     21  C   LIG    1       -0.723   0.817  -1.392  0.00  0.00    -0.080 A 
ATOM     22  C   LIG    1        0.182   0.679  -2.428  0.00  0.00    +0.020 A 
ATOM     23  C   LIG    1        1.448   1.225  -2.317  0.00  0.00    +0.000 A 
ATOM     24  C   LIG    1        1.808   1.907  -1.171  0.00  0.00    +0.000 A 
ATOM     25  C   LIG    1        0.903   2.046  -0.135  0.00  0.00    +0.000 A 
ATOM     26  C   LIG    1       -0.363   1.501  -0.246  0.00  0.00    +0.010 A 
ENDBRANCH  20  21
ENDBRANCH  17  20
ENDBRANCH  16  17
ENDBRANCH   1  16
TORSDOF 7
