REMARK  Name = ZINCzw0000000dBv.0
REMARK                            x       y       z     vdW  Elec       q    Type
REMARK                         _______ _______ _______ _____ _____    ______ ____
ROOT
ATOM      1  C   LIG    1        5.569   8.923   0.522  0.00  0.00    -0.030 A 
ATOM      2  C   LIG    1        5.611   7.621   0.891  0.00  0.00    +0.180 A 
ATOM      3  N   LIG    1        4.853   6.951  -0.007  0.00  0.00    -0.280 N 
ATOM      4  N   LIG    1        4.383   7.800  -0.852  0.00  0.00    -0.060 NA
ATOM      5  N   LIG    1        4.791   8.985  -0.564  0.00  0.00    -0.260 NA
ENDROOT
BRANCH   1   9
ATOM      6  N   LIG    1        7.654  11.908   0.539  0.00  0.00    -0.400 N 
ATOM      7  C   LIG    1        8.564  10.748   0.721  0.00  0.00    +0.270 C 
ATOM      8  C   LIG    1        7.728   9.718   1.509  0.00  0.00    +0.090 C 
ATOM      9  C   LIG    1        6.259  10.076   1.204  0.00  0.00    +0.020 C 
ATOM     10  C   LIG    1        5.524  10.446   2.494  0.00  0.00    +0.080 C 
ATOM     11  C   LIG    1        6.331  11.294   0.258  0.00  0.00    +0.310 C 
ATOM     12  H   LIG    1        7.614  12.461   1.382  0.00  0.00    +0.430 HD
BRANCH   6  13
ATOM     13  C   LIG    1        8.091  12.731  -0.597  0.00  0.00    +0.400 C 
BRANCH  13  17
ATOM     14  C   LIG    1       10.912  14.803   0.444  0.00  0.00    -0.020 A 
ATOM     15  C   LIG    1       11.595  13.742  -0.080  0.00  0.00    -0.070 A 
ATOM     16  C   LIG    1       10.632  12.827  -0.533  0.00  0.00    +0.010 A 
ATOM     17  C   LIG    1        9.419  13.366  -0.276  0.00  0.00    -0.060 A 
ATOM     18  C   LIG    1       13.091  13.583  -0.153  0.00  0.00    +0.150 C 
ATOM     19  O   LIG    1        9.592  14.555   0.315  0.00  0.00    -0.140 OA
BRANCH  14  20
ATOM     20  C   LIG    1       11.508  16.001   1.041  0.00  0.00    +0.540 C 
ATOM     21  O   LIG    1       12.718  16.112   1.101  0.00  0.00    -0.460 OA
BRANCH  20  23
ATOM     22  C   LIG    1       11.376  18.137   2.101  0.00  0.00    +0.280 C 
ATOM     23  O   LIG    1       10.716  16.980   1.524  0.00  0.00    -0.350 OA
ENDBRANCH  20  23
ENDBRANCH  14  20
ENDBRANCH  13  17
ENDBRANCH   6  13
ENDBRANCH   1   9
BRANCH   3  24
ATOM     24  C   LIG    1        4.605   5.507  -0.012  0.00  0.00    +0.340 C 
BRANCH  24  25
ATOM     25  C   LIG    1        3.097   5.248   0.001  0.00  0.00    +0.300 C 
BRANCH  25  26
ATOM     26  N   LIG    1        2.849   3.805  -0.005  0.00  0.00    -0.750 N 
ATOM     27  H   LIG    1        3.595   3.184  -0.015  0.00  0.00    +0.400 HD
ATOM     28  C   LIG    1        1.584   3.338   0.005  0.00  0.00    +0.710 C 
ATOM     29  N   LIG    1        1.356   2.010  -0.000  0.00  0.00    -0.740 N 
ATOM     30  H   LIG    1        2.102   1.390  -0.011  0.00  0.00    +0.400 HD
ATOM     31  O   LIG    1        0.650   4.116   0.018  0.00  0.00    -0.580 OA
BRANCH  29  32
ATOM     32  C   LIG    1       -0.018   1.503   0.010  0.00  0.00    +0.340 C 
BRANCH  32  33
ATOM     33  C   LIG    1        0.002  -0.004   0.002  0.00  0.00    -0.120 A 
ATOM     34  C   LIG    1       -0.006  -0.689  -1.199  0.00  0.00    +0.020 A 
ATOM     35  C   LIG    1        0.018  -2.071  -1.206  0.00  0.00    +0.010 A 
ATOM     36  C   LIG    1        0.039  -2.768  -0.013  0.00  0.00    +0.020 A 
ATOM     37  C   LIG    1        0.041  -2.084   1.188  0.00  0.00    +0.010 A 
ATOM     38  C   LIG    1        0.023  -0.702   1.195  0.00  0.00    +0.020 A 
ENDBRANCH  32  33
ENDBRANCH  29  32
ENDBRANCH  25  26
ENDBRANCH  24  25
ENDBRANCH   3  24
TORSDOF 10
