REMARK  Name = ZINCzw0000000dBv.1
REMARK                            x       y       z     vdW  Elec       q    Type
REMARK                         _______ _______ _______ _____ _____    ______ ____
ROOT
ATOM      1  C   LIG    1       -7.972   5.211   5.752  0.00  0.00    -0.040 A 
ATOM      2  C   LIG    1       -7.019   4.250   5.767  0.00  0.00    +0.180 A 
ATOM      3  N   LIG    1       -6.005   4.714   5.001  0.00  0.00    -0.280 N 
ATOM      4  N   LIG    1       -6.330   5.880   4.563  0.00  0.00    -0.060 NA
ATOM      5  N   LIG    1       -7.500   6.203   4.989  0.00  0.00    -0.270 NA
ENDROOT
BRANCH   1   9
ATOM      6  N   LIG    1      -10.049   6.955   7.928  0.00  0.00    -0.400 N 
ATOM      7  C   LIG    1      -10.129   5.675   8.678  0.00  0.00    +0.270 C 
ATOM      8  C   LIG    1       -9.114   4.767   7.938  0.00  0.00    +0.090 C 
ATOM      9  C   LIG    1       -9.303   5.172   6.458  0.00  0.00    +0.020 C 
ATOM     10  C   LIG    1      -10.248   4.196   5.754  0.00  0.00    +0.090 C 
ATOM     11  C   LIG    1       -9.926   6.580   6.503  0.00  0.00    +0.290 C 
ATOM     12  H   LIG    1       -9.239   7.480   8.221  0.00  0.00    +0.430 HD
BRANCH   6  13
ATOM     13  C   LIG    1      -11.271   7.743   8.141  0.00  0.00    +0.400 C 
BRANCH  13  17
ATOM     14  C   LIG    1      -11.734   8.285  11.723  0.00  0.00    -0.020 A 
ATOM     15  C   LIG    1      -11.065   9.433  11.407  0.00  0.00    -0.070 A 
ATOM     16  C   LIG    1      -10.804   9.382  10.029  0.00  0.00    +0.020 A 
ATOM     17  C   LIG    1      -11.319   8.220   9.569  0.00  0.00    -0.060 A 
ATOM     18  C   LIG    1      -10.681  10.540  12.354  0.00  0.00    +0.150 C 
ATOM     19  O   LIG    1      -11.883   7.564  10.592  0.00  0.00    -0.140 OA
BRANCH  14  20
ATOM     20  C   LIG    1      -12.211   7.905  13.055  0.00  0.00    +0.540 C 
ATOM     21  O   LIG    1      -12.021   8.643  14.002  0.00  0.00    -0.460 OA
BRANCH  20  23
ATOM     22  C   LIG    1      -13.306   6.425  14.577  0.00  0.00    +0.280 C 
ATOM     23  O   LIG    1      -12.861   6.736  13.230  0.00  0.00    -0.350 OA
ENDBRANCH  20  23
ENDBRANCH  14  20
ENDBRANCH  13  17
ENDBRANCH   6  13
ENDBRANCH   1   9
BRANCH   3  24
ATOM     24  C   LIG    1       -4.749   4.012   4.724  0.00  0.00    +0.330 C 
BRANCH  24  25
ATOM     25  C   LIG    1       -4.548   3.904   3.211  0.00  0.00    +0.300 C 
BRANCH  25  26
ATOM     26  N   LIG    1       -3.293   3.203   2.933  0.00  0.00    -0.750 N 
ATOM     27  H   LIG    1       -2.739   2.891   3.666  0.00  0.00    +0.400 HD
ATOM     28  C   LIG    1       -2.907   2.990   1.660  0.00  0.00    +0.710 C 
ATOM     29  N   LIG    1       -1.752   2.345   1.404  0.00  0.00    -0.740 N 
ATOM     30  H   LIG    1       -1.198   2.033   2.137  0.00  0.00    +0.400 HD
ATOM     31  O   LIG    1       -3.601   3.381   0.741  0.00  0.00    -0.580 OA
BRANCH  29  32
ATOM     32  C   LIG    1       -1.332   2.114   0.020  0.00  0.00    +0.340 C 
BRANCH  32  33
ATOM     33  C   LIG    1       -0.017   1.378   0.010  0.00  0.00    -0.120 A 
ATOM     34  C   LIG    1        1.171   2.086   0.002  0.00  0.00    +0.020 A 
ATOM     35  C   LIG    1        2.377   1.411  -0.014  0.00  0.00    +0.010 A 
ATOM     36  C   LIG    1        2.396   0.029  -0.021  0.00  0.00    +0.020 A 
ATOM     37  C   LIG    1        1.208  -0.679  -0.014  0.00  0.00    +0.010 A 
ATOM     38  C   LIG    1        0.002  -0.004   0.002  0.00  0.00    +0.020 A 
ENDBRANCH  32  33
ENDBRANCH  29  32
ENDBRANCH  25  26
ENDBRANCH  24  25
ENDBRANCH   3  24
TORSDOF 10
