REMARK  Name = ZINCqH0000007GFs.0
REMARK                            x       y       z     vdW  Elec       q    Type
REMARK                         _______ _______ _______ _____ _____    ______ ____
ROOT
ATOM      1  N   LIG    1       -2.409   1.061   0.019  0.00  0.00    -0.450 NA
ATOM      2  C   LIG    1       -2.606   0.101  -0.857  0.00  0.00    +0.350 C 
ATOM      3  N   LIG    1       -1.615  -0.309  -1.735  0.00  0.00    -0.570 N 
ATOM      4  H   LIG    1       -0.691  -0.355  -1.446  0.00  0.00    +0.440 HD
ATOM      5  N   LIG    1       -1.964  -0.655  -3.040  0.00  0.00    -0.230 NA
ATOM      6  C   LIG    1       -3.144  -0.760  -3.511  0.00  0.00    +0.150 C 
ATOM      7  C   LIG    1       -4.425  -0.510  -2.769  0.00  0.00    +0.160 C 
ATOM      8  S   LIG    1       -4.154  -0.755  -0.986  0.00  0.00    -0.030 S 
ENDROOT
BRANCH   6   9
ATOM      9  C   LIG    1       -3.262  -1.165  -4.923  0.00  0.00    -0.040 A 
ATOM     10  C   LIG    1       -4.523  -1.300  -5.509  0.00  0.00    +0.050 A 
ATOM     11  C   LIG    1       -4.634  -1.680  -6.831  0.00  0.00    +0.020 A 
ATOM     12  C   LIG    1       -3.492  -1.927  -7.578  0.00  0.00    +0.080 A 
ATOM     13  O   LIG    1       -3.596  -2.303  -8.886  0.00  0.00    -0.320 OA
ATOM     14  C   LIG    1       -3.139  -1.352  -9.848  0.00  0.00    +0.230 C 
ATOM     15  C   LIG    1       -1.637  -1.470 -10.052  0.00  0.00    -0.010 C 
ATOM     16  C   LIG    1       -0.853  -1.110  -8.800  0.00  0.00    +0.230 C 
ATOM     17  O   LIG    1       -1.120  -2.042  -7.750  0.00  0.00    -0.320 OA
ATOM     18  C   LIG    1       -2.235  -1.794  -7.001  0.00  0.00    +0.060 A 
ATOM     19  C   LIG    1       -2.112  -1.409  -5.681  0.00  0.00    +0.080 A 
ENDBRANCH   6   9
BRANCH   1  24
ATOM     20  C   LIG    1        0.400   3.071  -1.177  0.00  0.00    +0.140 A 
ATOM     21  C   LIG    1        1.141   3.193  -0.009  0.00  0.00    -0.080 A 
ATOM     22  C   LIG    1        0.696   2.609   1.163  0.00  0.00    +0.060 A 
ATOM     23  C   LIG    1       -0.488   1.901   1.179  0.00  0.00    -0.010 A 
ATOM     24  C   LIG    1       -1.237   1.768   0.008  0.00  0.00    +0.120 A 
ATOM     25  C   LIG    1       -0.789   2.363  -1.172  0.00  0.00    -0.040 A 
BRANCH  20  27
ATOM     26  C   LIG    1        2.078   4.362  -2.258  0.00  0.00    +0.250 C 
ATOM     27  O   LIG    1        0.843   3.647  -2.325  0.00  0.00    -0.320 OA
ENDBRANCH  20  27
ENDBRANCH   1  24
TORSDOF 3
