REMARK  Name = ZINCrg00000ccaPQ.0
REMARK                            x       y       z     vdW  Elec       q    Type
REMARK                         _______ _______ _______ _____ _____    ______ ____
ROOT
ATOM      1  O   LIG    1        1.507  -4.747  -0.747  0.00  0.00    -0.580 OA
ATOM      2  C   LIG    1        1.367  -3.958  -1.661  0.00  0.00    +0.710 C 
ATOM      3  N   LIG    1        1.274  -4.405  -2.929  0.00  0.00    -0.630 N 
ATOM      4  C   LIG    1        1.218  -3.466  -4.061  0.00  0.00    +0.240 C 
ATOM      5  C   LIG    1        2.267  -3.892  -5.095  0.00  0.00    +0.210 C 
ATOM      6  O   LIG    1        2.085  -5.275  -5.408  0.00  0.00    -0.350 OA
ATOM      7  C   LIG    1        2.271  -6.155  -4.298  0.00  0.00    +0.070 C 
ATOM      8  C   LIG    1        3.673  -5.957  -3.716  0.00  0.00    +0.010 C 
ATOM      9  C   LIG    1        4.712  -6.347  -4.772  0.00  0.00    +0.000 C 
ATOM     10  C   LIG    1        4.462  -7.792  -5.213  0.00  0.00    +0.210 C 
ATOM     11  O   LIG    1        3.131  -7.911  -5.718  0.00  0.00    -0.370 OA
ATOM     12  C   LIG    1        2.114  -7.605  -4.761  0.00  0.00    +0.250 C 
ATOM     13  C   LIG    1        1.231  -5.846  -3.223  0.00  0.00    +0.300 C 
ATOM     14  N   LIG    1        1.304  -2.636  -1.406  0.00  0.00    -0.740 N 
ATOM     15  H   LIG    1        1.265  -2.002  -2.139  0.00  0.00    +0.400 HD
ENDROOT
BRANCH  14  16
ATOM     16  C   LIG    1        1.296  -2.156  -0.022  0.00  0.00    +0.350 C 
BRANCH  16  17
ATOM     17  C   LIG    1        1.222  -0.651  -0.012  0.00  0.00    -0.190 A 
ATOM     18  C   LIG    1       -0.009  -0.009   0.005  0.00  0.00    +0.110 A 
ATOM     19  C   LIG    1       -0.033   1.374   0.013  0.00  0.00    -0.050 A 
ATOM     20  C   LIG    1        1.171   2.071   0.004  0.00  0.00    +0.320 A 
ATOM     21  N   LIG    1        2.325   1.423  -0.013  0.00  0.00    -0.520 NA
ATOM     22  C   LIG    1        2.378   0.104  -0.021  0.00  0.00    +0.310 A 
BRANCH  20  23
ATOM     23  N   LIG    1        1.161   3.461   0.011  0.00  0.00    -0.480 N 
ATOM     24  C   LIG    1        0.385   3.989  -1.120  0.00  0.00    +0.180 C 
ATOM     25  C   LIG    1        0.351   5.518  -1.039  0.00  0.00    +0.230 C 
ATOM     26  O   LIG    1        1.690   6.019  -1.021  0.00  0.00    -0.380 OA
ATOM     27  C   LIG    1        2.475   5.525   0.069  0.00  0.00    +0.230 C 
ATOM     28  C   LIG    1        2.530   3.997  -0.001  0.00  0.00    +0.190 C 
ENDBRANCH  20  23
ENDBRANCH  16  17
ENDBRANCH  14  16
TORSDOF 3
