REMARK  Name = ZINCpk00000y6xfY.0
REMARK                            x       y       z     vdW  Elec       q    Type
REMARK                         _______ _______ _______ _____ _____    ______ ____
ROOT
ATOM      1  N   LIG    1        5.056   0.099  -1.294  0.00  0.00    -0.720 N 
ATOM      2  H   LIG    1        4.319  -0.515  -1.440  0.00  0.00    +0.410 HD
ATOM      3  C   LIG    1        4.831   1.297  -0.718  0.00  0.00    +0.610 C 
ATOM      4  O   LIG    1        5.754   2.066  -0.535  0.00  0.00    -0.520 OA
ENDROOT
BRANCH   1  10
ATOM      5  C   LIG    1        9.597  -0.968  -0.342  0.00  0.00    +0.550 C 
ATOM      6  N   LIG    1        8.466  -1.366  -0.957  0.00  0.00    -0.610 N 
ATOM      7  C   LIG    1        8.518  -2.296  -2.093  0.00  0.00    +0.260 C 
ATOM      8  C   LIG    1        7.760  -1.677  -3.271  0.00  0.00    +0.030 C 
ATOM      9  C   LIG    1        6.343  -1.310  -2.825  0.00  0.00    +0.020 C 
ATOM     10  C   LIG    1        6.413  -0.275  -1.699  0.00  0.00    +0.230 C 
ATOM     11  C   LIG    1        7.156  -0.878  -0.503  0.00  0.00    +0.270 C 
ATOM     12  O   LIG    1        9.550  -0.127   0.535  0.00  0.00    -0.540 OA
BRANCH   5  14
ATOM     13  C   LIG    1       11.993  -1.235  -0.059  0.00  0.00    +0.140 C 
ATOM     14  C   LIG    1       10.890  -1.553  -0.731  0.00  0.00    -0.090 C 
ENDBRANCH   5  14
ENDBRANCH   1  10
BRANCH   3  15
ATOM     15  C   LIG    1        3.463   1.674  -0.309  0.00  0.00    -0.020 A 
ATOM     16  N   LIG    1        2.374   0.944  -0.446  0.00  0.00    -0.260 NA
ATOM     17  N   LIG    1        1.357   1.579   0.016  0.00  0.00    -0.270 N 
ATOM     18  C   LIG    1        1.734   2.787   0.486  0.00  0.00    +0.160 A 
ATOM     19  C   LIG    1        3.072   2.888   0.303  0.00  0.00    -0.140 A 
ATOM     20  C   LIG    1        3.957   4.051   0.670  0.00  0.00    +0.130 C 
BRANCH  17  21
ATOM     21  C   LIG    1       -0.016   1.067   0.026  0.00  0.00    +0.260 C 
ATOM     22  C   LIG    1       -0.736   1.557   1.286  0.00  0.00    +0.010 C 
ATOM     23  C   LIG    1       -2.193   1.082   1.247  0.00  0.00    +0.240 C 
ATOM     24  O   LIG    1       -2.820   1.568   0.058  0.00  0.00    -0.380 OA
ATOM     25  C   LIG    1       -2.216   1.104  -1.151  0.00  0.00    +0.230 C 
ATOM     26  C   LIG    1       -0.763   1.580  -1.209  0.00  0.00    -0.000 C 
ENDBRANCH  17  21
ENDBRANCH   3  15
TORSDOF 4
