REMARK  Name = ZINCkj000005lmVJ.0
REMARK                            x       y       z     vdW  Elec       q    Type
REMARK                         _______ _______ _______ _____ _____    ______ ____
ROOT
ATOM      1  C   LIG    1       -0.040   5.358   0.965  0.00  0.00    +0.130 C 
ATOM      2  C   LIG    1       -0.146   4.239  -0.078  0.00  0.00    +0.280 C 
ATOM      3  N   LIG    1        1.123   3.495  -0.092  0.00  0.00    -0.640 N 
ATOM      4  C   LIG    1        2.374   4.262  -0.205  0.00  0.00    +0.280 C 
ATOM      5  C   LIG    1        2.357   5.379   0.839  0.00  0.00    +0.240 C 
ATOM      6  C   LIG    1        1.140   2.151   0.003  0.00  0.00    +0.710 C 
ATOM      7  N   LIG    1       -0.018   1.460   0.006  0.00  0.00    -0.740 N 
ATOM      8  H   LIG    1       -0.864   1.934   0.009  0.00  0.00    +0.390 HD
ATOM      9  O   LIG    1        2.200   1.560   0.085  0.00  0.00    -0.570 OA
ATOM     10  O   LIG    1        1.142   6.122   0.716  0.00  0.00    -0.390 OA
ENDROOT
BRANCH   1  11
ATOM     11  C   LIG    1       -1.266   6.266   0.867  0.00  0.00    +0.300 C 
BRANCH  11  12
ATOM     12  N   LIG    1       -1.163   7.338   1.867  0.00  0.00    -0.630 N 
ATOM     13  H   LIG    1       -1.972   7.937   1.802  0.00  0.00    +0.440 HD
ATOM     14  H   LIG    1       -0.329   7.879   1.695  0.00  0.00    +0.440 HD
ATOM     15  H   LIG    1       -1.117   6.933   2.790  0.00  0.00    +0.440 HD
ENDBRANCH  11  12
ENDBRANCH   1  11
BRANCH   7  16
ATOM     16  C   LIG    1        0.003  -0.004  -0.002  0.00  0.00    +0.280 C 
BRANCH  16  17
ATOM     17  C   LIG    1       -1.433  -0.534   0.004  0.00  0.00    -0.010 C 
ATOM     18  C   LIG    1       -2.129  -0.133  -1.298  0.00  0.00    +0.010 C 
ATOM     19  C   LIG    1       -3.587  -0.595  -1.269  0.00  0.00    +0.000 C 
ATOM     20  C   LIG    1       -3.636  -2.124  -1.192  0.00  0.00    +0.060 C 
ATOM     21  C   LIG    1       -2.850  -2.584   0.039  0.00  0.00    -0.120 C 
ATOM     22  C   LIG    1       -3.619  -2.756   1.349  0.00  0.00    +0.010 C 
ATOM     23  C   LIG    1       -3.130  -3.985   0.580  0.00  0.00    +0.030 C 
ATOM     24  C   LIG    1       -1.413  -2.061   0.122  0.00  0.00    +0.070 C 
ENDBRANCH  16  17
ENDBRANCH   7  16
TORSDOF 4
