REMARK  Name = ZINCpk00000xI4QC.1
REMARK                            x       y       z     vdW  Elec       q    Type
REMARK                         _______ _______ _______ _____ _____    ______ ____
ROOT
ATOM      1  C   LIG    1       -0.042   2.189   2.200  0.00  0.00    +0.610 C 
ATOM      2  N   LIG    1       -0.714   1.592   1.196  0.00  0.00    -0.610 N 
ATOM      3  C   LIG    1       -2.174   1.417   1.259  0.00  0.00    +0.270 C 
ATOM      4  C   LIG    1       -2.782   1.944  -0.045  0.00  0.00    +0.240 C 
ATOM      5  O   LIG    1       -2.118   1.335  -1.155  0.00  0.00    -0.380 OA
ATOM      6  C   LIG    1       -0.723   1.640  -1.241  0.00  0.00    +0.140 C 
ATOM      7  C   LIG    1       -0.010   1.097   0.003  0.00  0.00    +0.290 C 
ATOM      8  O   LIG    1        1.172   2.258   2.163  0.00  0.00    -0.500 OA
ENDROOT
BRANCH   1  12
ATOM      9  C   LIG    1       -1.378   3.786   5.182  0.00  0.00    +0.030 A 
ATOM     10  N   LIG    1       -2.405   3.230   4.608  0.00  0.00    -0.340 NA
ATOM     11  O   LIG    1       -2.099   2.661   3.587  0.00  0.00    +0.110 OA
ATOM     12  C   LIG    1       -0.778   2.759   3.345  0.00  0.00    -0.100 A 
ATOM     13  C   LIG    1       -0.257   3.498   4.371  0.00  0.00    +0.050 A 
BRANCH   9  14
ATOM     14  C   LIG    1       -1.382   4.581   6.463  0.00  0.00    +0.080 C 
BRANCH  14  16
ATOM     15  C   LIG    1       -1.153   4.440   8.947  0.00  0.00    +0.030 C 
ATOM     16  C   LIG    1       -1.027   3.663   7.634  0.00  0.00    +0.020 C 
ENDBRANCH  14  16
BRANCH  14  17
ATOM     17  C   LIG    1       -0.352   5.708   6.367  0.00  0.00    +0.030 C 
ATOM     18  C   LIG    1       -0.775   6.694   5.276  0.00  0.00    +0.010 C 
ENDBRANCH  14  17
ENDBRANCH   9  14
ENDBRANCH   1  12
BRANCH   6  19
ATOM     19  C   LIG    1       -0.134   0.989  -2.494  0.00  0.00    +0.280 C 
BRANCH  19  20
ATOM     20  N   LIG    1       -0.734   1.596  -3.689  0.00  0.00    -0.360 N 
ATOM     21  C   LIG    1       -0.345   3.010  -3.768  0.00  0.00    +0.310 C 
ATOM     22  H   LIG    1       -1.739   1.526  -3.634  0.00  0.00    +0.430 HD
BRANCH  20  23
ATOM     23  C   LIG    1       -0.259   0.891  -4.887  0.00  0.00    +0.160 C 
BRANCH  23  24
ATOM     24  C   LIG    1       -0.967   1.432  -6.103  0.00  0.00    +0.490 C 
ATOM     25  O   LIG    1       -0.716   0.979  -7.206  0.00  0.00    -0.640 OA
ATOM     26  O   LIG    1       -1.790   2.323  -5.982  0.00  0.00    -0.670 OA
ENDBRANCH  23  24
ENDBRANCH  20  23
ENDBRANCH  19  20
ENDBRANCH   6  19
TORSDOF 8
