REMARK  Name = ZINCpk00000xI4QC.0
REMARK                            x       y       z     vdW  Elec       q    Type
REMARK                         _______ _______ _______ _____ _____    ______ ____
ROOT
ATOM      1  C   LIG    1       -2.164   0.038  -6.589  0.00  0.00    +0.610 C 
ATOM      2  N   LIG    1       -1.553   0.916  -5.770  0.00  0.00    -0.610 N 
ATOM      3  C   LIG    1       -1.459   2.342  -6.121  0.00  0.00    +0.270 C 
ATOM      4  C   LIG    1       -1.950   3.167  -4.927  0.00  0.00    +0.240 C 
ATOM      5  O   LIG    1       -1.250   2.756  -3.750  0.00  0.00    -0.380 OA
ATOM      6  C   LIG    1       -1.476   1.394  -3.381  0.00  0.00    +0.140 C 
ATOM      7  C   LIG    1       -0.960   0.477  -4.496  0.00  0.00    +0.290 C 
ATOM      8  O   LIG    1       -2.163  -1.148  -6.320  0.00  0.00    -0.500 OA
ENDROOT
BRANCH   1  12
ATOM      9  C   LIG    1       -3.991   0.707  -9.663  0.00  0.00    +0.030 A 
ATOM     10  N   LIG    1       -3.466   1.849  -9.327  0.00  0.00    -0.340 NA
ATOM     11  O   LIG    1       -2.827   1.770  -8.303  0.00  0.00    +0.110 OA
ATOM     12  C   LIG    1       -2.835   0.516  -7.813  0.00  0.00    -0.100 A 
ATOM     13  C   LIG    1       -3.596  -0.225  -8.676  0.00  0.00    +0.050 A 
BRANCH   9  14
ATOM     14  C   LIG    1       -4.851   0.430 -10.869  0.00  0.00    +0.080 C 
BRANCH  14  16
ATOM     15  C   LIG    1       -2.997   0.993 -12.446  0.00  0.00    +0.020 C 
ATOM     16  C   LIG    1       -3.977  -0.097 -12.008  0.00  0.00    +0.030 C 
ENDBRANCH  14  16
BRANCH  14  17
ATOM     17  C   LIG    1       -5.910  -0.615 -10.512  0.00  0.00    +0.020 C 
ATOM     18  C   LIG    1       -6.866  -0.796 -11.692  0.00  0.00    +0.030 C 
ENDBRANCH  14  17
ENDBRANCH   9  14
ENDBRANCH   1  12
BRANCH   6  19
ATOM     19  C   LIG    1       -0.730   1.086  -2.081  0.00  0.00    +0.270 C 
BRANCH  19  20
ATOM     20  N   LIG    1       -1.230   1.960  -1.012  0.00  0.00    -0.360 N 
ATOM     21  C   LIG    1       -0.419   1.766   0.198  0.00  0.00    +0.320 C 
ATOM     22  H   LIG    1       -1.167   2.923  -1.307  0.00  0.00    +0.430 HD
BRANCH  20  23
ATOM     23  C   LIG    1       -2.631   1.627  -0.721  0.00  0.00    +0.150 C 
BRANCH  23  24
ATOM     24  C   LIG    1       -3.180   2.602   0.288  0.00  0.00    +0.490 C 
ATOM     25  O   LIG    1       -4.334   2.501   0.667  0.00  0.00    -0.640 OA
ATOM     26  O   LIG    1       -2.471   3.493   0.724  0.00  0.00    -0.670 OA
ENDBRANCH  23  24
ENDBRANCH  20  23
ENDBRANCH  19  20
ENDBRANCH   6  19
TORSDOF 8
