REMARK  Name = ZINCrg000000s9Tk.0
REMARK                            x       y       z     vdW  Elec       q    Type
REMARK                         _______ _______ _______ _____ _____    ______ ____
ROOT
ATOM      1  C   LIG    1        0.390  -3.300  -3.493  0.00  0.00    +0.520 C 
ATOM      2  N   LIG    1        1.062  -2.495  -2.645  0.00  0.00    -0.610 N 
ATOM      3  C   LIG    1        2.436  -2.070  -2.948  0.00  0.00    +0.270 C 
ATOM      4  C   LIG    1        2.505  -0.541  -2.876  0.00  0.00    +0.030 C 
ATOM      5  C   LIG    1        1.988  -0.074  -1.513  0.00  0.00    +0.020 C 
ATOM      6  C   LIG    1        0.528  -0.500  -1.347  0.00  0.00    +0.000 C 
ATOM      7  C   LIG    1        0.436  -2.028  -1.401  0.00  0.00    +0.310 C 
ATOM      8  O   LIG    1       -0.743  -3.644  -3.231  0.00  0.00    -0.520 OA
ENDROOT
BRANCH   1  11
ATOM      9  N   LIG    1        0.499  -6.083  -5.085  0.00  0.00    -0.570 N 
ATOM     10  C   LIG    1        0.123  -4.739  -5.537  0.00  0.00    +0.310 C 
ATOM     11  C   LIG    1        1.047  -3.771  -4.764  0.00  0.00    +0.000 C 
ATOM     12  C   LIG    1        2.264  -4.673  -4.457  0.00  0.00    +0.080 C 
ATOM     13  C   LIG    1        1.699  -6.077  -4.480  0.00  0.00    +0.520 C 
ATOM     14  O   LIG    1        2.249  -7.055  -4.018  0.00  0.00    -0.510 OA
BRANCH   9  19
ATOM     15  C   LIG    1       -2.704 -10.713  -5.803  0.00  0.00    +0.100 C 
ATOM     16  C   LIG    1       -1.854  -9.484  -5.612  0.00  0.00    -0.050 A 
ATOM     17  C   LIG    1       -0.931  -9.126  -6.577  0.00  0.00    +0.010 A 
ATOM     18  C   LIG    1       -0.154  -7.996  -6.408  0.00  0.00    +0.060 A 
ATOM     19  C   LIG    1       -0.292  -7.226  -5.262  0.00  0.00    +0.100 A 
ATOM     20  C   LIG    1       -1.220  -7.588  -4.292  0.00  0.00    +0.120 A 
ATOM     21  F   LIG    1       -1.362  -6.838  -3.177  0.00  0.00    -0.120 F 
ATOM     22  C   LIG    1       -1.998  -8.717  -4.470  0.00  0.00    -0.010 A 
ENDBRANCH   9  19
ENDBRANCH   1  11
BRANCH   6  23
ATOM     23  C   LIG    1        0.002  -0.004   0.002  0.00  0.00    -0.340 C 
BRANCH  23  24
ATOM     24  S   LIG    1       -0.022   1.810   0.012  0.00  0.00    +2.610 S 
ATOM     25  O   LIG    1       -1.007   2.300  -0.888  0.00  0.00    -0.960 OA
ATOM     26  O   LIG    1        1.301   2.326   0.002  0.00  0.00    -0.960 OA
BRANCH  24  27
ATOM     27  N   LIG    1       -0.605   2.207   1.510  0.00  0.00    -1.250 NA
ATOM     28  H   LIG    1       -0.711   3.139   1.758  0.00  0.00    +0.420 HD
ATOM     29  H   LIG    1       -0.840   1.508   2.140  0.00  0.00    +0.410 HD
ENDBRANCH  24  27
ENDBRANCH  23  24
ENDBRANCH   6  23
TORSDOF 5
