REMARK  Name = ZINCqH0000002xQI.0
REMARK                            x       y       z     vdW  Elec       q    Type
REMARK                         _______ _______ _______ _____ _____    ______ ____
ROOT
ATOM      1  N   LIG    1       -4.759   5.421   7.261  0.00  0.00    -0.530 N 
ATOM      2  C   LIG    1       -5.921   5.519   7.948  0.00  0.00    +0.550 A 
ATOM      3  C   LIG    1       -7.155   5.120   7.258  0.00  0.00    -0.200 A 
ATOM      4  C   LIG    1       -8.399   5.179   7.883  0.00  0.00    +0.100 A 
ATOM      5  C   LIG    1       -9.526   4.793   7.192  0.00  0.00    -0.010 A 
ATOM      6  C   LIG    1       -9.432   4.345   5.881  0.00  0.00    +0.060 A 
ATOM      7  C   LIG    1       -8.214   4.278   5.244  0.00  0.00    +0.030 A 
ATOM      8  C   LIG    1       -7.056   4.665   5.923  0.00  0.00    +0.170 A 
ATOM      9  N   LIG    1       -5.838   4.613   5.333  0.00  0.00    -0.530 NA
ATOM     10  O   LIG    1       -5.942   5.919   9.098  0.00  0.00    -0.500 OA
ATOM     11  C   LIG    1       -4.752   4.975   5.970  0.00  0.00    +0.360 A 
ENDROOT
BRANCH   1  12
ATOM     12  C   LIG    1       -3.500   5.802   7.905  0.00  0.00    +0.300 C 
BRANCH  12  13
ATOM     13  C   LIG    1       -3.231   7.288   7.661  0.00  0.00    +0.000 C 
BRANCH  13  15
ATOM     14  C   LIG    1       -1.647   9.172   8.089  0.00  0.00    +0.020 C 
ATOM     15  C   LIG    1       -1.915   7.686   8.334  0.00  0.00    +0.020 C 
ENDBRANCH  13  15
ENDBRANCH  12  13
ENDBRANCH   1  12
BRANCH  11  16
ATOM     16  S   LIG    1       -3.210   4.875   5.125  0.00  0.00    +0.070 S 
BRANCH  16  17
ATOM     17  C   LIG    1       -3.769   4.243   3.524  0.00  0.00    +0.020 C 
ATOM     18  C   LIG    1       -4.658   5.287   2.845  0.00  0.00    +0.090 C 
BRANCH  17  19
ATOM     19  C   LIG    1       -2.574   3.957   2.651  0.00  0.00    +0.540 C 
ATOM     20  N   LIG    1       -2.692   3.123   1.599  0.00  0.00    -0.710 N 
ATOM     21  H   LIG    1       -3.547   2.707   1.403  0.00  0.00    +0.400 HD
ATOM     22  O   LIG    1       -1.506   4.477   2.896  0.00  0.00    -0.520 OA
BRANCH  20  23
ATOM     23  C   LIG    1       -1.531   2.845   0.750  0.00  0.00    +0.240 C 
ATOM     24  C   LIG    1       -0.763   1.597   1.255  0.00  0.00    +0.000 C 
ATOM     25  C   LIG    1       -0.013   1.086   0.008  0.00  0.00    +0.020 C 
ATOM     26  C   LIG    1       -0.784   1.609  -1.216  0.00  0.00    +0.020 C 
ATOM     27  C   LIG    1       -1.978   2.421  -0.670  0.00  0.00    +0.010 C 
ENDBRANCH  20  23
ENDBRANCH  17  19
ENDBRANCH  16  17
ENDBRANCH  11  16
TORSDOF 7
