REMARK  Name = ZINCpk00000xIhec.0
REMARK                            x       y       z     vdW  Elec       q    Type
REMARK                         _______ _______ _______ _____ _____    ______ ____
ROOT
ATOM      1  C   LIG    1        1.187   1.801   0.000  0.00  0.00    -0.150 A 
ATOM      2  C   LIG    1        1.153   3.199   0.012  0.00  0.00    +0.170 A 
ATOM      3  C   LIG    1       -0.053   3.865   0.044  0.00  0.00    +0.000 A 
ATOM      4  C   LIG    1       -1.241   3.140   0.057  0.00  0.00    +0.240 A 
ATOM      5  C   LIG    1       -1.203   1.753   0.017  0.00  0.00    -0.710 A 
ATOM      6  S   LIG    1       -2.748   0.901  -0.034  0.00  0.00    +2.630 S 
ATOM      7  N   LIG    1       -3.840   2.043  -0.525  0.00  0.00    -0.940 NA
ATOM      8  C   LIG    1       -3.596   3.322  -0.421  0.00  0.00    +0.560 C 
ATOM      9  C   LIG    1       -4.632   4.194  -0.989  0.00  0.00    +0.110 C 
ATOM     10  C   LIG    1       -5.184   5.415  -0.404  0.00  0.00    +0.060 C 
ATOM     11  C   LIG    1       -4.930   5.651   1.057  0.00  0.00    +0.020 C 
ATOM     12  C   LIG    1       -3.545   5.611   1.588  0.00  0.00    +0.020 C 
ATOM     13  C   LIG    1       -2.391   5.070   0.867  0.00  0.00    +0.300 C 
ATOM     14  O   LIG    1       -2.654  -0.054  -1.081  0.00  0.00    -0.930 OA
ATOM     15  O   LIG    1       -3.081   0.566   1.307  0.00  0.00    -0.950 OA
ATOM     16  N   LIG    1       -2.471   3.824   0.127  0.00  0.00    -0.570 N 
ATOM     17  C   LIG    1       -0.013   1.076   0.008  0.00  0.00    +0.240 A 
ENDROOT
BRANCH   1  18
ATOM     18  C   LIG    1        2.479   1.093  -0.020  0.00  0.00    +0.520 C 
ATOM     19  O   LIG    1        2.507  -0.122  -0.030  0.00  0.00    -0.490 OA
BRANCH  18  20
ATOM     20  O   LIG    1        3.631   1.793  -0.027  0.00  0.00    -0.330 OA
BRANCH  20  21
ATOM     21  C   LIG    1        4.866   1.030  -0.047  0.00  0.00    +0.320 C 
BRANCH  21  22
ATOM     22  C   LIG    1        6.040   1.974  -0.053  0.00  0.00    +0.460 C 
ATOM     23  O   LIG    1        5.855   3.168  -0.041  0.00  0.00    -0.480 OA
BRANCH  22  25
ATOM     24  C   LIG    1        8.374   2.457  -0.075  0.00  0.00    +0.290 C 
ATOM     25  O   LIG    1        7.292   1.489  -0.071  0.00  0.00    -0.350 OA
ENDBRANCH  22  25
ENDBRANCH  21  22
ENDBRANCH  20  21
ENDBRANCH  18  20
ENDBRANCH   1  18
TORSDOF 5
