REMARK  Name = ZINCvU0000000Fiv.0
REMARK                            x       y       z     vdW  Elec       q    Type
REMARK                         _______ _______ _______ _____ _____    ______ ____
ROOT
ATOM      1  C   LIG    1        5.484   4.101  -0.030  0.00  0.00    +0.210 C 
ENDROOT
BRANCH   1   2
ATOM      2  C   LIG    1        6.599   5.114  -0.035  0.00  0.00    +0.070 A 
ATOM      3  C   LIG    1        7.113   5.598  -1.171  0.00  0.00    -0.040 A 
ATOM      4  S   LIG    1        8.383   6.748  -0.756  0.00  0.00    +0.110 S 
ATOM      5  C   LIG    1        8.084   6.453   0.955  0.00  0.00    +0.130 A 
ATOM      6  N   LIG    1        7.122   5.582   1.075  0.00  0.00    -0.450 NA
BRANCH   5   7
ATOM      7  C   LIG    1        8.805   7.093   2.075  0.00  0.00    -0.030 A 
ATOM      8  C   LIG    1        8.476   6.774   3.393  0.00  0.00    +0.080 A 
ATOM      9  C   LIG    1        9.150   7.373   4.437  0.00  0.00    -0.040 A 
ATOM     10  C   LIG    1       10.155   8.293   4.180  0.00  0.00    +0.120 A 
ATOM     11  C   LIG    1       10.490   8.615   2.867  0.00  0.00    +0.100 A 
ATOM     12  C   LIG    1        9.822   8.014   1.816  0.00  0.00    -0.010 A 
BRANCH  11  13
ATOM     13  O   LIG    1       11.477   9.518   2.618  0.00  0.00    -0.300 OA
ATOM     14  C   LIG    1       11.767   9.800   1.248  0.00  0.00    +0.250 C 
ENDBRANCH  11  13
BRANCH  10  15
ATOM     15  O   LIG    1       10.817   8.881   5.213  0.00  0.00    -0.300 OA
ATOM     16  C   LIG    1       10.423   8.504   6.534  0.00  0.00    +0.240 C 
ENDBRANCH  10  15
ENDBRANCH   5   7
ENDBRANCH   1   2
BRANCH   1  17
ATOM     17  S   LIG    1        6.186   2.432  -0.045  0.00  0.00    +0.020 S 
BRANCH  17  28
ATOM     18  N   LIG    1        4.809   0.116  -0.044  0.00  0.00    -0.530 N 
ATOM     19  C   LIG    1        3.699  -0.658  -0.036  0.00  0.00    +0.560 A 
ATOM     20  C   LIG    1        2.396   0.021  -0.020  0.00  0.00    -0.200 A 
ATOM     21  C   LIG    1        1.197  -0.689  -0.013  0.00  0.00    +0.100 A 
ATOM     22  C   LIG    1        0.002  -0.004   0.002  0.00  0.00    -0.010 A 
ATOM     23  C   LIG    1       -0.017   1.385   0.010  0.00  0.00    +0.070 A 
ATOM     24  C   LIG    1        1.155   2.106   0.002  0.00  0.00    +0.030 A 
ATOM     25  C   LIG    1        2.381   1.435  -0.013  0.00  0.00    +0.170 A 
ATOM     26  N   LIG    1        3.556   2.107  -0.021  0.00  0.00    -0.530 NA
ATOM     27  O   LIG    1        3.777  -1.873  -0.043  0.00  0.00    -0.500 OA
ATOM     28  C   LIG    1        4.705   1.477  -0.035  0.00  0.00    +0.370 A 
BRANCH  18  29
ATOM     29  C   LIG    1        6.133  -0.512  -0.060  0.00  0.00    +0.330 C 
BRANCH  29  31
ATOM     30  C   LIG    1        6.957  -1.934   1.746  0.00  0.00    +0.060 C 
ATOM     31  C   LIG    1        6.600  -0.735   1.356  0.00  0.00    -0.070 C 
ENDBRANCH  29  31
ENDBRANCH  18  29
ENDBRANCH  17  28
ENDBRANCH   1  17
TORSDOF 8
