REMARK  Name = ZINCpk00001AZiLO.0
REMARK                            x       y       z     vdW  Elec       q    Type
REMARK                         _______ _______ _______ _____ _____    ______ ____
ROOT
ATOM      1  O   LIG    1        0.044  -2.613   0.689  0.00  0.00    -0.620 OA
ATOM      2  C   LIG    1        0.042  -1.826   1.619  0.00  0.00    +0.690 C 
ATOM      3  N   LIG    1        0.022  -0.500   1.381  0.00  0.00    -0.720 N 
ATOM      4  H   LIG    1        0.020   0.127   2.121  0.00  0.00    +0.400 HD
ENDROOT
BRANCH   2   5
ATOM      5  N   LIG    1        0.060  -2.279   2.879  0.00  0.00    -0.680 NA
ATOM      6  C   LIG    1        0.080  -3.587   3.114  0.00  0.00    +0.500 A 
ATOM      7  C   LIG    1        0.079  -4.613   2.144  0.00  0.00    -0.100 A 
ATOM      8  C   LIG    1        0.107  -5.800   2.785  0.00  0.00    +0.350 A 
ATOM      9  N   LIG    1        0.117  -5.577   4.131  0.00  0.00    -0.390 N 
ATOM     10  N   LIG    1        0.100  -4.193   4.348  0.00  0.00    -0.480 N 
ATOM     11  H   LIG    1        0.102  -3.745   5.208  0.00  0.00    +0.450 HD
BRANCH   9  12
ATOM     12  C   LIG    1        0.141  -6.609   5.171  0.00  0.00    +0.260 C 
ATOM     13  C   LIG    1       -0.684  -6.250   6.422  0.00  0.00    +0.230 C 
ATOM     14  O   LIG    1        0.435  -6.766   7.170  0.00  0.00    -0.360 OA
ATOM     15  C   LIG    1        1.369  -6.529   6.098  0.00  0.00    +0.220 C 
ENDBRANCH   9  12
ENDBRANCH   2   5
BRANCH   3  16
ATOM     16  C   LIG    1        0.002  -0.004   0.002  0.00  0.00    +0.410 C 
BRANCH  16  17
ATOM     17  C   LIG    1       -0.018   1.503   0.010  0.00  0.00    +0.140 A 
ATOM     18  N   LIG    1       -1.080   2.259   0.019  0.00  0.00    -0.260 NA
ATOM     19  N   LIG    1       -0.728   3.494   0.065  0.00  0.00    -0.300 NA
ATOM     20  C   LIG    1        0.574   3.571   0.104  0.00  0.00    +0.200 A 
ATOM     21  C   LIG    1        1.368   4.841   0.304  0.00  0.00    +0.150 C 
ATOM     22  C   LIG    1        1.838   4.867   1.770  0.00  0.00    +0.030 C 
ATOM     23  C   LIG    1        2.564   3.550   2.060  0.00  0.00    +0.000 C 
ATOM     24  C   LIG    1        3.777   3.498   1.152  0.00  0.00    +0.000 C 
ATOM     25  C   LIG    1        3.460   2.958  -0.234  0.00  0.00    +0.030 C 
ATOM     26  C   LIG    1        2.439   1.822  -0.157  0.00  0.00    +0.280 C 
ATOM     27  N   LIG    1        1.072   2.325   0.004  0.00  0.00    -0.460 N 
ENDBRANCH  16  17
ENDBRANCH   3  16
TORSDOF 4
