REMARK  Name = ZINCrD0000072H9m.0
REMARK                            x       y       z     vdW  Elec       q    Type
REMARK                         _______ _______ _______ _____ _____    ______ ____
ROOT
ATOM      1  C   LIG    1       -0.198   1.237  -2.367  0.00  0.00    +0.540 C 
ATOM      2  O   LIG    1        0.796   0.541  -2.427  0.00  0.00    -0.510 OA
ENDROOT
BRANCH   1   8
ATOM      3  C   LIG    1       -0.290   1.399  -4.855  0.00  0.00    +0.320 A 
ATOM      4  C   LIG    1       -0.928   1.821  -6.014  0.00  0.00    -0.050 A 
ATOM      5  C   LIG    1       -2.119   2.513  -5.935  0.00  0.00    +0.190 A 
ATOM      6  C   LIG    1       -2.689   2.791  -4.703  0.00  0.00    -0.120 A 
ATOM      7  C   LIG    1       -2.074   2.376  -3.542  0.00  0.00    +0.230 A 
ATOM      8  C   LIG    1       -0.864   1.679  -3.604  0.00  0.00    -0.220 A 
BRANCH   3  10
ATOM      9  C   LIG    1        1.567   0.518  -6.228  0.00  0.00    +0.300 C 
ATOM     10  N   LIG    1        0.909   0.703  -4.932  0.00  0.00    -0.700 N 
ATOM     11  H   LIG    1        1.312   0.340  -4.128  0.00  0.00    +0.430 HD
ENDBRANCH   3  10
BRANCH   6  12
ATOM     12  N   LIG    1       -3.968   3.533  -4.633  0.00  0.00    +0.040 N 
ATOM     13  O   LIG    1       -4.471   3.779  -3.552  0.00  0.00    -0.170 OA
ATOM     14  O   LIG    1       -4.517   3.897  -5.658  0.00  0.00    -0.170 OA
ENDBRANCH   6  12
ENDBRANCH   1   8
BRANCH   1  15
ATOM     15  O   LIG    1       -0.692   1.605  -1.168  0.00  0.00    -0.340 OA
BRANCH  15  16
ATOM     16  C   LIG    1        0.015   1.133   0.009  0.00  0.00    +0.420 C 
BRANCH  16  17
ATOM     17  C   LIG    1       -0.676   1.640   1.248  0.00  0.00    +0.170 A 
ATOM     18  N   LIG    1       -1.641   1.040   1.901  0.00  0.00    -0.440 NA
ATOM     19  C   LIG    1       -1.941   1.858   2.935  0.00  0.00    +0.220 A 
ATOM     20  N   LIG    1       -1.155   2.899   2.846  0.00  0.00    -0.360 NA
ATOM     21  O   LIG    1       -0.425   2.788   1.884  0.00  0.00    +0.090 OA
BRANCH  19  22
ATOM     22  C   LIG    1       -2.974   1.620   3.975  0.00  0.00    -0.040 A 
ATOM     23  C   LIG    1       -3.746   0.461   3.941  0.00  0.00    +0.070 A 
ATOM     24  C   LIG    1       -4.701   0.243   4.913  0.00  0.00    +0.000 A 
ATOM     25  C   LIG    1       -4.900   1.177   5.913  0.00  0.00    +0.040 A 
ATOM     26  C   LIG    1       -4.140   2.332   5.948  0.00  0.00    +0.010 A 
ATOM     27  C   LIG    1       -3.179   2.558   4.984  0.00  0.00    -0.040 A 
ATOM     28  C   LIG    1       -2.351   3.817   5.024  0.00  0.00    +0.110 C 
ENDBRANCH  19  22
ENDBRANCH  16  17
ENDBRANCH  15  16
ENDBRANCH   1  15
TORSDOF 7
