REMARK  Name = ZINCrD00000l1KPZ.0
REMARK                            x       y       z     vdW  Elec       q    Type
REMARK                         _______ _______ _______ _____ _____    ______ ____
ROOT
ATOM      1  C   LIG    1       -2.286  -0.405   1.500  0.00  0.00    -0.250 A 
ATOM      2  C   LIG    1       -3.273  -1.060   2.151  0.00  0.00    +0.200 A 
ATOM      3  N   LIG    1       -3.613  -2.206   1.605  0.00  0.00    -0.480 NA
ATOM      4  C   LIG    1       -2.967  -2.567   0.538  0.00  0.00    +0.300 A 
ATOM      5  C   LIG    1       -3.932  -0.519   3.394  0.00  0.00    +0.190 C 
ATOM      6  S   LIG    1       -1.804  -1.387   0.119  0.00  0.00    +0.190 S 
ENDROOT
BRANCH   1  13
ATOM      7  N   LIG    1       -0.698   1.558   1.213  0.00  0.00    -0.490 N 
ATOM      8  C   LIG    1       -0.446   2.711   1.865  0.00  0.00    +0.480 A 
ATOM      9  N   LIG    1       -1.287   2.780   2.917  0.00  0.00    -0.470 N 
ATOM     10  H   LIG    1       -1.336   3.500   3.565  0.00  0.00    +0.470 HD
ATOM     11  N   LIG    1       -2.074   1.620   2.906  0.00  0.00    -0.260 NA
ATOM     12  S   LIG    1        0.730   3.878   1.434  0.00  0.00    -0.560 S 
ATOM     13  C   LIG    1       -1.712   0.896   1.881  0.00  0.00    +0.370 A 
BRANCH   7  14
ATOM     14  C   LIG    1       -0.013   1.086   0.008  0.00  0.00    +0.370 C 
BRANCH  14  16
ATOM     15  C   LIG    1       -0.098   2.269  -2.126  0.00  0.00    +0.100 C 
ATOM     16  C   LIG    1       -0.742   1.585  -1.213  0.00  0.00    -0.090 C 
ENDBRANCH  14  16
ENDBRANCH   7  14
ENDBRANCH   1  13
BRANCH   4  17
ATOM     17  N   LIG    1       -3.190  -3.743  -0.162  0.00  0.00    -0.630 N 
ATOM     18  H   LIG    1       -2.665  -3.943  -0.954  0.00  0.00    +0.420 HD
ATOM     19  C   LIG    1       -4.135  -4.608   0.256  0.00  0.00    +0.560 C 
ATOM     20  O   LIG    1       -4.792  -4.357   1.248  0.00  0.00    -0.460 OA
BRANCH  19  21
ATOM     21  C   LIG    1       -4.372  -5.859  -0.489  0.00  0.00    -0.170 A 
ATOM     22  C   LIG    1       -3.624  -6.151  -1.633  0.00  0.00    +0.080 A 
ATOM     23  C   LIG    1       -3.845  -7.318  -2.325  0.00  0.00    +0.000 A 
ATOM     24  C   LIG    1       -4.824  -8.216  -1.901  0.00  0.00    +0.140 A 
ATOM     25  O   LIG    1       -5.210  -9.402  -2.445  0.00  0.00    -0.300 OA
ATOM     26  C   LIG    1       -5.920 -10.169  -1.458  0.00  0.00    +0.240 C 
ATOM     27  C   LIG    1       -6.525  -9.076  -0.545  0.00  0.00    +0.090 C 
ATOM     28  C   LIG    1       -5.566  -7.922  -0.760  0.00  0.00    -0.180 A 
ATOM     29  C   LIG    1       -5.351  -6.761  -0.059  0.00  0.00    +0.140 A 
ENDBRANCH  19  21
ENDBRANCH   4  17
TORSDOF 5
