REMARK  Name = ZINCvU00000005Ad.0
REMARK                            x       y       z     vdW  Elec       q    Type
REMARK                         _______ _______ _______ _____ _____    ______ ____
ROOT
ATOM      1  N   LIG    1       -1.241   3.269   0.913  0.00  0.00    -0.740 N 
ATOM      2  H   LIG    1       -0.379   3.673   1.097  0.00  0.00    +0.390 HD
ATOM      3  C   LIG    1       -2.355   3.772   1.481  0.00  0.00    +0.710 C 
ATOM      4  N   LIG    1       -2.271   4.837   2.303  0.00  0.00    -0.620 N 
ATOM      5  O   LIG    1       -3.437   3.266   1.252  0.00  0.00    -0.570 OA
ENDROOT
BRANCH   4   6
ATOM      6  C   LIG    1       -3.482   5.384   2.920  0.00  0.00    +0.290 C 
ATOM      7  C   LIG    1       -4.197   4.316   3.714  0.00  0.00    -0.060 C 
ATOM      8  C   LIG    1       -5.481   4.340   3.485  0.00  0.00    +0.010 C 
ATOM      9  C   LIG    1       -5.837   5.429   2.499  0.00  0.00    +0.030 C 
ATOM     10  C   LIG    1       -4.494   5.813   1.833  0.00  0.00    +0.040 C 
BRANCH   9  11
ATOM     11  C   LIG    1       -6.821   4.901   1.453  0.00  0.00    +0.180 C 
BRANCH  11  12
ATOM     12  O   LIG    1       -8.066   4.594   2.083  0.00  0.00    -0.570 OA
ATOM     13  H   LIG    1       -8.739   4.253   1.478  0.00  0.00    +0.380 HD
ENDBRANCH  11  12
ENDBRANCH   9  11
ENDBRANCH   4   6
BRANCH   1  15
ATOM     14  C   LIG    1       -1.664   2.587  -1.397  0.00  0.00    +0.040 C 
ATOM     15  C   LIG    1       -1.333   2.112   0.020  0.00  0.00    +0.300 C 
BRANCH  15  16
ATOM     16  C   LIG    1       -0.017   1.379   0.010  0.00  0.00    -0.080 A 
ATOM     17  C   LIG    1        1.169   2.092   0.002  0.00  0.00    +0.010 A 
ATOM     18  C   LIG    1        2.377   1.426  -0.013  0.00  0.00    +0.030 A 
ATOM     19  C   LIG    1        2.402   0.033  -0.021  0.00  0.00    -0.050 A 
ATOM     20  C   LIG    1        1.205  -0.680  -0.013  0.00  0.00    +0.030 A 
ATOM     21  C   LIG    1        0.002  -0.004   0.002  0.00  0.00    +0.030 A 
BRANCH  19  22
ATOM     22  C   LIG    1        3.699  -0.689  -0.038  0.00  0.00    +0.000 A 
ATOM     23  C   LIG    1        3.743  -2.086  -0.041  0.00  0.00    -0.030 A 
ATOM     24  C   LIG    1        4.970  -2.717  -0.062  0.00  0.00    +0.260 A 
ATOM     25  N   LIG    1        6.090  -2.019  -0.069  0.00  0.00    -0.490 NA
ATOM     26  C   LIG    1        6.092  -0.700  -0.062  0.00  0.00    +0.260 A 
ATOM     27  C   LIG    1        4.909   0.010  -0.046  0.00  0.00    -0.030 A 
ENDBRANCH  19  22
ENDBRANCH  15  16
ENDBRANCH   1  15
BRANCH   4  28
ATOM     28  C   LIG    1       -0.968   5.447   2.580  0.00  0.00    +0.360 C 
BRANCH  28  29
ATOM     29  C   LIG    1       -0.693   6.527   1.565  0.00  0.00    -0.210 A 
ATOM     30  C   LIG    1       -1.033   7.810   1.696  0.00  0.00    +0.030 A 
ATOM     31  C   LIG    1       -0.676   8.620   0.633  0.00  0.00    +0.000 A 
ATOM     32  C   LIG    1       -0.045   7.995  -0.363  0.00  0.00    -0.040 A 
ATOM     33  S   LIG    1        0.132   6.289   0.030  0.00  0.00    +0.100 S 
ENDBRANCH  28  29
ENDBRANCH   4  28
TORSDOF 8
