REMARK  Name = ZINCpk000000o8sH.0
REMARK                            x       y       z     vdW  Elec       q    Type
REMARK                         _______ _______ _______ _____ _____    ______ ____
ROOT
ATOM      1  S   LIG    1        2.675   4.058  -0.025  0.00  0.00    +2.700 S 
ATOM      2  O   LIG    1        3.695   3.129   0.315  0.00  0.00    -0.960 OA
ATOM      3  O   LIG    1        2.441   5.255   0.703  0.00  0.00    -0.950 OA
ENDROOT
BRANCH   1   7
ATOM      4  C   LIG    1       -1.223   1.752   0.012  0.00  0.00    +0.210 A 
ATOM      5  C   LIG    1       -0.021   1.083  -0.176  0.00  0.00    -0.010 A 
ATOM      6  C   LIG    1        1.166   1.790  -0.188  0.00  0.00    +0.140 A 
ATOM      7  C   LIG    1        1.159   3.161  -0.009  0.00  0.00    -0.700 A 
ATOM      8  C   LIG    1       -0.036   3.829   0.185  0.00  0.00    +0.150 A 
ATOM      9  C   LIG    1       -1.227   3.129   0.198  0.00  0.00    -0.030 A 
BRANCH   4  11
ATOM     10  C   LIG    1       -2.465  -0.216   0.506  0.00  0.00    +0.510 C 
ATOM     11  N   LIG    1       -2.428   1.041   0.019  0.00  0.00    -0.680 N 
ATOM     12  H   LIG    1       -3.236   1.452  -0.326  0.00  0.00    +0.420 HD
ATOM     13  O   LIG    1       -1.479  -0.695   1.025  0.00  0.00    -0.510 OA
BRANCH  10  15
ATOM     14  C   LIG    1       -3.508  -2.404   1.028  0.00  0.00    +0.050 C 
ATOM     15  C   LIG    1       -3.732  -1.025   0.405  0.00  0.00    +0.060 C 
ENDBRANCH  10  15
ENDBRANCH   4  11
ENDBRANCH   1   7
BRANCH   1  16
ATOM     16  N   LIG    1        2.959   4.511  -1.593  0.00  0.00    -1.120 NA
ATOM     17  H   LIG    1        3.725   4.155  -2.069  0.00  0.00    +0.420 HD
BRANCH  16  18
ATOM     18  C   LIG    1        2.053   5.450  -2.259  0.00  0.00    +0.280 C 
BRANCH  18  19
ATOM     19  C   LIG    1        2.719   5.988  -3.527  0.00  0.00    +0.190 C 
BRANCH  19  20
ATOM     20  N   LIG    1        1.810   6.929  -4.196  0.00  0.00    -0.540 NA
ATOM     21  C   LIG    1        0.615   6.239  -4.702  0.00  0.00    +0.160 C 
ATOM     22  C   LIG    1       -0.329   7.263  -5.336  0.00  0.00    +0.160 C 
ATOM     23  O   LIG    1        0.365   7.970  -6.367  0.00  0.00    -0.380 OA
ATOM     24  C   LIG    1        1.534   8.655  -5.909  0.00  0.00    +0.160 C 
ATOM     25  C   LIG    1        2.217   9.345  -7.091  0.00  0.00    +0.050 C 
ATOM     26  C   LIG    1       -1.538   6.541  -5.936  0.00  0.00    +0.050 C 
ATOM     27  C   LIG    1        2.498   7.644  -5.281  0.00  0.00    +0.160 C 
ENDBRANCH  19  20
ENDBRANCH  18  19
ENDBRANCH  16  18
ENDBRANCH   1  16
TORSDOF 7
