REMARK  Name = ZINCtV000002IdJI.1
REMARK                            x       y       z     vdW  Elec       q    Type
REMARK                         _______ _______ _______ _____ _____    ______ ____
ROOT
ATOM      1  N   LIG    1        6.425   0.928   2.813  0.00  0.00    -0.680 N 
ATOM      2  H   LIG    1        6.729   0.202   2.246  0.00  0.00    +0.410 HD
ATOM      3  C   LIG    1        5.114   1.233   2.872  0.00  0.00    +0.510 C 
ATOM      4  O   LIG    1        4.722   2.078   3.650  0.00  0.00    -0.500 OA
ENDROOT
BRANCH   1   8
ATOM      5  C   LIG    1        9.176   3.107   5.067  0.00  0.00    -0.160 A 
ATOM      6  C   LIG    1        9.392   1.756   4.823  0.00  0.00    +0.100 A 
ATOM      7  C   LIG    1        8.482   1.035   4.077  0.00  0.00    -0.030 A 
ATOM      8  C   LIG    1        7.349   1.660   3.570  0.00  0.00    +0.180 A 
ATOM      9  C   LIG    1        7.136   3.011   3.810  0.00  0.00    +0.010 A 
ATOM     10  C   LIG    1        8.043   3.732   4.560  0.00  0.00    +0.100 A 
BRANCH   5  11
ATOM     11  S   LIG    1       10.338   4.027   6.020  0.00  0.00    -0.010 S 
BRANCH  11  16
ATOM     12  C   LIG    1       13.896   6.491   1.812  0.00  0.00    +0.090 C 
ATOM     13  C   LIG    1       13.008   5.876   2.863  0.00  0.00    -0.090 A 
ATOM     14  C   LIG    1       12.028   4.972   2.494  0.00  0.00    +0.020 A 
ATOM     15  C   LIG    1       11.212   4.407   3.454  0.00  0.00    +0.000 A 
ATOM     16  C   LIG    1       11.377   4.746   4.792  0.00  0.00    -0.100 A 
ATOM     17  C   LIG    1       12.360   5.658   5.158  0.00  0.00    +0.030 A 
ATOM     18  C   LIG    1       13.175   6.216   4.193  0.00  0.00    -0.070 A 
ATOM     19  C   LIG    1       14.244   7.202   4.589  0.00  0.00    +0.090 C 
ENDBRANCH  11  16
ENDBRANCH   5  11
ENDBRANCH   1   8
BRANCH   3  20
ATOM     20  C   LIG    1        4.134   0.525   1.972  0.00  0.00    +0.220 C 
BRANCH  20  21
ATOM     21  N   LIG    1        2.779   1.032   2.228  0.00  0.00    -0.670 NA
ATOM     22  H   LIG    1        2.534   0.933   3.201  0.00  0.00    +0.360 HD
BRANCH  21  23
ATOM     23  C   LIG    1        1.795   0.362   1.366  0.00  0.00    +0.190 C 
ATOM     24  C   LIG    1        1.735   1.073   0.013  0.00  0.00    +0.050 C 
BRANCH  23  25
ATOM     25  C   LIG    1        0.439   0.412   2.020  0.00  0.00    -0.080 A 
ATOM     26  C   LIG    1        0.030   1.558   2.678  0.00  0.00    +0.050 A 
ATOM     27  C   LIG    1       -1.214   1.604   3.279  0.00  0.00    +0.020 A 
ATOM     28  C   LIG    1       -2.051   0.506   3.222  0.00  0.00    +0.020 A 
ATOM     29  C   LIG    1       -1.645  -0.639   2.558  0.00  0.00    -0.040 A 
ATOM     30 CL   LIG    1       -2.699  -2.016   2.479  0.00  0.00    -0.070 Cl
ATOM     31  C   LIG    1       -0.398  -0.687   1.962  0.00  0.00    +0.030 A 
ENDBRANCH  23  25
ENDBRANCH  21  23
ENDBRANCH  20  21
ENDBRANCH   3  20
TORSDOF 7
