REMARK  Name = ZINCrD00000498D6.1
REMARK                            x       y       z     vdW  Elec       q    Type
REMARK                         _______ _______ _______ _____ _____    ______ ____
ROOT
ATOM      1  O   LIG    1       -0.730  -1.842   1.865  0.00  0.00    -0.540 OA
ATOM      2  C   LIG    1        0.387  -1.385   1.992  0.00  0.00    +0.520 C 
ATOM      3  N   LIG    1        0.842  -0.466   1.117  0.00  0.00    -0.620 N 
ATOM      4  C   LIG    1        0.002  -0.004   0.002  0.00  0.00    +0.300 C 
ATOM      5  C   LIG    1       -0.019   1.528   0.010  0.00  0.00    +0.170 C 
ATOM      6  N   LIG    1        1.361   2.034   0.000  0.00  0.00    -0.540 NA
ATOM      7  C   LIG    1        2.086   1.629   1.212  0.00  0.00    +0.170 C 
ATOM      8  C   LIG    1        2.193   0.101   1.253  0.00  0.00    +0.280 C 
ENDROOT
BRANCH   6   9
ATOM      9  C   LIG    1        1.385   3.493  -0.166  0.00  0.00    +0.180 C 
BRANCH   9  10
ATOM     10  C   LIG    1        2.805   4.010   0.076  0.00  0.00    +0.030 C 
BRANCH  10  11
ATOM     11  C   LIG    1        2.831   5.530  -0.096  0.00  0.00    +0.160 C 
BRANCH  11  12
ATOM     12  O   LIG    1        4.157   6.012   0.130  0.00  0.00    -0.380 OA
BRANCH  12  13
ATOM     13  C   LIG    1        4.291   7.428  -0.007  0.00  0.00    +0.220 C 
BRANCH  13  14
ATOM     14  C   LIG    1        5.722   7.824   0.251  0.00  0.00    -0.090 A 
ATOM     15  C   LIG    1        6.129   8.148   1.532  0.00  0.00    +0.020 A 
ATOM     16  C   LIG    1        7.443   8.507   1.770  0.00  0.00    +0.000 A 
ATOM     17  C   LIG    1        8.347   8.552   0.725  0.00  0.00    +0.010 A 
ATOM     18  C   LIG    1        7.938   8.234  -0.557  0.00  0.00    +0.000 A 
ATOM     19  C   LIG    1        6.626   7.870  -0.794  0.00  0.00    +0.020 A 
ENDBRANCH  13  14
ENDBRANCH  12  13
ENDBRANCH  11  12
ENDBRANCH  10  11
ENDBRANCH   9  10
ENDBRANCH   6   9
BRANCH   2  20
ATOM     20  C   LIG    1        1.264  -1.844   3.128  0.00  0.00    +0.060 C 
BRANCH  20  21
ATOM     21  C   LIG    1        0.513  -2.881   3.966  0.00  0.00    +0.090 C 
BRANCH  21  22
ATOM     22  C   LIG    1        1.391  -3.340   5.101  0.00  0.00    -0.080 A 
ATOM     23  C   LIG    1        2.226  -4.429   4.933  0.00  0.00    +0.000 A 
ATOM     24  C   LIG    1        3.035  -4.847   5.973  0.00  0.00    +0.000 A 
ATOM     25  C   LIG    1        3.001  -4.183   7.185  0.00  0.00    +0.000 A 
ATOM     26  C   LIG    1        2.162  -3.098   7.355  0.00  0.00    +0.000 A 
ATOM     27  C   LIG    1        1.357  -2.676   6.313  0.00  0.00    +0.000 A 
ENDBRANCH  21  22
ENDBRANCH  20  21
ENDBRANCH   2  20
TORSDOF 9
