REMARK  Name = ZINCvU0000000DPC.0
REMARK                            x       y       z     vdW  Elec       q    Type
REMARK                         _______ _______ _______ _____ _____    ______ ____
ROOT
ATOM      1  C   LIG    1       -4.507   6.214  -3.522  0.00  0.00    +0.290 A 
ATOM      2  N   LIG    1       -5.062   6.118  -4.695  0.00  0.00    -0.480 NA
ATOM      3  C   LIG    1       -5.754   4.952  -4.778  0.00  0.00    +0.050 A 
ATOM      4  C   LIG    1       -6.523   4.358  -5.782  0.00  0.00    +0.070 A 
ATOM      5  C   LIG    1       -7.110   3.144  -5.560  0.00  0.00    +0.000 A 
ATOM      6  C   LIG    1       -6.952   2.492  -4.346  0.00  0.00    +0.030 A 
ATOM      7  C   LIG    1       -6.197   3.060  -3.341  0.00  0.00    +0.010 A 
ATOM      8  C   LIG    1       -5.593   4.292  -3.548  0.00  0.00    +0.050 A 
ATOM      9  N   LIG    1       -4.796   5.114  -2.776  0.00  0.00    -0.480 N 
ENDROOT
BRANCH   1  12
ATOM     10  N   LIG    1       -2.291   9.060  -4.070  0.00  0.00    -0.560 N 
ATOM     11  C   LIG    1       -2.470   7.604  -4.011  0.00  0.00    +0.300 C 
ATOM     12  C   LIG    1       -3.663   7.374  -3.059  0.00  0.00    +0.090 C 
ATOM     13  C   LIG    1       -4.435   8.707  -3.191  0.00  0.00    +0.090 C 
ATOM     14  C   LIG    1       -3.382   9.705  -3.620  0.00  0.00    +0.520 C 
ATOM     15  O   LIG    1       -3.504  10.910  -3.565  0.00  0.00    -0.500 OA
BRANCH  10  21
ATOM     16  C   LIG    1        0.074  13.203  -5.260  0.00  0.00    +0.090 C 
ATOM     17  C   LIG    1        0.040  11.703  -5.121  0.00  0.00    -0.060 A 
ATOM     18  C   LIG    1        1.153  10.953  -5.451  0.00  0.00    -0.030 A 
ATOM     19  C   LIG    1        1.126   9.576  -5.325  0.00  0.00    +0.040 A 
ATOM     20  C   LIG    1       -0.014   8.946  -4.867  0.00  0.00    -0.040 A 
ATOM     21  C   LIG    1       -1.134   9.696  -4.534  0.00  0.00    +0.170 A 
ATOM     22  C   LIG    1       -1.105  11.078  -4.667  0.00  0.00    -0.010 A 
ENDBRANCH  10  21
ENDBRANCH   1  12
BRANCH   9  23
ATOM     23  C   LIG    1       -4.349   4.852  -1.405  0.00  0.00    +0.310 C 
BRANCH  23  24
ATOM     24  C   LIG    1       -3.018   4.100  -1.438  0.00  0.00    +0.010 C 
BRANCH  24  25
ATOM     25  C   LIG    1       -2.551   3.827  -0.006  0.00  0.00    +0.080 C 
BRANCH  25  26
ATOM     26  C   LIG    1       -1.239   3.086  -0.038  0.00  0.00    -0.090 A 
ATOM     27  C   LIG    1       -1.226   1.704  -0.066  0.00  0.00    +0.000 A 
ATOM     28  C   LIG    1       -0.023   1.024  -0.089  0.00  0.00    +0.000 A 
ATOM     29  C   LIG    1        1.167   1.726  -0.096  0.00  0.00    +0.000 A 
ATOM     30  C   LIG    1        1.155   3.108  -0.074  0.00  0.00    +0.000 A 
ATOM     31  C   LIG    1       -0.049   3.788  -0.046  0.00  0.00    +0.000 A 
ENDBRANCH  25  26
ENDBRANCH  24  25
ENDBRANCH  23  24
ENDBRANCH   9  23
TORSDOF 6
