REMARK  Name = ZINCvU0000000DOJ.0
REMARK                            x       y       z     vdW  Elec       q    Type
REMARK                         _______ _______ _______ _____ _____    ______ ____
ROOT
ATOM      1  C   LIG    1       -4.625   1.127   0.160  0.00  0.00    +0.160 A 
ATOM      2  N   LIG    1       -3.893   0.046   0.006  0.00  0.00    -0.290 NA
ATOM      3  N   LIG    1       -2.654   0.366  -0.120  0.00  0.00    -0.250 NA
ATOM      4  C   LIG    1       -2.519   1.670  -0.053  0.00  0.00    +0.220 A 
ATOM      5  N   LIG    1       -3.776   2.197   0.134  0.00  0.00    -0.450 N 
ENDROOT
BRANCH   4   6
ATOM      6  C   LIG    1       -1.255   2.429  -0.154  0.00  0.00    -0.010 A 
ATOM      7  C   LIG    1       -1.168   3.539  -0.995  0.00  0.00    +0.040 A 
ATOM      8  C   LIG    1        0.017   4.240  -1.088  0.00  0.00    +0.030 A 
ATOM      9  C   LIG    1        1.117   3.847  -0.347  0.00  0.00    +0.050 A 
ATOM     10  C   LIG    1        1.038   2.750   0.492  0.00  0.00    +0.030 A 
ATOM     11  C   LIG    1       -0.142   2.040   0.596  0.00  0.00    -0.000 A 
ATOM     12 CL   LIG    1       -0.239   0.664   1.649  0.00  0.00    -0.040 Cl
ENDBRANCH   4   6
BRANCH   5  13
ATOM     13  C   LIG    1       -4.132   3.612   0.272  0.00  0.00    +0.230 C 
ATOM     14  C   LIG    1       -4.849   3.847   1.617  0.00  0.00    +0.030 C 
ATOM     15  C   LIG    1       -5.930   4.908   1.291  0.00  0.00    +0.030 C 
ATOM     16  C   LIG    1       -6.410   4.484  -0.119  0.00  0.00    +0.040 C 
ATOM     17  C   LIG    1       -5.124   4.017  -0.832  0.00  0.00    +0.020 C 
ENDBRANCH   5  13
BRANCH   1  18
ATOM     18  S   LIG    1       -6.373   1.184   0.370  0.00  0.00    +0.050 S 
BRANCH  18  19
ATOM     19  C   LIG    1       -6.755  -0.584   0.302  0.00  0.00    +0.170 C 
BRANCH  19  26
ATOM     20  C   LIG    1      -14.291  -1.362   2.379  0.00  0.00    +0.130 C 
ATOM     21  C   LIG    1      -12.808  -1.167   2.193  0.00  0.00    -0.130 A 
ATOM     22  C   LIG    1      -12.258  -1.311   0.966  0.00  0.00    +0.270 A 
ATOM     23  N   LIG    1      -10.920  -1.139   0.779  0.00  0.00    -0.420 N 
ATOM     24  C   LIG    1      -10.394  -1.288  -0.455  0.00  0.00    +0.510 A 
ATOM     25  C   LIG    1       -9.017  -1.108  -0.631  0.00  0.00    -0.150 A 
ATOM     26  C   LIG    1       -8.240  -0.783   0.464  0.00  0.00    +0.220 A 
ATOM     27  N   LIG    1       -8.799  -0.653   1.657  0.00  0.00    -0.530 NA
ATOM     28  O   LIG    1      -11.107  -1.576  -1.403  0.00  0.00    -0.530 OA
ATOM     29  C   LIG    1      -10.109  -0.818   1.831  0.00  0.00    +0.390 A 
ATOM     30  C   LIG    1      -10.663  -0.663   3.115  0.00  0.00    +0.040 A 
ATOM     31  C   LIG    1      -12.003  -0.837   3.292  0.00  0.00    +0.130 A 
ENDBRANCH  19  26
ENDBRANCH  18  19
ENDBRANCH   1  18
TORSDOF 5
