REMARK  Name = ZINCpk00000xI5Nq.0
REMARK                            x       y       z     vdW  Elec       q    Type
REMARK                         _______ _______ _______ _____ _____    ______ ____
ROOT
ATOM      1  C   LIG    1        4.063  -0.867  -2.813  0.00  0.00    +0.160 C 
ATOM      2  C   LIG    1        3.026   0.038  -2.150  0.00  0.00    +0.290 C 
ATOM      3  N   LIG    1        3.713   1.210  -1.586  0.00  0.00    -1.000 NA
ATOM      4  C   LIG    1        4.628   1.965  -2.455  0.00  0.00    +0.300 C 
ATOM      5  C   LIG    1        5.606   0.981  -3.105  0.00  0.00    +0.170 C 
ATOM      6  N   LIG    1        4.850  -0.085  -3.776  0.00  0.00    -0.530 NA
ENDROOT
BRANCH   3   7
ATOM      7  S   LIG    1        3.468   1.663  -0.012  0.00  0.00    +2.690 S 
ATOM      8  O   LIG    1        3.026   0.501   0.676  0.00  0.00    -0.950 OA
ATOM      9  O   LIG    1        4.616   2.405   0.375  0.00  0.00    -0.960 OA
BRANCH   7  10
ATOM     10  C   LIG    1        2.117   2.793   0.001  0.00  0.00    -0.710 A 
ATOM     11  C   LIG    1        2.349   4.149  -0.138  0.00  0.00    +0.160 A 
ATOM     12  C   LIG    1        1.290   5.034  -0.126  0.00  0.00    -0.030 A 
ATOM     13  C   LIG    1       -0.012   4.567   0.025  0.00  0.00    +0.190 A 
ATOM     14  O   LIG    1       -1.027   5.469   0.042  0.00  0.00    -0.310 OA
ATOM     15  C   LIG    1       -2.353   4.984  -0.192  0.00  0.00    +0.240 C 
ATOM     16  C   LIG    1       -2.590   3.779   0.727  0.00  0.00    +0.010 C 
ATOM     17  C   LIG    1       -1.637   2.658   0.305  0.00  0.00    +0.090 C 
ATOM     18  C   LIG    1       -0.241   3.208   0.155  0.00  0.00    -0.180 A 
ATOM     19  C   LIG    1        0.826   2.325   0.150  0.00  0.00    +0.160 A 
ENDBRANCH   7  10
ENDBRANCH   3   7
BRANCH   1  21
ATOM     20  C   LIG    1        2.624  -2.889  -2.525  0.00  0.00    +0.010 C 
ATOM     21  C   LIG    1        3.353  -2.010  -3.543  0.00  0.00    +0.030 C 
ENDBRANCH   1  21
BRANCH   6  22
ATOM     22  C   LIG    1        5.742  -0.953  -4.555  0.00  0.00    +0.240 C 
BRANCH  22  23
ATOM     23  C   LIG    1        6.705  -1.675  -3.610  0.00  0.00    +0.110 C 
ATOM     24  C   LIG    1        7.753  -2.431  -4.429  0.00  0.00    +0.010 C 
BRANCH  23  25
ATOM     25  O   LIG    1        5.974  -2.600  -2.802  0.00  0.00    -0.550 OA
ATOM     26  H   LIG    1        6.522  -3.095  -2.177  0.00  0.00    +0.370 HD
ENDBRANCH  23  25
ENDBRANCH  22  23
ENDBRANCH   6  22
TORSDOF 6
