REMARK  Name = ZINCpe00000VVGxS.0
REMARK                            x       y       z     vdW  Elec       q    Type
REMARK                         _______ _______ _______ _____ _____    ______ ____
ROOT
ATOM      1  O   LIG    1        2.334   1.935   0.954  0.00  0.00    -0.510 OA
ATOM      2  C   LIG    1        3.038   2.916   1.098  0.00  0.00    +0.590 C 
ATOM      3  N   LIG    1        4.211   2.812   1.753  0.00  0.00    -0.600 N 
ATOM      4  C   LIG    1        5.033   4.003   2.009  0.00  0.00    +0.270 C 
ATOM      5  C   LIG    1        5.340   4.070   3.513  0.00  0.00    +0.020 C 
ATOM      6  C   LIG    1        5.985   2.755   3.955  0.00  0.00    +0.280 C 
ATOM      7  C   LIG    1        5.010   1.600   3.714  0.00  0.00    +0.020 C 
ATOM      8  C   LIG    1        4.697   1.506   2.218  0.00  0.00    +0.290 C 
ENDROOT
BRANCH   6   9
ATOM      9  N   LIG    1        6.312   2.827   5.382  0.00  0.00    -0.630 N 
ATOM     10  C   LIG    1        7.659   2.689   5.955  0.00  0.00    +0.250 C 
ATOM     11  C   LIG    1        7.434   2.848   7.471  0.00  0.00    +0.250 C 
ATOM     12  N   LIG    1        5.982   3.051   7.592  0.00  0.00    -0.740 N 
ATOM     13  H   LIG    1        5.500   3.182   8.423  0.00  0.00    +0.430 HD
ATOM     14  C   LIG    1        5.431   3.025   6.371  0.00  0.00    +0.700 C 
ATOM     15  O   LIG    1        4.239   3.167   6.179  0.00  0.00    -0.580 OA
ENDBRANCH   6   9
BRANCH   2  16
ATOM     16  C   LIG    1        2.607   4.220   0.557  0.00  0.00    -0.170 A 
ATOM     17  C   LIG    1        2.483   5.333   1.395  0.00  0.00    +0.120 A 
ATOM     18  C   LIG    1        2.077   6.533   0.839  0.00  0.00    -0.040 A 
ATOM     19  C   LIG    1        1.806   6.597  -0.516  0.00  0.00    +0.320 A 
ATOM     20  N   LIG    1        1.934   5.536  -1.289  0.00  0.00    -0.500 NA
ATOM     21  C   LIG    1        2.314   4.365  -0.807  0.00  0.00    +0.410 A 
BRANCH  21  22
ATOM     22  N   LIG    1        2.431   3.270  -1.661  0.00  0.00    -0.330 N 
ATOM     23  C   LIG    1        1.752   3.085  -2.825  0.00  0.00    +0.260 A 
ATOM     24  C   LIG    1        2.155   1.906  -3.350  0.00  0.00    -0.100 A 
ATOM     25  C   LIG    1        3.099   1.346  -2.481  0.00  0.00    +0.260 A 
ATOM     26  N   LIG    1        3.267   2.162  -1.474  0.00  0.00    -0.260 NA
ENDBRANCH  21  22
ENDBRANCH   2  16
TORSDOF 3
