REMARK  Name = ZINCqH00000393Pj.0
REMARK                            x       y       z     vdW  Elec       q    Type
REMARK                         _______ _______ _______ _____ _____    ______ ____
ROOT
ATOM      1  N   LIG    1       -4.646   2.469   4.223  0.00  0.00    -0.500 NA
ATOM      2  C   LIG    1       -4.379   3.332   5.405  0.00  0.00    +0.170 C 
ATOM      3  C   LIG    1       -2.956   2.907   5.845  0.00  0.00    +0.030 C 
ATOM      4  C   LIG    1       -2.956   1.382   5.592  0.00  0.00    +0.030 C 
ATOM      5  C   LIG    1       -4.071   1.147   4.556  0.00  0.00    +0.140 C 
ENDROOT
BRANCH   1   6
ATOM      6  C   LIG    1       -6.087   2.364   3.956  0.00  0.00    +0.220 C 
BRANCH   6   9
ATOM      7  C   LIG    1       -7.289   5.671   2.562  0.00  0.00    -0.060 A 
ATOM      8  C   LIG    1       -6.737   4.391   2.647  0.00  0.00    +0.120 A 
ATOM      9  C   LIG    1       -6.682   3.746   3.864  0.00  0.00    -0.090 A 
ATOM     10  C   LIG    1       -7.177   4.360   5.001  0.00  0.00    +0.090 A 
ATOM     11  C   LIG    1       -7.721   5.630   4.928  0.00  0.00    +0.000 A 
ATOM     12  C   LIG    1       -7.783   6.289   3.715  0.00  0.00    +0.150 A 
ATOM     13  F   LIG    1       -8.319   7.527   3.643  0.00  0.00    -0.130 F 
BRANCH   7  15
ATOM     14  N   LIG    1       -7.397   6.882   0.300  0.00  0.00    -0.400 NA
ATOM     15  C   LIG    1       -7.349   6.346   1.300  0.00  0.00    +0.250 C 
ENDBRANCH   7  15
ENDBRANCH   6   9
ENDBRANCH   1   6
BRANCH   5  16
ATOM     16  C   LIG    1       -3.486   0.501   3.298  0.00  0.00    +0.250 C 
BRANCH  16  17
ATOM     17  O   LIG    1       -2.371   1.299   2.819  0.00  0.00    -0.350 OA
BRANCH  17  18
ATOM     18  C   LIG    1       -1.741   0.865   1.711  0.00  0.00    +0.650 C 
ATOM     19  N   LIG    1       -0.698   1.558   1.213  0.00  0.00    -0.710 N 
ATOM     20  H   LIG    1       -0.402   2.370   1.653  0.00  0.00    +0.410 HD
ATOM     21  O   LIG    1       -2.113  -0.153   1.160  0.00  0.00    -0.580 OA
BRANCH  19  22
ATOM     22  C   LIG    1       -0.013   1.086   0.008  0.00  0.00    +0.250 C 
ATOM     23  C   LIG    1       -0.753   1.593  -1.232  0.00  0.00    +0.010 C 
ATOM     24  C   LIG    1       -0.037   1.099  -2.490  0.00  0.00    +0.020 C 
ATOM     25  C   LIG    1        1.399   1.629  -2.501  0.00  0.00    +0.010 C 
ATOM     26  C   LIG    1        2.139   1.122  -1.262  0.00  0.00    +0.020 C 
ATOM     27  C   LIG    1        1.423   1.615  -0.003  0.00  0.00    +0.010 C 
ENDBRANCH  19  22
ENDBRANCH  17  18
ENDBRANCH  16  17
ENDBRANCH   5  16
TORSDOF 7
