REMARK  Name = ZINCrD00000hQ6aI.0
REMARK                            x       y       z     vdW  Elec       q    Type
REMARK                         _______ _______ _______ _____ _____    ______ ____
ROOT
ATOM      1  C   LIG    1       -4.870  -1.157   0.017  0.00  0.00    +0.360 C 
ATOM      2  N   LIG    1       -3.411  -1.297   0.019  0.00  0.00    -0.390 N 
ATOM      3  N   LIG    1       -2.484  -0.248   0.033  0.00  0.00    -0.270 NA
ATOM      4  C   LIG    1       -1.274  -0.765   0.026  0.00  0.00    +0.120 A 
ATOM      5  C   LIG    1       -1.397  -2.167   0.017  0.00  0.00    -0.070 A 
ATOM      6  C   LIG    1       -2.722  -2.468   0.013  0.00  0.00    +0.320 A 
ENDROOT
BRANCH   6   7
ATOM      7  N   LIG    1       -3.275  -3.748   0.004  0.00  0.00    -0.660 N 
ATOM      8  H   LIG    1       -4.239  -3.861   0.001  0.00  0.00    +0.410 HD
ATOM      9  C   LIG    1       -2.471  -4.830  -0.001  0.00  0.00    +0.720 C 
ATOM     10  N   LIG    1       -3.002  -6.065   0.099  0.00  0.00    -0.620 N 
ATOM     11  C   LIG    1       -2.116  -7.270   0.199  0.00  0.00    +0.310 C 
ATOM     12  C   LIG    1       -2.267  -7.814   1.558  0.00  0.00    +0.190 C 
ATOM     13  O   LIG    1       -3.604  -8.153   1.904  0.00  0.00    -0.350 OA
ATOM     14  C   LIG    1       -4.199  -7.053   2.529  0.00  0.00    +0.210 C 
ATOM     15  C   LIG    1       -5.077  -6.278   1.518  0.00  0.00    -0.130 C 
ATOM     16  C   LIG    1       -5.535  -4.911   2.014  0.00  0.00    +0.020 C 
ATOM     17  C   LIG    1       -6.892  -5.225   1.355  0.00  0.00    +0.010 C 
ATOM     18  C   LIG    1       -6.539  -6.716   1.509  0.00  0.00    +0.040 C 
ATOM     19  C   LIG    1       -4.427  -6.249   0.118  0.00  0.00    +0.280 C 
ATOM     20  O   LIG    1       -1.267  -4.692  -0.095  0.00  0.00    -0.550 OA
ENDBRANCH   6   7
BRANCH   4  21
ATOM     21  C   LIG    1       -0.000  -0.003   0.033  0.00  0.00    -0.060 A 
ATOM     22  C   LIG    1       -0.020   1.390   0.042  0.00  0.00    +0.120 A 
ATOM     23  C   LIG    1        1.166   2.095   0.048  0.00  0.00    -0.020 A 
ATOM     24  C   LIG    1        2.377   1.421   0.045  0.00  0.00    +0.140 A 
ATOM     25  C   LIG    1        2.403   0.036   0.037  0.00  0.00    -0.040 A 
ATOM     26  F   LIG    1        3.535   2.116   0.052  0.00  0.00    -0.130 F 
ATOM     27  C   LIG    1        1.220  -0.679   0.030  0.00  0.00    +0.160 A 
ATOM     28  F   LIG    1        1.246  -2.030   0.023  0.00  0.00    -0.110 F 
ENDBRANCH   4  21
TORSDOF 2
