REMARK  Name = ZINCrD000000AtzP.0
REMARK                            x       y       z     vdW  Elec       q    Type
REMARK                         _______ _______ _______ _____ _____    ______ ____
ROOT
ATOM      1  O   LIG    1       -2.976   0.821  -1.080  0.00  0.00    -0.520 OA
ATOM      2  C   LIG    1       -2.643  -0.078  -1.823  0.00  0.00    +0.540 C 
ATOM      3  N   LIG    1       -1.869  -1.081  -1.363  0.00  0.00    -0.590 N 
ENDROOT
BRANCH   3   4
ATOM      4  C   LIG    1       -1.376  -2.108  -2.284  0.00  0.00    +0.330 C 
BRANCH   4   5
ATOM      5  C   LIG    1       -2.292  -3.304  -2.240  0.00  0.00    -0.110 A 
ATOM      6  C   LIG    1       -2.128  -4.265  -1.260  0.00  0.00    +0.020 A 
ATOM      7  C   LIG    1       -2.971  -5.359  -1.217  0.00  0.00    +0.000 A 
ATOM      8  C   LIG    1       -3.973  -5.498  -2.160  0.00  0.00    +0.010 A 
ATOM      9  C   LIG    1       -4.134  -4.540  -3.143  0.00  0.00    +0.000 A 
ATOM     10  C   LIG    1       -3.294  -3.443  -3.183  0.00  0.00    +0.010 A 
ENDBRANCH   4   5
ENDBRANCH   3   4
BRANCH   3  11
ATOM     11  C   LIG    1       -1.520  -1.145   0.059  0.00  0.00    +0.350 C 
BRANCH  11  12
ATOM     12  C   LIG    1       -0.240  -0.385   0.296  0.00  0.00    -0.110 A 
ATOM     13  C   LIG    1       -0.283   0.962   0.604  0.00  0.00    +0.040 A 
ATOM     14  C   LIG    1        0.891   1.658   0.823  0.00  0.00    +0.000 A 
ATOM     15  C   LIG    1        2.107   1.008   0.732  0.00  0.00    +0.010 A 
ATOM     16  C   LIG    1        2.150  -0.339   0.424  0.00  0.00    +0.000 A 
ATOM     17  C   LIG    1        0.976  -1.036   0.207  0.00  0.00    +0.010 A 
ENDBRANCH  11  12
ENDBRANCH   3  11
BRANCH   2  18
ATOM     18  C   LIG    1       -3.096  -0.074  -3.260  0.00  0.00    +0.100 C 
BRANCH  18  19
ATOM     19  S   LIG    1       -4.214   1.321  -3.537  0.00  0.00    +0.120 S 
BRANCH  19  20
ATOM     20  C   LIG    1       -4.577   1.089  -5.245  0.00  0.00    +0.200 A 
ATOM     21  N   LIG    1       -4.112   0.133  -6.020  0.00  0.00    -0.340 NA
ATOM     22  N   LIG    1       -4.575   0.255  -7.211  0.00  0.00    -0.030 NA
ATOM     23  N   LIG    1       -5.355   1.278  -7.287  0.00  0.00    -0.080 NA
ATOM     24  N   LIG    1       -5.391   1.858  -6.006  0.00  0.00    -0.330 N 
BRANCH  24  25
ATOM     25  C   LIG    1       -6.144   3.042  -5.587  0.00  0.00    +0.210 C 
ATOM     26  C   LIG    1       -7.153   3.626  -6.578  0.00  0.00    +0.090 C 
ATOM     27  C   LIG    1       -5.841   4.362  -6.300  0.00  0.00    +0.070 C 
ENDBRANCH  24  25
ENDBRANCH  19  20
ENDBRANCH  18  19
ENDBRANCH   2  18
TORSDOF 8
