REMARK  Name = ZINCpk00000y6tEY.0
REMARK                            x       y       z     vdW  Elec       q    Type
REMARK                         _______ _______ _______ _____ _____    ______ ____
ROOT
ATOM      1  C   LIG    1       -1.353   7.729   0.172  0.00  0.00    +0.260 C 
ATOM      2  O   LIG    1       -2.695   8.219   0.129  0.00  0.00    -0.370 OA
ATOM      3  C   LIG    1       -3.385   7.923  -1.087  0.00  0.00    +0.220 C 
ATOM      4  C   LIG    1       -3.477   6.405  -1.263  0.00  0.00    -0.010 C 
ATOM      5  C   LIG    1       -2.065   5.811  -1.257  0.00  0.00    +0.020 C 
ATOM      6  C   LIG    1       -1.363   6.204   0.046  0.00  0.00    -0.040 C 
ENDROOT
BRANCH   1  11
ATOM      7  N   LIG    1       -1.367   8.387   2.633  0.00  0.00    -0.350 N 
ATOM      8  N   LIG    1       -0.409   8.709   3.604  0.00  0.00    -0.290 NA
ATOM      9  C   LIG    1        0.774   8.638   3.050  0.00  0.00    +0.230 A 
ATOM     10  C   LIG    1        0.609   8.264   1.712  0.00  0.00    -0.110 A 
ATOM     11  C   LIG    1       -0.717   8.121   1.481  0.00  0.00    +0.090 A 
BRANCH   7  13
ATOM     12  C   LIG    1       -3.232   6.942   3.275  0.00  0.00    +0.030 C 
ATOM     13  C   LIG    1       -2.817   8.347   2.833  0.00  0.00    +0.330 C 
ENDBRANCH   7  13
ENDBRANCH   1  11
BRANCH   6  14
ATOM     14  C   LIG    1        0.075   5.682   0.030  0.00  0.00    +0.280 C 
BRANCH  14  15
ATOM     15  N   LIG    1        0.063   4.217   0.023  0.00  0.00    -0.720 N 
ATOM     16  H   LIG    1       -0.781   3.739   0.029  0.00  0.00    +0.400 HD
ATOM     17  C   LIG    1        1.224   3.534   0.009  0.00  0.00    +0.580 C 
ATOM     18  O   LIG    1        2.283   4.133   0.002  0.00  0.00    -0.540 OA
BRANCH  17  19
ATOM     19  C   LIG    1        1.212   2.059   0.002  0.00  0.00    -0.260 A 
ATOM     20  C   LIG    1        2.399   1.354  -0.014  0.00  0.00    +0.400 A 
ATOM     21  N   LIG    1        2.392   0.008  -0.021  0.00  0.00    -0.490 N 
ATOM     22  C   LIG    1        1.236  -0.680  -0.013  0.00  0.00    +0.510 A 
ATOM     23  C   LIG    1        0.002  -0.004   0.002  0.00  0.00    -0.080 A 
ATOM     24  O   LIG    1        1.258  -1.900  -0.020  0.00  0.00    -0.540 OA
ATOM     25  C   LIG    1        3.664  -0.719  -0.037  0.00  0.00    +0.330 C 
ATOM     26  C   LIG    1       -0.016   1.355   0.009  0.00  0.00    +0.140 A 
ENDBRANCH  17  19
ENDBRANCH  14  15
ENDBRANCH   6  14
TORSDOF 5
