REMARK  Name = ZINCqH0000004gx1.0
REMARK                            x       y       z     vdW  Elec       q    Type
REMARK                         _______ _______ _______ _____ _____    ______ ____
ROOT
ATOM      1  C   LIG    1        1.104  -2.126   1.103  0.00  0.00    +0.520 C 
ATOM      2  N   LIG    1        1.119  -2.561  -0.173  0.00  0.00    -0.680 N 
ATOM      3  H   LIG    1        1.447  -1.982  -0.878  0.00  0.00    +0.420 HD
ATOM      4  O   LIG    1        0.773  -2.878   1.996  0.00  0.00    -0.500 OA
ENDROOT
BRANCH   2   5
ATOM      5  C   LIG    1        0.662  -3.848  -0.479  0.00  0.00    +0.210 A 
ATOM      6  C   LIG    1       -0.386  -4.404   0.243  0.00  0.00    +0.000 A 
ATOM      7  C   LIG    1       -0.838  -5.672  -0.065  0.00  0.00    +0.140 A 
ATOM      8  C   LIG    1       -0.241  -6.392  -1.085  0.00  0.00    -0.700 A 
ATOM      9  C   LIG    1        0.806  -5.843  -1.801  0.00  0.00    +0.140 A 
ATOM     10  C   LIG    1        1.259  -4.573  -1.502  0.00  0.00    -0.030 A 
BRANCH   8  11
ATOM     11  S   LIG    1       -0.817  -8.012  -1.470  0.00  0.00    +2.690 S 
ATOM     12  O   LIG    1       -0.445  -8.259  -2.819  0.00  0.00    -0.950 OA
ATOM     13  O   LIG    1       -2.159  -8.081  -1.009  0.00  0.00    -0.950 OA
BRANCH  11  14
ATOM     14  N   LIG    1        0.051  -9.074  -0.543  0.00  0.00    -1.010 NA
ATOM     15  C   LIG    1        1.306  -9.634  -1.052  0.00  0.00    +0.300 C 
ATOM     16  C   LIG    1       -0.435  -9.454   0.786  0.00  0.00    +0.290 C 
ENDBRANCH  11  14
ENDBRANCH   8  11
ENDBRANCH   2   5
BRANCH   1  17
ATOM     17  C   LIG    1        1.498  -0.707   1.420  0.00  0.00    +0.050 C 
BRANCH  17  18
ATOM     18  C   LIG    1        1.486  -0.504   2.913  0.00  0.00    -0.080 A 
ATOM     19  C   LIG    1        0.418  -0.957   3.664  0.00  0.00    +0.050 A 
ATOM     20  C   LIG    1        0.409  -0.775   5.035  0.00  0.00    -0.010 A 
ATOM     21  C   LIG    1        1.465  -0.131   5.653  0.00  0.00    +0.010 A 
ATOM     22  C   LIG    1        2.531   0.327   4.901  0.00  0.00    -0.010 A 
ATOM     23  C   LIG    1        2.541   0.141   3.531  0.00  0.00    +0.010 A 
ENDBRANCH  17  18
BRANCH  17  24
ATOM     24  C   LIG    1        0.504   0.256   0.767  0.00  0.00    +0.000 C 
ATOM     25  C   LIG    1       -0.903  -0.026   1.296  0.00  0.00    +0.020 C 
BRANCH  24  27
ATOM     26  C   LIG    1        2.255   2.015   0.476  0.00  0.00    +0.010 C 
ATOM     27  C   LIG    1        0.895   1.697   1.101  0.00  0.00    +0.020 C 
ENDBRANCH  24  27
ENDBRANCH  17  24
ENDBRANCH   1  17
TORSDOF 7
