REMARK  Name = ZINCnE000001L83Y.0
REMARK                            x       y       z     vdW  Elec       q    Type
REMARK                         _______ _______ _______ _____ _____    ______ ____
ROOT
ATOM      1  C   LIG    1       -2.602   2.695   3.006  0.00  0.00    -0.070 A 
ATOM      2  C   LIG    1       -2.311   1.332   2.991  0.00  0.00    +0.020 A 
ATOM      3  C   LIG    1       -1.474   0.818   2.022  0.00  0.00    +0.000 A 
ATOM      4  C   LIG    1       -0.925   1.653   1.065  0.00  0.00    -0.050 A 
ATOM      5  C   LIG    1       -1.206   3.007   1.078  0.00  0.00    +0.030 A 
ATOM      6  C   LIG    1       -2.046   3.531   2.040  0.00  0.00    +0.010 A 
ENDROOT
BRANCH   1  11
ATOM      7  C   LIG    1       -5.572   3.186   5.263  0.00  0.00    +0.130 A 
ATOM      8  C   LIG    1       -5.177   4.301   5.989  0.00  0.00    -0.080 A 
ATOM      9  C   LIG    1       -3.950   4.890   5.745  0.00  0.00    +0.080 A 
ATOM     10  C   LIG    1       -3.112   4.372   4.779  0.00  0.00    -0.120 A 
ATOM     11  C   LIG    1       -3.501   3.253   4.046  0.00  0.00    +0.010 A 
ATOM     12  C   LIG    1       -4.739   2.663   4.288  0.00  0.00    -0.010 A 
BRANCH   7  14
ATOM     13  C   LIG    1       -7.590   3.207   6.521  0.00  0.00    +0.230 C 
ATOM     14  O   LIG    1       -6.780   2.611   5.506  0.00  0.00    -0.320 OA
ENDBRANCH   7  14
BRANCH  10  15
ATOM     15  C   LIG    1       -1.776   5.018   4.516  0.00  0.00    +0.250 C 
BRANCH  15  16
ATOM     16  O   LIG    1       -1.609   6.139   5.386  0.00  0.00    -0.570 OA
ATOM     17  H   LIG    1       -0.768   6.604   5.272  0.00  0.00    +0.380 HD
ENDBRANCH  15  16
ENDBRANCH  10  15
ENDBRANCH   1  11
BRANCH   4  18
ATOM     18  C   LIG    1       -0.013   1.086   0.008  0.00  0.00    +0.010 C 
ATOM     19  C   LIG    1       -0.218   1.707  -1.384  0.00  0.00    +0.040 C 
ATOM     20  C   LIG    1        1.312   1.675  -1.537  0.00  0.00    -0.100 C 
ATOM     21  C   LIG    1        1.388   1.721  -0.002  0.00  0.00    +0.040 C 
BRANCH  20  22
ATOM     22  C   LIG    1        1.877   2.902  -2.206  0.00  0.00    +0.500 C 
ATOM     23  O   LIG    1        1.670   4.005  -1.731  0.00  0.00    -0.700 OA
ATOM     24  O   LIG    1        2.540   2.790  -3.223  0.00  0.00    -0.700 OA
ENDBRANCH  20  22
ENDBRANCH   4  18
TORSDOF 6
