REMARK  Name = ZINC9u0000001nmP.0
REMARK                            x       y       z     vdW  Elec       q    Type
REMARK                         _______ _______ _______ _____ _____    ______ ____
ROOT
ATOM      1  C   LIG    1       -0.013   1.086   0.008  0.00  0.00    +0.040 C 
ENDROOT
BRANCH   1   2
ATOM      2  C   LIG    1       -0.729   1.579   1.267  0.00  0.00    -0.070 C 
ATOM      3  C   LIG    1       -0.750   3.109   1.275  0.00  0.00    +0.030 C 
ATOM      4  C   LIG    1        0.011   1.072   2.506  0.00  0.00    +0.040 C 
ATOM      5  C   LIG    1       -2.164   1.050   1.278  0.00  0.00    +0.030 C 
ENDBRANCH   1   2
BRANCH   1   6
ATOM      6  C   LIG    1       -0.753   1.593  -1.232  0.00  0.00    +0.020 C 
BRANCH   6   8
ATOM      7  C   LIG    1       -0.580   1.471  -3.833  0.00  0.00    +0.050 C 
ATOM      8  C   LIG    1       -0.047   1.107  -2.471  0.00  0.00    +0.350 C 
ATOM      9  O   LIG    1        0.945   0.425  -2.374  0.00  0.00    -0.460 OA
ENDBRANCH   6   8
ENDBRANCH   1   6
TORSDOF 3
