REMARK  Name = ZINCrg000000p1eW.0
REMARK                            x       y       z     vdW  Elec       q    Type
REMARK                         _______ _______ _______ _____ _____    ______ ____
ROOT
ATOM      1  N   LIG    1       -0.505   4.520   3.407  0.00  0.00    -0.530 N 
ATOM      2  C   LIG    1       -0.942   5.731   3.007  0.00  0.00    +0.650 A 
ATOM      3  O   LIG    1       -0.193   6.687   3.579  0.00  0.00    -0.230 OA
ATOM      4  C   LIG    1        0.747   6.106   4.365  0.00  0.00    +0.020 A 
ATOM      5  C   LIG    1        1.756   6.617   5.166  0.00  0.00    +0.190 A 
ATOM      6  C   LIG    1        2.572   5.759   5.877  0.00  0.00    -0.670 A 
ATOM      7  C   LIG    1        2.394   4.390   5.786  0.00  0.00    +0.170 A 
ATOM      8  C   LIG    1        1.393   3.871   4.987  0.00  0.00    +0.030 A 
ATOM      9  O   LIG    1       -1.869   5.926   2.246  0.00  0.00    -0.470 OA
ATOM     10  C   LIG    1        0.566   4.726   4.276  0.00  0.00    +0.140 A 
ENDROOT
BRANCH   6  11
ATOM     11  S   LIG    1        3.852   6.410   6.898  0.00  0.00    +2.710 S 
ATOM     12  O   LIG    1        4.133   5.415   7.873  0.00  0.00    -0.960 OA
ATOM     13  O   LIG    1        3.464   7.736   7.231  0.00  0.00    -0.960 OA
BRANCH  11  14
ATOM     14  N   LIG    1        5.209   6.542   5.959  0.00  0.00    -1.250 NA
ATOM     15  H   LIG    1        6.032   6.885   6.341  0.00  0.00    +0.420 HD
ATOM     16  H   LIG    1        5.182   6.276   5.026  0.00  0.00    +0.420 HD
ENDBRANCH  11  14
ENDBRANCH   6  11
BRANCH   1  17
ATOM     17  C   LIG    1       -1.058   3.224   3.006  0.00  0.00    +0.370 C 
BRANCH  17  20
ATOM     18  C   LIG    1       -1.760   0.749   1.817  0.00  0.00    +0.280 C 
ATOM     19  N   LIG    1       -0.698   1.558   1.213  0.00  0.00    -0.610 N 
ATOM     20  C   LIG    1       -0.353   2.738   1.767  0.00  0.00    +0.500 C 
ATOM     21  O   LIG    1        0.526   3.408   1.267  0.00  0.00    -0.520 OA
BRANCH  19  22
ATOM     22  C   LIG    1       -0.013   1.086   0.008  0.00  0.00    +0.350 C 
BRANCH  22  23
ATOM     23  C   LIG    1       -0.742   1.585  -1.213  0.00  0.00    -0.150 A 
ATOM     24  C   LIG    1       -0.215   2.624  -1.956  0.00  0.00    +0.070 A 
ATOM     25  C   LIG    1       -0.883   3.082  -3.076  0.00  0.00    +0.000 A 
ATOM     26  C   LIG    1       -2.079   2.502  -3.454  0.00  0.00    +0.060 A 
ATOM     27  C   LIG    1       -2.608   1.462  -2.712  0.00  0.00    -0.020 A 
ATOM     28  C   LIG    1       -1.937   0.999  -1.594  0.00  0.00    +0.110 A 
ATOM     29  F   LIG    1       -2.450  -0.022  -0.872  0.00  0.00    -0.140 F 
ENDBRANCH  22  23
ENDBRANCH  19  22
ENDBRANCH  17  20
ENDBRANCH   1  17
TORSDOF 6
