REMARK  Name = ZINCrH000004ne67.0
REMARK                            x       y       z     vdW  Elec       q    Type
REMARK                         _______ _______ _______ _____ _____    ______ ____
ROOT
ATOM      1  N   LIG    1       -4.144   2.320   1.438  0.00  0.00    -0.610 N 
ATOM      2  C   LIG    1       -4.896   1.401   2.076  0.00  0.00    +0.520 C 
ATOM      3  O   LIG    1       -5.229   0.386   1.502  0.00  0.00    -0.510 OA
ATOM      4  C   LIG    1       -3.741   3.546   2.132  0.00  0.00    +0.290 C 
ENDROOT
BRANCH   1   5
ATOM      5  C   LIG    1       -3.730   2.093   0.051  0.00  0.00    +0.350 C 
BRANCH   5  11
ATOM      6  C   LIG    1        2.396   0.042  -0.021  0.00  0.00    +0.130 A 
ATOM      7  C   LIG    1        1.235  -0.677  -0.013  0.00  0.00    -0.020 A 
ATOM      8  C   LIG    1        0.002  -0.004   0.002  0.00  0.00    -0.010 A 
ATOM      9  C   LIG    1       -1.213  -0.710   0.010  0.00  0.00    +0.010 A 
ATOM     10  C   LIG    1       -2.390  -0.025   0.026  0.00  0.00    +0.050 A 
ATOM     11  C   LIG    1       -2.408   1.369   0.034  0.00  0.00    -0.120 A 
ATOM     12  C   LIG    1       -1.251   2.085   0.031  0.00  0.00    +0.050 A 
ATOM     13  C   LIG    1       -0.017   1.413   0.010  0.00  0.00    -0.090 A 
ATOM     14  C   LIG    1        1.198   2.121   0.002  0.00  0.00    +0.070 A 
ATOM     15  C   LIG    1        2.375   1.440  -0.013  0.00  0.00    -0.060 A 
BRANCH   6  17
ATOM     16  C   LIG    1        4.768   0.195  -0.043  0.00  0.00    +0.250 C 
ATOM     17  O   LIG    1        3.588  -0.610  -0.036  0.00  0.00    -0.320 OA
ENDBRANCH   6  17
ENDBRANCH   5  11
ENDBRANCH   1   5
BRANCH   2  18
ATOM     18  C   LIG    1       -5.322   1.634   3.502  0.00  0.00    +0.240 C 
BRANCH  18  19
ATOM     19  O   LIG    1       -6.104   0.526   3.953  0.00  0.00    -0.280 OA
BRANCH  19  20
ATOM     20  C   LIG    1       -6.570   0.579   5.227  0.00  0.00    +0.160 A 
ATOM     21  C   LIG    1       -6.273   1.675   6.029  0.00  0.00    -0.070 A 
ATOM     22  C   LIG    1       -6.749   1.734   7.320  0.00  0.00    +0.110 A 
ATOM     23  C   LIG    1       -7.521   0.686   7.828  0.00  0.00    -0.070 A 
ATOM     24  C   LIG    1       -7.812  -0.417   7.020  0.00  0.00    +0.110 A 
ATOM     25  C   LIG    1       -7.337  -0.466   5.728  0.00  0.00    +0.000 A 
BRANCH  23  26
ATOM     26  C   LIG    1       -8.012   0.741   9.172  0.00  0.00    +0.250 C 
ATOM     27  N   LIG    1       -8.402   0.785  10.238  0.00  0.00    -0.420 NA
ENDBRANCH  23  26
ENDBRANCH  19  20
ENDBRANCH  18  19
ENDBRANCH   2  18
TORSDOF 7
