REMARK  Name = ZINCrH000004qZjN.0
REMARK                            x       y       z     vdW  Elec       q    Type
REMARK                         _______ _______ _______ _____ _____    ______ ____
ROOT
ATOM      1  C   LIG    1       -2.163   1.606  -0.298  0.00  0.00    +0.370 C 
ENDROOT
BRANCH   1   8
ATOM      2  C   LIG    1       -3.774   3.219   0.810  0.00  0.00    +0.330 A 
ATOM      3  N   LIG    1       -4.854   3.862   0.466  0.00  0.00    -0.260 NA
ATOM      4  N   LIG    1       -5.152   3.529  -0.863  0.00  0.00    -0.470 N 
ATOM      5  H   LIG    1       -5.903   3.857  -1.381  0.00  0.00    +0.470 HD
ATOM      6  C   LIG    1       -4.203   2.670  -1.288  0.00  0.00    +0.480 A 
ATOM      7  S   LIG    1       -4.107   1.960  -2.843  0.00  0.00    -0.560 S 
ATOM      8  N   LIG    1       -3.345   2.471  -0.269  0.00  0.00    -0.480 N 
BRANCH   2  13
ATOM      9  C   LIG    1       -1.214   3.466   5.960  0.00  0.00    +0.100 C 
ATOM     10  C   LIG    1       -1.884   3.401   4.612  0.00  0.00    -0.050 A 
ATOM     11  C   LIG    1       -1.152   3.037   3.495  0.00  0.00    +0.010 A 
ATOM     12  C   LIG    1       -1.760   2.976   2.258  0.00  0.00    +0.030 A 
ATOM     13  C   LIG    1       -3.116   3.282   2.134  0.00  0.00    -0.050 A 
ATOM     14  C   LIG    1       -3.847   3.653   3.263  0.00  0.00    +0.080 A 
ATOM     15  C   LIG    1       -3.229   3.705   4.495  0.00  0.00    +0.020 A 
ENDBRANCH   2  13
ENDBRANCH   1   8
BRANCH   1  16
ATOM     16  C   LIG    1       -0.999   2.365  -0.880  0.00  0.00    +0.500 C 
ATOM     17  N   LIG    1        0.202   1.766  -1.006  0.00  0.00    -0.700 N 
ATOM     18  H   LIG    1        0.300   0.826  -0.786  0.00  0.00    +0.410 HD
ATOM     19  O   LIG    1       -1.142   3.516  -1.236  0.00  0.00    -0.490 OA
BRANCH  17  20
ATOM     20  C   LIG    1        1.357   2.532  -1.480  0.00  0.00    +0.190 C 
ATOM     21  C   LIG    1        1.348   2.784  -2.997  0.00  0.00    +0.040 C 
ATOM     22  C   LIG    1        2.104   1.452  -3.143  0.00  0.00    +0.020 C 
ATOM     23  C   LIG    1        2.613   1.674  -1.709  0.00  0.00    +0.050 C 
BRANCH  20  24
ATOM     24  C   LIG    1        1.613   3.771  -0.661  0.00  0.00    -0.070 A 
ATOM     25  C   LIG    1        2.078   4.920  -1.274  0.00  0.00    +0.020 A 
ATOM     26  C   LIG    1        2.309   6.058  -0.524  0.00  0.00    +0.010 A 
ATOM     27  C   LIG    1        2.085   6.044   0.840  0.00  0.00    +0.000 A 
ATOM     28  C   LIG    1        1.625   4.893   1.453  0.00  0.00    +0.000 A 
ATOM     29  C   LIG    1        1.389   3.757   0.703  0.00  0.00    +0.000 A 
ENDBRANCH  20  24
ENDBRANCH  17  20
ENDBRANCH   1  16
TORSDOF 5
