REMARK  Name = ZINCnE000001JrYL.0
REMARK                            x       y       z     vdW  Elec       q    Type
REMARK                         _______ _______ _______ _____ _____    ______ ____
ROOT
ATOM      1  C   LIG    1        6.886  -0.735  -2.560  0.00  0.00    -0.230 A 
ATOM      2  C   LIG    1        6.514  -0.569  -1.220  0.00  0.00    +0.040 A 
ATOM      3  C   LIG    1        5.292  -0.016  -0.910  0.00  0.00    -0.140 A 
ATOM      4  C   LIG    1        4.419   0.369  -1.925  0.00  0.00    +0.340 A 
ATOM      5  C   LIG    1        4.780   0.209  -3.258  0.00  0.00    -0.120 A 
ATOM      6 BR   LIG    1        7.691  -1.097   0.162  0.00  0.00    -0.060 Br
ATOM      7  C   LIG    1        6.006  -0.341  -3.582  0.00  0.00    +0.210 A 
ENDROOT
BRANCH   1   8
ATOM      8  C   LIG    1        8.192  -1.320  -2.896  0.00  0.00    +0.540 C 
ATOM      9  O   LIG    1        9.163  -0.601  -3.034  0.00  0.00    -0.500 OA
BRANCH   8  11
ATOM     10  C   LIG    1        9.634  -3.161  -3.381  0.00  0.00    +0.250 C 
ATOM     11  O   LIG    1        8.314  -2.654  -3.050  0.00  0.00    -0.350 OA
ENDBRANCH   8  11
ENDBRANCH   1   8
BRANCH   7  12
ATOM     12  O   LIG    1        6.359  -0.499  -4.882  0.00  0.00    -0.320 OA
ATOM     13  C   LIG    1        5.414  -0.076  -5.867  0.00  0.00    +0.240 C 
ENDBRANCH   7  12
BRANCH   4  14
ATOM     14  N   LIG    1        3.185   0.922  -1.604  0.00  0.00    -1.070 NA
BRANCH  14  15
ATOM     15  S   LIG    1        2.752   1.115  -0.017  0.00  0.00    +2.620 S 
ATOM     16  O   LIG    1        2.612  -0.192   0.522  0.00  0.00    -1.010 OA
ATOM     17  O   LIG    1        3.634   2.089   0.524  0.00  0.00    -1.020 OA
BRANCH  15  18
ATOM     18  C   LIG    1        1.144   1.836   0.001  0.00  0.00    -0.620 A 
ATOM     19  C   LIG    1        0.949   3.156   0.009  0.00  0.00    +0.090 A 
ATOM     20  S   LIG    1       -0.776   3.497   0.027  0.00  0.00    +0.100 S 
ATOM     21  C   LIG    1       -1.147   1.778   0.017  0.00  0.00    -0.200 A 
ATOM     22  C   LIG    1       -2.534   1.188   0.020  0.00  0.00    +0.140 C 
ATOM     23  C   LIG    1       -0.013   1.076   0.008  0.00  0.00    +0.080 A 
ENDBRANCH  15  18
ENDBRANCH  14  15
ENDBRANCH   4  14
TORSDOF 6
