REMARK  Name = ZINCrH000004rveM.0
REMARK                            x       y       z     vdW  Elec       q    Type
REMARK                         _______ _______ _______ _____ _____    ______ ____
ROOT
ATOM      1  N   LIG    1       -1.296   3.606   0.034  0.00  0.00    -0.990 NA
ATOM      2  C   LIG    1       -0.717   3.111   1.290  0.00  0.00    +0.290 C 
ATOM      3  C   LIG    1       -0.729   1.579   1.268  0.00  0.00    +0.030 C 
ATOM      4  C   LIG    1       -0.013   1.086   0.008  0.00  0.00    +0.040 C 
ATOM      5  C   LIG    1       -0.752   1.593  -1.232  0.00  0.00    -0.010 C 
ATOM      6  C   LIG    1       -0.741   3.124  -1.238  0.00  0.00    +0.330 C 
ENDROOT
BRANCH   5   7
ATOM      7  C   LIG    1       -0.066   1.079  -2.472  0.00  0.00    +0.520 C 
ATOM      8  N   LIG    1        0.045  -0.248  -2.679  0.00  0.00    -0.630 N 
ATOM      9  H   LIG    1       -0.316  -0.873  -2.031  0.00  0.00    +0.420 HD
ATOM     10  O   LIG    1        0.385   1.860  -3.283  0.00  0.00    -0.460 OA
BRANCH   8  11
ATOM     11  C   LIG    1        0.676  -0.720  -3.819  0.00  0.00    +0.340 A 
ATOM     12  N   LIG    1        1.183   0.023  -4.740  0.00  0.00    -0.470 NA
ATOM     13  C   LIG    1        1.770  -0.585  -5.790  0.00  0.00    +0.110 A 
ATOM     14  C   LIG    1        2.394  -0.001  -6.913  0.00  0.00    +0.070 A 
ATOM     15  C   LIG    1        2.937  -0.791  -7.895  0.00  0.00    +0.040 A 
ATOM     16  C   LIG    1        2.881  -2.174  -7.800  0.00  0.00    +0.030 A 
ATOM     17  C   LIG    1        2.277  -2.765  -6.713  0.00  0.00    +0.060 A 
ATOM     18  C   LIG    1        1.720  -1.980  -5.707  0.00  0.00    -0.180 A 
ATOM     19  S   LIG    1        0.892  -2.419  -4.216  0.00  0.00    +0.060 S 
ENDBRANCH   8  11
ENDBRANCH   5   7
BRANCH   1  20
ATOM     20  S   LIG    1       -2.550   4.687   0.052  0.00  0.00    +2.710 S 
ATOM     21  O   LIG    1       -2.511   5.368  -1.195  0.00  0.00    -0.940 OA
ATOM     22  O   LIG    1       -2.486   5.355   1.304  0.00  0.00    -0.940 OA
BRANCH  20  27
ATOM     23  C   LIG    1       -7.340   1.698  -0.894  0.00  0.00    +0.160 C 
ATOM     24  C   LIG    1       -6.140   2.445  -0.372  0.00  0.00    -0.130 A 
ATOM     25  C   LIG    1       -5.841   2.617   0.916  0.00  0.00    -0.020 A 
ATOM     26  C   LIG    1       -4.682   3.335   1.156  0.00  0.00    +0.170 A 
ATOM     27  C   LIG    1       -4.044   3.753   0.062  0.00  0.00    -0.800 A 
ATOM     28  S   LIG    1       -4.917   3.222  -1.370  0.00  0.00    +0.210 S 
ENDBRANCH  20  27
ENDBRANCH   1  20
TORSDOF 4
