REMARK  Name = ZINCrD00000hQ7t8.0
REMARK                            x       y       z     vdW  Elec       q    Type
REMARK                         _______ _______ _______ _____ _____    ______ ____
ROOT
ATOM      1  C   LIG    1       -3.384   3.364   5.408  0.00  0.00    +0.210 C 
ATOM      2  C   LIG    1       -4.760   2.868   4.957  0.00  0.00    +0.040 C 
ATOM      3  C   LIG    1       -5.812   3.934   5.278  0.00  0.00    +0.010 C 
ATOM      4  C   LIG    1       -5.784   4.231   6.780  0.00  0.00    +0.030 C 
ATOM      5  C   LIG    1       -4.378   4.687   7.178  0.00  0.00    +0.170 C 
ATOM      6  N   LIG    1       -3.409   3.634   6.852  0.00  0.00    -0.520 NA
ENDROOT
BRANCH   1  10
ATOM      7  C   LIG    1       -0.746   1.161   4.094  0.00  0.00    -0.050 A 
ATOM      8  C   LIG    1       -1.040   0.518   5.278  0.00  0.00    +0.010 A 
ATOM      9  C   LIG    1       -2.050   1.254   5.906  0.00  0.00    -0.020 A 
ATOM     10  C   LIG    1       -2.349   2.310   5.112  0.00  0.00    +0.040 A 
ATOM     11  N   LIG    1       -1.560   2.268   4.010  0.00  0.00    -0.400 N 
ATOM     12  C   LIG    1       -1.573   3.237   2.912  0.00  0.00    +0.320 C 
BRANCH   7  16
ATOM     13  C   LIG    1        1.861  -0.874   2.246  0.00  0.00    +0.290 C 
ATOM     14  N   LIG    1        0.934  -0.407   3.280  0.00  0.00    -0.720 N 
ATOM     15  H   LIG    1        0.808  -0.927   4.089  0.00  0.00    +0.410 HD
ATOM     16  C   LIG    1        0.255   0.744   3.107  0.00  0.00    +0.590 C 
ATOM     17  O   LIG    1        0.473   1.438   2.131  0.00  0.00    -0.550 OA
ENDBRANCH   7  16
ENDBRANCH   1  10
BRANCH   6  18
ATOM     18  C   LIG    1       -2.070   3.979   7.346  0.00  0.00    +0.340 C 
BRANCH  18  19
ATOM     19  C   LIG    1       -2.152   4.350   8.804  0.00  0.00    +0.260 A 
ATOM     20  N   LIG    1       -2.030   3.515   9.791  0.00  0.00    -0.450 NA
ATOM     21  C   LIG    1       -2.160   4.197  10.962  0.00  0.00    +0.050 A 
ATOM     22  C   LIG    1       -2.119   3.824  12.306  0.00  0.00    +0.050 A 
ATOM     23  C   LIG    1       -2.290   4.779  13.286  0.00  0.00    +0.100 A 
ATOM     24  C   LIG    1       -2.503   6.107  12.941  0.00  0.00    +0.040 A 
ATOM     25  C   LIG    1       -2.546   6.488  11.616  0.00  0.00    +0.090 A 
ATOM     26  F   LIG    1       -2.251   4.421  14.588  0.00  0.00    -0.130 F 
ATOM     27  C   LIG    1       -2.375   5.540  10.619  0.00  0.00    -0.000 A 
ATOM     28  O   LIG    1       -2.358   5.593   9.268  0.00  0.00    -0.210 OA
ENDBRANCH  18  19
ENDBRANCH   6  18
TORSDOF 4
