REMARK  Name = ZINCfA000000bntP.0
REMARK                            x       y       z     vdW  Elec       q    Type
REMARK                         _______ _______ _______ _____ _____    ______ ____
ROOT
ATOM      1  N   LIG    1       -2.896   1.570   2.410  0.00  0.00    -0.500 N 
ATOM      2  H   LIG    1       -2.760   2.543   2.639  0.00  0.00    +0.430 HD
ATOM      3  H   LIG    1       -2.511   0.994   3.144  0.00  0.00    +0.430 HD
ENDROOT
BRANCH   1   4
ATOM      4  C   LIG    1       -2.217   1.266   1.143  0.00  0.00    +0.050 C 
ATOM      5  C   LIG    1       -2.797   2.137   0.027  0.00  0.00    +0.100 C 
ATOM      6  C   LIG    1       -1.946   2.034  -1.205  0.00  0.00    -0.030 C 
ATOM      7  C   LIG    1       -0.733   1.580  -1.212  0.00  0.00    -0.020 C 
ATOM      8  C   LIG    1       -0.013   1.086   0.008  0.00  0.00    +0.100 C 
ATOM      9  C   LIG    1       -2.412  -0.212   0.797  0.00  0.00    +0.090 C 
ATOM     10  C   LIG    1       -0.723   1.577   1.271  0.00  0.00    +0.050 C 
ENDBRANCH   1   4
BRANCH   1  11
ATOM     11  C   LIG    1       -4.332   1.295   2.274  0.00  0.00    +0.380 C 
BRANCH  11  16
ATOM     12  C   LIG    1       -6.793   4.020   5.773  0.00  0.00    +0.170 C 
ATOM     13  C   LIG    1       -6.146   2.785   5.201  0.00  0.00    +0.110 A 
ATOM     14  N   LIG    1       -6.106   1.668   5.865  0.00  0.00    -0.420 NA
ATOM     15  S   LIG    1       -5.311   0.533   4.888  0.00  0.00    +0.310 S 
ATOM     16  C   LIG    1       -5.029   1.607   3.573  0.00  0.00    -0.280 A 
ATOM     17  C   LIG    1       -5.569   2.787   3.949  0.00  0.00    +0.030 A 
ENDBRANCH  11  16
ENDBRANCH   1  11
TORSDOF 3
