REMARK  Name = ZINCvU0000000Gpi.0
REMARK                            x       y       z     vdW  Elec       q    Type
REMARK                         _______ _______ _______ _____ _____    ______ ____
ROOT
ATOM      1  C   LIG    1       -1.660   7.251  -0.322  0.00  0.00    +0.140 A 
ATOM      2  C   LIG    1       -0.674   6.911   0.596  0.00  0.00    +0.010 A 
ATOM      3  C   LIG    1       -0.241   5.604   0.692  0.00  0.00    +0.070 A 
ATOM      4  C   LIG    1       -0.791   4.628  -0.129  0.00  0.00    +0.070 A 
ATOM      5  C   LIG    1       -1.772   4.968  -1.051  0.00  0.00    +0.080 A 
ATOM      6  C   LIG    1       -2.209   6.274  -1.143  0.00  0.00    -0.020 A 
ENDROOT
BRANCH   1  10
ATOM      7  N   LIG    1       -4.013  10.676  -0.281  0.00  0.00    -0.490 N 
ATOM      8  C   LIG    1       -3.534  10.182  -1.580  0.00  0.00    +0.210 C 
ATOM      9  C   LIG    1       -3.139   8.710  -1.449  0.00  0.00    +0.210 C 
ATOM     10  N   LIG    1       -2.098   8.574  -0.420  0.00  0.00    -0.490 N 
ATOM     11  C   LIG    1       -2.578   9.068   0.878  0.00  0.00    +0.210 C 
ATOM     12  C   LIG    1       -2.973  10.540   0.747  0.00  0.00    +0.200 C 
BRANCH   7  19
ATOM     13 CL   LIG    1       -6.458  11.043  -1.937  0.00  0.00    -0.060 Cl
ATOM     14  C   LIG    1       -5.585  12.305  -1.125  0.00  0.00    -0.050 A 
ATOM     15  C   LIG    1       -6.015  13.614  -1.219  0.00  0.00    +0.050 A 
ATOM     16  C   LIG    1       -5.319  14.620  -0.573  0.00  0.00    +0.000 A 
ATOM     17  C   LIG    1       -4.192  14.319   0.168  0.00  0.00    +0.040 A 
ATOM     18  C   LIG    1       -3.760  13.011   0.272  0.00  0.00    -0.020 A 
ATOM     19  C   LIG    1       -4.452  11.999  -0.379  0.00  0.00    +0.110 A 
ENDBRANCH   7  19
ENDBRANCH   1  10
BRANCH   4  20
ATOM     20  N   LIG    1       -0.351   3.300  -0.031  0.00  0.00    -0.230 N 
ATOM     21  N   LIG    1       -0.070   2.521  -1.016  0.00  0.00    -0.070 NA
ATOM     22  N   LIG    1        0.304   1.368  -0.589  0.00  0.00    -0.260 NA
ATOM     23  C   LIG    1        0.277   1.362   0.746  0.00  0.00    +0.180 A 
ATOM     24  C   LIG    1       -0.150   2.603   1.130  0.00  0.00    +0.020 A 
BRANCH  24  25
ATOM     25  C   LIG    1       -0.350   3.091   2.512  0.00  0.00    -0.010 A 
ATOM     26  C   LIG    1       -1.241   4.135   2.764  0.00  0.00    +0.040 A 
ATOM     27  C   LIG    1       -1.426   4.583   4.055  0.00  0.00    +0.060 A 
ATOM     28  C   LIG    1       -0.723   4.006   5.099  0.00  0.00    -0.080 A 
ATOM     29  C   LIG    1        0.166   2.973   4.854  0.00  0.00    +0.060 A 
ATOM     30 BR   LIG    1       -0.978   4.631   6.865  0.00  0.00    -0.040 Br
ATOM     31  C   LIG    1        0.356   2.514   3.568  0.00  0.00    +0.050 A 
ENDBRANCH  24  25
ENDBRANCH   4  20
TORSDOF 4
