REMARK  Name = ZINCkj000005iIMD.0
REMARK                            x       y       z     vdW  Elec       q    Type
REMARK                         _______ _______ _______ _____ _____    ______ ____
ROOT
ATOM      1  N   LIG    1        0.511  -6.692  -1.291  0.00  0.00    -0.700 N 
ATOM      2  H   LIG    1        0.269  -6.026  -1.953  0.00  0.00    +0.410 HD
ATOM      3  C   LIG    1        0.250  -7.995  -1.518  0.00  0.00    +0.500 C 
ATOM      4  O   LIG    1        0.552  -8.828  -0.690  0.00  0.00    -0.530 OA
ENDROOT
BRANCH   3   5
ATOM      5  C   LIG    1       -0.418  -8.416  -2.802  0.00  0.00    +0.170 C 
ATOM      6  C   LIG    1       -1.785  -7.738  -2.911  0.00  0.00    +0.080 C 
ATOM      7  C   LIG    1       -2.459  -8.169  -4.218  0.00  0.00    +0.050 C 
ATOM      8  C   LIG    1       -2.565  -9.696  -4.246  0.00  0.00    +0.060 C 
ATOM      9  C   LIG    1       -1.169 -10.302  -4.087  0.00  0.00    +0.260 C 
ATOM     10  N   LIG    1       -0.589  -9.874  -2.808  0.00  0.00    -0.490 N 
ATOM     11  H   LIG    1       -1.203 -10.143  -2.055  0.00  0.00    +0.430 HD
ATOM     12  H   LIG    1        0.309 -10.317  -2.682  0.00  0.00    +0.440 HD
ENDBRANCH   3   5
BRANCH   1  13
ATOM     13  C   LIG    1        1.160  -6.282  -0.043  0.00  0.00    +0.310 C 
BRANCH  13  14
ATOM     14  C   LIG    1        1.340  -4.763  -0.037  0.00  0.00    +0.200 C 
BRANCH  14  15
ATOM     15  O   LIG    1        0.058  -4.132  -0.021  0.00  0.00    -0.320 OA
BRANCH  15  19
ATOM     16  C   LIG    1        0.002  -0.004   0.002  0.00  0.00    +0.100 A 
ATOM     17  C   LIG    1        1.212  -0.681  -0.019  0.00  0.00    -0.040 A 
ATOM     18  C   LIG    1        1.231  -2.062  -0.022  0.00  0.00    -0.040 A 
ATOM     19  C   LIG    1        0.040  -2.772  -0.014  0.00  0.00    +0.080 A 
ATOM     20  C   LIG    1       -1.171  -2.095   0.002  0.00  0.00    +0.030 A 
ATOM     21  C   LIG    1       -1.190  -0.714   0.010  0.00  0.00    +0.030 A 
BRANCH  16  23
ATOM     22  C   LIG    1        1.248   2.022   0.001  0.00  0.00    +0.250 C 
ATOM     23  O   LIG    1       -0.016   1.356   0.009  0.00  0.00    -0.320 OA
ENDBRANCH  16  23
ENDBRANCH  15  19
ENDBRANCH  14  15
ENDBRANCH  13  14
ENDBRANCH   1  13
TORSDOF 6
