REMARK  Name = ZINCqH0000050kC4.0
REMARK                            x       y       z     vdW  Elec       q    Type
REMARK                         _______ _______ _______ _____ _____    ______ ____
ROOT
ATOM      1  C   LIG    1       -3.092   2.944  -1.408  0.00  0.00    +0.470 C 
ATOM      2  O   LIG    1       -3.729   3.002  -0.383  0.00  0.00    -0.490 OA
ENDROOT
BRANCH   1   3
ATOM      3  O   LIG    1       -3.619   3.405  -2.553  0.00  0.00    -0.350 OA
BRANCH   3   4
ATOM      4  C   LIG    1       -4.960   3.959  -2.486  0.00  0.00    +0.260 C 
BRANCH   4   5
ATOM      5  C   LIG    1       -5.388   4.429  -3.877  0.00  0.00    +0.230 C 
BRANCH   5   6
ATOM      6  O   LIG    1       -5.489   3.302  -4.750  0.00  0.00    -0.310 OA
BRANCH   6  12
ATOM      7  C   LIG    1       -6.790   6.503  -8.197  0.00  0.00    +0.090 C 
ATOM      8  C   LIG    1       -6.504   5.092  -7.750  0.00  0.00    -0.050 A 
ATOM      9  C   LIG    1       -6.621   4.046  -8.647  0.00  0.00    -0.030 A 
ATOM     10  C   LIG    1       -6.358   2.751  -8.240  0.00  0.00    +0.050 A 
ATOM     11  C   LIG    1       -5.974   2.500  -6.937  0.00  0.00    -0.120 A 
ATOM     12  C   LIG    1       -5.862   3.547  -6.034  0.00  0.00    +0.130 A 
ATOM     13  C   LIG    1       -5.682   1.089  -6.496  0.00  0.00    +0.090 C 
ATOM     14  C   LIG    1       -6.125   4.846  -6.445  0.00  0.00    -0.080 A 
ENDBRANCH   6  12
ENDBRANCH   5   6
ENDBRANCH   4   5
ENDBRANCH   3   4
ENDBRANCH   1   3
BRANCH   1  15
ATOM     15  C   LIG    1       -1.705   2.354  -1.401  0.00  0.00    +0.140 C 
BRANCH  15  16
ATOM     16  C   LIG    1       -1.348   1.909   0.019  0.00  0.00    +0.070 C 
ATOM     17  S   LIG    1       -1.226   3.364   1.109  0.00  0.00    -0.050 S 
ATOM     18  C   LIG    1        0.310   4.067   0.596  0.00  0.00    -0.150 A 
ATOM     19  C   LIG    1        0.508   5.436   0.684  0.00  0.00    +0.080 A 
ATOM     20  C   LIG    1        1.722   5.982   0.308  0.00  0.00    +0.010 A 
ATOM     21  C   LIG    1        2.735   5.161  -0.150  0.00  0.00    +0.050 A 
ATOM     22  C   LIG    1        2.540   3.797  -0.245  0.00  0.00    -0.010 A 
ATOM     23  C   LIG    1        1.320   3.235   0.111  0.00  0.00    +0.160 A 
ATOM     24  N   LIG    1        1.145   1.859   0.001  0.00  0.00    -0.650 N 
ATOM     25  H   LIG    1        1.948   1.322  -0.090  0.00  0.00    +0.420 HD
ATOM     26  C   LIG    1       -0.014   1.209   0.009  0.00  0.00    +0.530 C 
ATOM     27  O   LIG    1        0.002  -0.004   0.002  0.00  0.00    -0.500 OA
ENDBRANCH  15  16
ENDBRANCH   1  15
TORSDOF 7
