REMARK  Name = ZINCqH000000734m.0
REMARK                            x       y       z     vdW  Elec       q    Type
REMARK                         _______ _______ _______ _____ _____    ______ ____
ROOT
ATOM      1  C   LIG    1       -0.037   2.238   2.168  0.00  0.00    +0.570 C 
ATOM      2  N   LIG    1       -0.478   2.460   0.914  0.00  0.00    -0.600 N 
ATOM      3  C   LIG    1        0.287   1.980  -0.245  0.00  0.00    +0.280 C 
ATOM      4  C   LIG    1        0.543   3.156  -1.192  0.00  0.00    +0.030 C 
ATOM      5  C   LIG    1       -0.790   3.816  -1.552  0.00  0.00    +0.040 C 
ATOM      6  C   LIG    1       -1.454   4.354  -0.283  0.00  0.00    +0.100 C 
ATOM      7  C   LIG    1       -1.733   3.191   0.675  0.00  0.00    +0.270 C 
ATOM      8  O   LIG    1        0.962   1.569   2.352  0.00  0.00    -0.520 OA
ENDROOT
BRANCH   6   9
ATOM      9  C   LIG    1       -2.751   5.032  -0.643  0.00  0.00    +0.290 A 
ATOM     10  N   LIG    1       -2.892   6.308  -0.852  0.00  0.00    -0.480 NA
ATOM     11  C   LIG    1       -4.187   6.581  -1.154  0.00  0.00    +0.050 A 
ATOM     12  C   LIG    1       -4.878   7.756  -1.462  0.00  0.00    +0.070 A 
ATOM     13  C   LIG    1       -6.217   7.708  -1.728  0.00  0.00    +0.000 A 
ATOM     14  C   LIG    1       -6.903   6.502  -1.696  0.00  0.00    +0.030 A 
ATOM     15  C   LIG    1       -6.242   5.330  -1.394  0.00  0.00    +0.010 A 
ATOM     16  C   LIG    1       -4.881   5.359  -1.122  0.00  0.00    +0.050 A 
ATOM     17  N   LIG    1       -3.944   4.397  -0.801  0.00  0.00    -0.600 N 
ATOM     18  H   LIG    1       -4.106   3.446  -0.704  0.00  0.00    +0.420 HD
ENDBRANCH   6   9
BRANCH   1  22
ATOM     19  C   LIG    1       -2.137   3.873   5.478  0.00  0.00    +0.180 A 
ATOM     20  C   LIG    1       -2.809   3.088   4.547  0.00  0.00    -0.080 A 
ATOM     21  C   LIG    1       -2.133   2.561   3.470  0.00  0.00    +0.120 A 
ATOM     22  C   LIG    1       -0.766   2.805   3.317  0.00  0.00    -0.210 A 
ATOM     23  C   LIG    1       -0.091   3.595   4.256  0.00  0.00    +0.190 A 
ATOM     24  F   LIG    1        1.230   3.840   4.112  0.00  0.00    -0.120 F 
ATOM     25  C   LIG    1       -0.779   4.124   5.330  0.00  0.00    -0.040 A 
BRANCH  19  27
ATOM     26  C   LIG    1       -4.204   4.097   6.627  0.00  0.00    +0.250 C 
ATOM     27  O   LIG    1       -2.810   4.395   6.535  0.00  0.00    -0.310 OA
ENDBRANCH  19  27
ENDBRANCH   1  22
TORSDOF 3
