REMARK  Name = ZINCfA000000bfXS.0
REMARK                            x       y       z     vdW  Elec       q    Type
REMARK                         _______ _______ _______ _____ _____    ______ ____
ROOT
ATOM      1  C   LIG    1       -0.721   1.547   1.044  0.00  0.00    +0.170 C 
ENDROOT
BRANCH   1   2
ATOM      2  N   LIG    1       -0.235   0.877  -0.170  0.00  0.00    -0.510 N 
ATOM      3  H   LIG    1       -0.294  -0.123  -0.049  0.00  0.00    +0.420 HD
ATOM      4  H   LIG    1       -0.801   1.155  -0.958  0.00  0.00    +0.430 HD
BRANCH   2   6
ATOM      5  C   LIG    1        1.672   0.554  -1.673  0.00  0.00    +0.080 C 
ATOM      6  C   LIG    1        1.163   1.258  -0.413  0.00  0.00    +0.240 C 
ENDBRANCH   2   6
ENDBRANCH   1   2
BRANCH   1   7
ATOM      7  C   LIG    1       -0.508   3.056   0.912  0.00  0.00    -0.010 C 
ATOM      8  C   LIG    1       -1.126   3.765   2.119  0.00  0.00    +0.060 C 
ATOM      9  C   LIG    1       -1.177   3.556  -0.370  0.00  0.00    +0.030 C 
ENDBRANCH   1   7
BRANCH   1  10
ATOM     10  C   LIG    1        0.051   1.027   2.257  0.00  0.00    +0.120 C 
BRANCH  10  11
ATOM     11  C   LIG    1       -0.255  -0.435   2.459  0.00  0.00    -0.140 A 
ATOM     12  C   LIG    1       -1.312  -0.814   3.266  0.00  0.00    +0.070 A 
ATOM     13  C   LIG    1       -1.598  -2.154   3.447  0.00  0.00    +0.010 A 
ATOM     14  C   LIG    1       -0.818  -3.117   2.830  0.00  0.00    +0.120 A 
ATOM     15  C   LIG    1        0.244  -2.736   2.027  0.00  0.00    +0.010 A 
ATOM     16  F   LIG    1       -1.092  -4.428   3.011  0.00  0.00    -0.130 F 
ATOM     17  C   LIG    1        0.524  -1.396   1.842  0.00  0.00    +0.020 A 
ENDBRANCH  10  11
ENDBRANCH   1  10
TORSDOF 5
