REMARK  Name = ZINCqH00000054SF.1
REMARK                            x       y       z     vdW  Elec       q    Type
REMARK                         _______ _______ _______ _____ _____    ______ ____
ROOT
ATOM      1  N   LIG    1       -2.467  -0.475   0.411  0.00  0.00    -0.730 N 
ATOM      2  H   LIG    1       -1.665  -0.995   0.578  0.00  0.00    +0.400 HD
ATOM      3  C   LIG    1       -2.435   0.868   0.518  0.00  0.00    +0.560 C 
ATOM      4  O   LIG    1       -3.440   1.519   0.309  0.00  0.00    -0.510 OA
ENDROOT
BRANCH   3   5
ATOM      5  C   LIG    1       -1.179   1.548   0.887  0.00  0.00    -0.160 A 
ATOM      6  C   LIG    1       -0.036   0.802   1.124  0.00  0.00    +0.080 A 
ATOM      7  C   LIG    1        1.157   1.455   1.470  0.00  0.00    -0.070 A 
ATOM      8  C   LIG    1        2.337   0.729   1.711  0.00  0.00    +0.030 A 
ATOM      9  C   LIG    1        3.478   1.391   2.045  0.00  0.00    +0.010 A 
ATOM     10  C   LIG    1        3.497   2.781   2.151  0.00  0.00    +0.030 A 
ATOM     11  C   LIG    1        2.374   3.516   1.925  0.00  0.00    +0.020 A 
ATOM     12  C   LIG    1        1.175   2.870   1.578  0.00  0.00    -0.020 A 
ATOM     13  C   LIG    1        0.001   3.603   1.338  0.00  0.00    +0.000 A 
ATOM     14  C   LIG    1       -1.151   2.954   1.003  0.00  0.00    +0.160 A 
BRANCH  14  15
ATOM     15  O   LIG    1       -2.281   3.670   0.773  0.00  0.00    -0.480 OA
ATOM     16  H   LIG    1       -2.395   3.940  -0.149  0.00  0.00    +0.400 HD
ENDBRANCH  14  15
ENDBRANCH   3   5
BRANCH   1  17
ATOM     17  C   LIG    1       -3.715  -1.151   0.045  0.00  0.00    +0.270 C 
BRANCH  17  18
ATOM     18  C   LIG    1       -3.443  -2.641  -0.172  0.00  0.00    +0.200 C 
BRANCH  18  19
ATOM     19  C   LIG    1       -4.737  -3.348  -0.480  0.00  0.00    -0.040 A 
ATOM     20  C   LIG    1       -5.316  -3.218  -1.729  0.00  0.00    +0.020 A 
ATOM     21  C   LIG    1       -6.501  -3.870  -2.014  0.00  0.00    +0.040 A 
ATOM     22  C   LIG    1       -7.114  -4.644  -1.048  0.00  0.00    -0.010 A 
ATOM     23  C   LIG    1       -6.539  -4.771   0.205  0.00  0.00    +0.100 A 
ATOM     24  F   LIG    1       -7.138  -5.528   1.150  0.00  0.00    -0.140 F 
ATOM     25  C   LIG    1       -5.349  -4.122   0.488  0.00  0.00    -0.020 A 
ENDBRANCH  18  19
BRANCH  18  27
ATOM     26  C   LIG    1       -2.622  -1.693  -2.243  0.00  0.00    +0.200 C 
ATOM     27  N   LIG    1       -2.513  -2.811  -1.296  0.00  0.00    -0.530 NA
ATOM     28  C   LIG    1       -1.132  -2.963  -0.818  0.00  0.00    +0.200 C 
ENDBRANCH  18  27
ENDBRANCH  17  18
ENDBRANCH   1  17
TORSDOF 6
