REMARK  Name = ZINCrD0000072MtG.0
REMARK                            x       y       z     vdW  Elec       q    Type
REMARK                         _______ _______ _______ _____ _____    ______ ____
ROOT
ATOM      1  O   LIG    1       -5.433   4.050  -0.911  0.00  0.00    -0.320 OA
ENDROOT
BRANCH   1   2
ATOM      2  C   LIG    1       -4.384   4.746  -1.376  0.00  0.00    +0.440 C 
ATOM      3  O   LIG    1       -4.540   5.873  -1.784  0.00  0.00    -0.490 OA
BRANCH   2   4
ATOM      4  C   LIG    1       -3.012   4.123  -1.391  0.00  0.00    +0.270 C 
BRANCH   4   5
ATOM      5  O   LIG    1       -2.093   5.009  -2.033  0.00  0.00    -0.520 OA
ATOM      6  H   LIG    1       -2.011   5.871  -1.602  0.00  0.00    +0.390 HD
ENDBRANCH   4   5
BRANCH   4   7
ATOM      7  C   LIG    1       -2.553   3.867   0.046  0.00  0.00    +0.080 C 
BRANCH   7   8
ATOM      8  C   LIG    1       -1.237   3.133   0.030  0.00  0.00    -0.120 A 
ATOM      9  C   LIG    1       -1.218   1.751   0.017  0.00  0.00    +0.060 A 
ATOM     10  C   LIG    1       -0.013   1.076   0.008  0.00  0.00    -0.020 A 
ATOM     11  C   LIG    1        1.179   1.786   0.000  0.00  0.00    +0.130 A 
ATOM     12  C   LIG    1        1.157   3.174   0.008  0.00  0.00    -0.080 A 
ATOM     13  C   LIG    1       -0.051   3.844   0.023  0.00  0.00    +0.060 A 
BRANCH  11  14
ATOM     14  O   LIG    1        2.366   1.125  -0.015  0.00  0.00    -0.320 OA
ATOM     15  C   LIG    1        3.553   1.921  -0.022  0.00  0.00    +0.250 C 
ENDBRANCH  11  14
ENDBRANCH   7   8
ENDBRANCH   4   7
ENDBRANCH   2   4
ENDBRANCH   1   2
BRANCH   1  16
ATOM     16  C   LIG    1       -6.724   4.713  -0.927  0.00  0.00    +0.290 C 
BRANCH  16  17
ATOM     17  C   LIG    1       -7.814   3.686  -1.099  0.00  0.00    -0.090 A 
ATOM     18  C   LIG    1       -8.896   3.957  -1.917  0.00  0.00    +0.080 A 
ATOM     19  C   LIG    1       -9.896   3.016  -2.076  0.00  0.00    +0.050 A 
ATOM     20  C   LIG    1       -9.815   1.803  -1.417  0.00  0.00    -0.020 A 
ATOM     21  C   LIG    1       -8.731   1.531  -0.599  0.00  0.00    -0.030 A 
ATOM     22 CL   LIG    1       -8.627   0.008   0.228  0.00  0.00    -0.040 Cl
ATOM     23 CL   LIG    1      -11.070   0.620  -1.617  0.00  0.00    -0.040 Cl
ATOM     24  C   LIG    1       -7.729   2.472  -0.445  0.00  0.00    +0.080 A 
ENDBRANCH  16  17
BRANCH  16  25
ATOM     25  C   LIG    1       -6.928   5.448   0.372  0.00  0.00    +0.450 C 
ATOM     26  O   LIG    1       -6.072   5.417   1.225  0.00  0.00    -0.480 OA
BRANCH  25  28
ATOM     27  C   LIG    1       -8.188   6.822   1.857  0.00  0.00    +0.290 C 
ATOM     28  O   LIG    1       -8.060   6.138   0.583  0.00  0.00    -0.350 OA
ENDBRANCH  25  28
ENDBRANCH  16  25
ENDBRANCH   1  16
TORSDOF 10
