REMARK  Name = ZINCqH0000006Mxq.0
REMARK                            x       y       z     vdW  Elec       q    Type
REMARK                         _______ _______ _______ _____ _____    ______ ____
ROOT
ATOM      1  C   LIG    1        0.208   6.051  -0.473  0.00  0.00    +0.250 C 
ENDROOT
BRANCH   1   4
ATOM      2  C   LIG    1       -0.787   2.893   1.346  0.00  0.00    +0.120 A 
ATOM      3  C   LIG    1       -0.254   3.750   0.398  0.00  0.00    -0.010 A 
ATOM      4  C   LIG    1       -0.368   5.119   0.562  0.00  0.00    -0.070 A 
ATOM      5  C   LIG    1       -1.003   5.634   1.677  0.00  0.00    +0.020 A 
ATOM      6  C   LIG    1       -1.532   4.783   2.630  0.00  0.00    -0.010 A 
ATOM      7  C   LIG    1       -1.427   3.412   2.469  0.00  0.00    +0.080 A 
BRANCH   2   9
ATOM      8  C   LIG    1       -0.013   1.086   0.008  0.00  0.00    +0.250 C 
ATOM      9  O   LIG    1       -0.682   1.547   1.184  0.00  0.00    -0.300 OA
ENDBRANCH   2   9
BRANCH   7  10
ATOM     10  O   LIG    1       -1.946   2.574   3.405  0.00  0.00    -0.310 OA
BRANCH  10  11
ATOM     11  C   LIG    1       -2.588   3.177   4.530  0.00  0.00    +0.590 C 
ATOM     12  F   LIG    1       -3.661   3.960   4.091  0.00  0.00    -0.200 F 
ATOM     13  F   LIG    1       -1.671   3.982   5.214  0.00  0.00    -0.200 F 
ENDBRANCH  10  11
ENDBRANCH   7  10
ENDBRANCH   1   4
BRANCH   1  14
ATOM     14  N   LIG    1        1.601   6.365  -0.127  0.00  0.00    -0.510 N 
ATOM     15  C   LIG    1        1.672   7.140   1.119  0.00  0.00    +0.230 C 
BRANCH  14  16
ATOM     16  C   LIG    1        2.233   7.036  -1.168  0.00  0.00    +0.190 A 
ATOM     17  C   LIG    1        1.737   8.253  -1.617  0.00  0.00    +0.010 A 
ATOM     18  C   LIG    1        2.369   8.919  -2.648  0.00  0.00    +0.140 A 
ATOM     19  C   LIG    1        3.494   8.378  -3.248  0.00  0.00    -0.050 A 
ATOM     20  C   LIG    1        3.998   7.168  -2.820  0.00  0.00    +0.170 A 
ATOM     21  C   LIG    1        3.373   6.484  -1.775  0.00  0.00    +0.000 A 
BRANCH  19  22
ATOM     22  N   LIG    1        4.158   9.101  -4.356  0.00  0.00    +0.030 N 
ATOM     23  O   LIG    1        3.715  10.170  -4.737  0.00  0.00    -0.150 OA
ATOM     24  O   LIG    1        5.147   8.627  -4.886  0.00  0.00    -0.150 OA
ENDBRANCH  19  22
BRANCH  21  25
ATOM     25  C   LIG    1        3.891   5.228  -1.324  0.00  0.00    +0.260 C 
ATOM     26  N   LIG    1        4.303   4.231  -0.967  0.00  0.00    -0.380 NA
ENDBRANCH  21  25
ENDBRANCH  14  16
ENDBRANCH   1  14
TORSDOF 8
