REMARK  Name = ZINCvU0000000JJr.0
REMARK                            x       y       z     vdW  Elec       q    Type
REMARK                         _______ _______ _______ _____ _____    ______ ____
ROOT
ATOM      1  N   LIG    1       -3.185   4.221  -1.500  0.00  0.00    -0.980 NA
ENDROOT
BRANCH   1   2
ATOM      2  S   LIG    1       -2.530   4.032   0.009  0.00  0.00    +2.680 S 
ATOM      3  O   LIG    1       -2.304   5.340   0.515  0.00  0.00    -0.950 OA
ATOM      4  O   LIG    1       -3.333   3.068   0.677  0.00  0.00    -0.940 OA
BRANCH   2   5
ATOM      5  C   LIG    1       -0.942   3.297  -0.200  0.00  0.00    -0.700 A 
ATOM      6  C   LIG    1       -0.806   1.921  -0.210  0.00  0.00    +0.160 A 
ATOM      7  C   LIG    1        0.440   1.365  -0.366  0.00  0.00    -0.040 A 
ATOM      8  C   LIG    1        1.586   2.163  -0.524  0.00  0.00    +0.240 A 
ATOM      9  N   LIG    1        2.766   1.466  -0.640  0.00  0.00    -0.650 N 
ATOM     10  H   LIG    1        2.645   0.519  -0.466  0.00  0.00    +0.400 HD
ATOM     11  C   LIG    1        4.005   1.752  -0.924  0.00  0.00    +0.530 C 
ATOM     12  C   LIG    1        4.609   3.105  -1.043  0.00  0.00    +0.080 C 
ATOM     13  C   LIG    1        3.645   4.102  -1.641  0.00  0.00    +0.040 C 
ATOM     14  C   LIG    1        2.556   4.515  -0.701  0.00  0.00    +0.090 C 
ATOM     15  O   LIG    1        4.747   0.811  -1.111  0.00  0.00    -0.530 OA
ATOM     16  C   LIG    1        1.442   3.534  -0.525  0.00  0.00    -0.130 A 
ATOM     17  C   LIG    1        0.173   4.089  -0.359  0.00  0.00    +0.160 A 
ENDBRANCH   2   5
ENDBRANCH   1   2
BRANCH   1  18
ATOM     18  C   LIG    1       -2.953   5.457  -2.250  0.00  0.00    +0.350 C 
BRANCH  18  23
ATOM     19  C   LIG    1        1.483   4.707  -5.878  0.00  0.00    +0.100 C 
ATOM     20  C   LIG    1        0.326   4.902  -4.932  0.00  0.00    -0.070 A 
ATOM     21  C   LIG    1        0.545   5.424  -3.671  0.00  0.00    +0.030 A 
ATOM     22  C   LIG    1       -0.517   5.609  -2.805  0.00  0.00    +0.030 A 
ATOM     23  C   LIG    1       -1.796   5.261  -3.196  0.00  0.00    -0.090 A 
ATOM     24  C   LIG    1       -2.015   4.738  -4.458  0.00  0.00    -0.070 A 
ATOM     25 BR   LIG    1       -3.767   4.269  -4.996  0.00  0.00    -0.040 Br
ATOM     26  C   LIG    1       -0.954   4.559  -5.326  0.00  0.00    +0.040 A 
ENDBRANCH  18  23
ENDBRANCH   1  18
BRANCH   1  27
ATOM     27  C   LIG    1       -3.997   3.151  -2.085  0.00  0.00    +0.380 C 
BRANCH  27  28
ATOM     28  C   LIG    1       -5.456   3.431  -1.831  0.00  0.00    -0.210 A 
ATOM     29  C   LIG    1       -6.257   4.130  -2.637  0.00  0.00    +0.020 A 
ATOM     30  C   LIG    1       -7.562   4.257  -2.195  0.00  0.00    +0.000 A 
ATOM     31  C   LIG    1       -7.822   3.662  -1.030  0.00  0.00    -0.060 A 
ATOM     32  S   LIG    1       -6.365   2.882  -0.429  0.00  0.00    +0.140 S 
ENDBRANCH  27  28
ENDBRANCH   1  27
TORSDOF 6
