REMARK  Name = ZINCrg000000qZGd.0
REMARK                            x       y       z     vdW  Elec       q    Type
REMARK                         _______ _______ _______ _____ _____    ______ ____
ROOT
ATOM      1  N   LIG    1       -0.865   4.582  -5.228  0.00  0.00    -0.560 N 
ATOM      2  C   LIG    1        0.330   4.446  -4.387  0.00  0.00    +0.310 C 
ATOM      3  C   LIG    1        0.003   3.318  -3.384  0.00  0.00    +0.010 C 
ATOM      4  C   LIG    1       -1.059   2.504  -4.160  0.00  0.00    +0.080 C 
ATOM      5  C   LIG    1       -1.660   3.503  -5.124  0.00  0.00    +0.520 C 
ATOM      6  O   LIG    1       -2.708   3.352  -5.717  0.00  0.00    -0.520 OA
ENDROOT
BRANCH   3   7
ATOM      7  C   LIG    1       -0.574   3.879  -2.110  0.00  0.00    +0.520 C 
ATOM      8  N   LIG    1       -0.926   3.051  -1.107  0.00  0.00    -0.620 N 
ATOM      9  C   LIG    1       -0.756   1.595  -1.232  0.00  0.00    +0.260 C 
ATOM     10  C   LIG    1       -0.013   1.086   0.008  0.00  0.00    +0.230 C 
ATOM     11  O   LIG    1       -0.684   1.548   1.183  0.00  0.00    -0.370 OA
ATOM     12  C   LIG    1       -0.712   2.971   1.319  0.00  0.00    +0.280 C 
ATOM     13  C   LIG    1       -1.491   3.576   0.146  0.00  0.00    +0.280 C 
ATOM     14  O   LIG    1       -0.722   5.077  -1.987  0.00  0.00    -0.510 OA
BRANCH  12  15
ATOM     15  C   LIG    1       -1.387   3.338   2.615  0.00  0.00    +0.170 A 
ATOM     16  N   LIG    1       -2.486   2.825   3.083  0.00  0.00    -0.350 NA
ATOM     17  O   LIG    1       -2.767   3.334   4.148  0.00  0.00    +0.090 OA
ATOM     18  C   LIG    1       -1.846   4.247   4.471  0.00  0.00    +0.440 A 
ATOM     19  N   LIG    1       -0.960   4.254   3.504  0.00  0.00    -0.480 NA
ENDBRANCH  12  15
ENDBRANCH   3   7
BRANCH   1  25
ATOM     20  C   LIG    1       -1.866   6.767  -5.520  0.00  0.00    +0.140 A 
ATOM     21  C   LIG    1       -2.136   7.864  -6.323  0.00  0.00    -0.080 A 
ATOM     22  C   LIG    1       -1.688   7.891  -7.631  0.00  0.00    +0.060 A 
ATOM     23  C   LIG    1       -0.970   6.825  -8.142  0.00  0.00    -0.020 A 
ATOM     24  C   LIG    1       -0.692   5.730  -7.346  0.00  0.00    +0.060 A 
ATOM     25  C   LIG    1       -1.142   5.693  -6.035  0.00  0.00    +0.100 A 
BRANCH  20  27
ATOM     26  C   LIG    1       -3.040   7.876  -3.775  0.00  0.00    +0.240 C 
ATOM     27  O   LIG    1       -2.305   6.740  -4.234  0.00  0.00    -0.300 OA
ENDBRANCH  20  27
ENDBRANCH   1  25
TORSDOF 4
