REMARK  Name = ZINCb70000002ERt.0
REMARK                            x       y       z     vdW  Elec       q    Type
REMARK                         _______ _______ _______ _____ _____    ______ ____
ROOT
ATOM      1  C   LIG    1       -0.042   1.013   2.508  0.00  0.00    +0.190 C 
ENDROOT
BRANCH   1   2
ATOM      2  C   LIG    1       -0.732   1.581   1.266  0.00  0.00    -0.010 C 
ATOM      3  C   LIG    1       -0.013   1.086   0.008  0.00  0.00    -0.010 C 
ATOM      4  C   LIG    1       -0.756   1.594  -1.230  0.00  0.00    +0.230 C 
ATOM      5  O   LIG    1       -2.111   1.144  -1.189  0.00  0.00    -0.370 OA
ATOM      6  C   LIG    1       -2.849   1.615  -0.059  0.00  0.00    +0.230 C 
ATOM      7  C   LIG    1       -2.190   1.107   1.226  0.00  0.00    +0.030 C 
ENDBRANCH   1   2
BRANCH   1   8
ATOM      8  N   LIG    1        1.358   1.460   2.537  0.00  0.00    -0.640 N 
ATOM      9  H   LIG    1        1.388   2.468   2.567  0.00  0.00    +0.440 HD
ATOM     10  H   LIG    1        1.833   1.133   1.709  0.00  0.00    +0.440 HD
ATOM     11  H   LIG    1        1.813   1.085   3.356  0.00  0.00    +0.430 HD
ENDBRANCH   1   8
BRANCH   1  12
ATOM     12  C   LIG    1       -0.761   1.509   3.764  0.00  0.00    +0.070 C 
BRANCH  12  13
ATOM     13  C   LIG    1       -0.150   0.844   4.998  0.00  0.00    +0.170 C 
BRANCH  13  14
ATOM     14  O   LIG    1       -0.822   1.307   6.171  0.00  0.00    -0.560 OA
ATOM     15  H   LIG    1       -0.486   0.925   6.994  0.00  0.00    +0.400 HD
ENDBRANCH  13  14
ENDBRANCH  12  13
ENDBRANCH   1  12
TORSDOF 5
