REMARK  Name = ZINCrH00000No4yI.0
REMARK                            x       y       z     vdW  Elec       q    Type
REMARK                         _______ _______ _______ _____ _____    ______ ____
ROOT
ATOM      1  C   LIG    1        2.486   1.082  -0.005  0.00  0.00    +0.010 A 
ATOM      2  C   LIG    1        2.777   0.101   0.849  0.00  0.00    -0.040 A 
ATOM      3  S   LIG    1        4.381  -0.542   0.552  0.00  0.00    +0.230 S 
ATOM      4  C   LIG    1        4.661   0.575  -0.777  0.00  0.00    +0.060 A 
ATOM      5  N   LIG    1        5.735   0.733  -1.581  0.00  0.00    -0.480 NA
ATOM      6  C   LIG    1        5.757   1.627  -2.525  0.00  0.00    +0.550 A 
ATOM      7  N   LIG    1        4.702   2.453  -2.753  0.00  0.00    -0.390 N 
ATOM      8  C   LIG    1        3.591   2.363  -1.996  0.00  0.00    +0.570 A 
ATOM      9  O   LIG    1        2.641   3.101  -2.196  0.00  0.00    -0.470 OA
ATOM     10  C   LIG    1        3.547   1.387  -0.956  0.00  0.00    -0.210 A 
ENDROOT
BRANCH   1  15
ATOM     11  C   LIG    1       -2.537   3.896   0.075  0.00  0.00    +0.090 C 
ATOM     12  C   LIG    1       -1.222   3.159   0.054  0.00  0.00    -0.080 A 
ATOM     13  C   LIG    1       -1.208   1.776   0.041  0.00  0.00    -0.010 A 
ATOM     14  C   LIG    1       -0.007   1.096   0.028  0.00  0.00    +0.020 A 
ATOM     15  C   LIG    1        1.193   1.806   0.015  0.00  0.00    -0.050 A 
ATOM     16  C   LIG    1        1.172   3.200   0.022  0.00  0.00    +0.060 A 
ATOM     17  C   LIG    1       -0.035   3.869   0.041  0.00  0.00    +0.000 A 
ENDBRANCH   1  15
BRANCH   7  18
ATOM     18  N   LIG    1        4.769   3.403  -3.781  0.00  0.00    -0.240 NA
ATOM     19  C   LIG    1        5.874   3.564  -4.444  0.00  0.00    +0.280 C 
BRANCH  19  20
ATOM     20  C   LIG    1        5.981   4.638  -5.448  0.00  0.00    -0.060 A 
ATOM     21  C   LIG    1        4.892   5.479  -5.692  0.00  0.00    +0.090 A 
ATOM     22  C   LIG    1        4.996   6.486  -6.629  0.00  0.00    +0.000 A 
ATOM     23  C   LIG    1        6.175   6.660  -7.338  0.00  0.00    +0.110 A 
ATOM     24  C   LIG    1        7.263   5.821  -7.104  0.00  0.00    +0.080 A 
ATOM     25  C   LIG    1        7.169   4.813  -6.163  0.00  0.00    +0.050 A 
BRANCH  24  26
ATOM     26  O   LIG    1        8.418   5.994  -7.801  0.00  0.00    -0.480 OA
ATOM     27  H   LIG    1        8.460   5.490  -8.625  0.00  0.00    +0.390 HD
ENDBRANCH  24  26
BRANCH  23  28
ATOM     28  O   LIG    1        6.270   7.650  -8.264  0.00  0.00    -0.490 OA
ATOM     29  H   LIG    1        6.005   7.383  -9.155  0.00  0.00    +0.390 HD
ENDBRANCH  23  28
ENDBRANCH  19  20
ENDBRANCH   7  18
TORSDOF 5
