REMARK  Name = ZINCtV00000L6kZX.0
REMARK                            x       y       z     vdW  Elec       q    Type
REMARK                         _______ _______ _______ _____ _____    ______ ____
ROOT
ATOM      1  C   LIG    1       -4.852   0.889   0.024  0.00  0.00    +0.280 A 
ATOM      2  N   LIG    1       -5.458   0.416  -1.026  0.00  0.00    -0.460 NA
ATOM      3  C   LIG    1       -6.446  -0.431  -0.639  0.00  0.00    +0.040 A 
ATOM      4  C   LIG    1       -7.383  -1.200  -1.335  0.00  0.00    +0.070 A 
ATOM      5  C   LIG    1       -8.278  -1.969  -0.646  0.00  0.00    +0.000 A 
ATOM      6  C   LIG    1       -8.267  -1.997   0.741  0.00  0.00    +0.030 A 
ATOM      7  C   LIG    1       -7.351  -1.247   1.448  0.00  0.00    +0.010 A 
ATOM      8  C   LIG    1       -6.435  -0.459   0.766  0.00  0.00    +0.060 A 
ATOM      9  N   LIG    1       -5.415   0.386   1.155  0.00  0.00    -0.470 N 
ENDROOT
BRANCH   1  10
ATOM     10  C   LIG    1       -3.699   1.859  -0.009  0.00  0.00    +0.320 C 
BRANCH  10  11
ATOM     11  O   LIG    1       -2.468   1.134  -0.047  0.00  0.00    -0.310 OA
BRANCH  11  15
ATOM     12  C   LIG    1        1.010   3.350  -0.153  0.00  0.00    -0.100 A 
ATOM     13  C   LIG    1        1.071   1.969  -0.156  0.00  0.00    +0.060 A 
ATOM     14  C   LIG    1       -0.092   1.224  -0.117  0.00  0.00    -0.010 A 
ATOM     15  C   LIG    1       -1.322   1.864  -0.080  0.00  0.00    +0.120 A 
ATOM     16  C   LIG    1       -1.381   3.250  -0.071  0.00  0.00    -0.080 A 
ATOM     17  C   LIG    1       -0.215   3.990  -0.110  0.00  0.00    +0.050 A 
BRANCH  12  19
ATOM     18  C   LIG    1        3.054   3.827  -1.473  0.00  0.00    +0.040 C 
ATOM     19  C   LIG    1        2.280   4.160  -0.196  0.00  0.00    -0.030 C 
ATOM     20  C   LIG    1        3.140   3.824   1.024  0.00  0.00    +0.040 C 
ATOM     21  C   LIG    1        1.935   5.651  -0.182  0.00  0.00    +0.030 C 
ENDBRANCH  12  19
ENDBRANCH  11  15
ENDBRANCH  10  11
ENDBRANCH   1  10
BRANCH   9  22
ATOM     22  C   LIG    1       -5.015   0.686   2.532  0.00  0.00    +0.370 C 
BRANCH  22  23
ATOM     23  C   LIG    1       -5.670   1.968   2.978  0.00  0.00    -0.110 A 
ATOM     24  C   LIG    1       -5.019   3.174   2.804  0.00  0.00    +0.030 A 
ATOM     25  C   LIG    1       -5.622   4.351   3.209  0.00  0.00    +0.030 A 
ATOM     26  C   LIG    1       -6.872   4.320   3.797  0.00  0.00    +0.050 A 
ATOM     27  C   LIG    1       -7.523   3.114   3.976  0.00  0.00    +0.030 A 
ATOM     28  C   LIG    1       -6.922   1.937   3.567  0.00  0.00    -0.020 A 
ATOM     29 CL   LIG    1       -7.739   0.421   3.791  0.00  0.00    -0.050 Cl
ENDBRANCH  22  23
ENDBRANCH   9  22
TORSDOF 6
