REMARK  Name = ZINCrH000004rjJx.0
REMARK                            x       y       z     vdW  Elec       q    Type
REMARK                         _______ _______ _______ _____ _____    ______ ____
ROOT
ATOM      1  C   LIG    1        1.449   6.353  -0.083  0.00  0.00    -0.670 A 
ATOM      2  C   LIG    1        0.448   5.404  -0.180  0.00  0.00    +0.150 A 
ATOM      3  C   LIG    1        0.770   4.064  -0.254  0.00  0.00    +0.030 A 
ATOM      4  C   LIG    1        2.102   3.669  -0.231  0.00  0.00    +0.200 A 
ATOM      5  C   LIG    1        3.105   4.624  -0.128  0.00  0.00    +0.020 A 
ATOM      6  C   LIG    1        2.776   5.964  -0.059  0.00  0.00    +0.150 A 
ENDROOT
BRANCH   4   7
ATOM      7  N   LIG    1        2.432   2.311  -0.305  0.00  0.00    -0.370 N 
ATOM      8  N   LIG    1        3.410   1.879  -1.208  0.00  0.00    -0.190 NA
ATOM      9  C   LIG    1        3.733   0.617  -1.292  0.00  0.00    +0.330 A 
ATOM     10  C   LIG    1        3.104  -0.337  -0.477  0.00  0.00    -0.010 A 
ATOM     11  C   LIG    1        2.146   0.059   0.411  0.00  0.00    -0.090 A 
ATOM     12 CL   LIG    1        1.357  -1.106   1.429  0.00  0.00    +0.030 Cl
ATOM     13 CL   LIG    1        3.541  -2.012  -0.599  0.00  0.00    +0.010 Cl
ATOM     14  C   LIG    1        1.806   1.423   0.494  0.00  0.00    +0.520 A 
ATOM     15  O   LIG    1        0.953   1.798   1.282  0.00  0.00    -0.480 OA
ENDBRANCH   4   7
BRANCH   1  16
ATOM     16  S   LIG    1        1.033   8.063   0.011  0.00  0.00    +2.690 S 
ATOM     17  O   LIG    1       -0.255   8.195  -0.573  0.00  0.00    -0.940 OA
ATOM     18  O   LIG    1        2.172   8.779  -0.448  0.00  0.00    -0.940 OA
BRANCH  16  19
ATOM     19  N   LIG    1        0.861   8.438   1.615  0.00  0.00    -1.050 N 
ATOM     20  H   LIG    1        0.011   8.770   1.946  0.00  0.00    +0.430 HD
BRANCH  19  28
ATOM     21  C   LIG    1        0.312   7.596   4.276  0.00  0.00    +0.110 C 
ATOM     22  C   LIG    1        1.715   7.867   3.798  0.00  0.00    -0.110 A 
ATOM     23  C   LIG    1        2.781   7.703   4.660  0.00  0.00    +0.070 A 
ATOM     24  C   LIG    1        4.069   7.956   4.226  0.00  0.00    -0.020 A 
ATOM     25  C   LIG    1        4.295   8.370   2.924  0.00  0.00    +0.130 A 
ATOM     26  C   LIG    1        3.231   8.531   2.054  0.00  0.00    -0.040 A 
ATOM     27  F   LIG    1        5.555   8.617   2.502  0.00  0.00    -0.130 F 
ATOM     28  C   LIG    1        1.937   8.277   2.490  0.00  0.00    +0.180 A 
ENDBRANCH  19  28
ENDBRANCH  16  19
ENDBRANCH   1  16
TORSDOF 4
