REMARK  Name = ZINCqH0000008pLC.0
REMARK                            x       y       z     vdW  Elec       q    Type
REMARK                         _______ _______ _______ _____ _____    ______ ____
ROOT
ATOM      1  N   LIG    1       -0.721   1.571  -1.179  0.00  0.00    -0.710 N 
ATOM      2  H   LIG    1       -0.433   2.388  -1.615  0.00  0.00    +0.410 HD
ATOM      3  C   LIG    1       -1.773   0.883  -1.664  0.00  0.00    +0.570 C 
ATOM      4  O   LIG    1       -2.135  -0.141  -1.117  0.00  0.00    -0.520 OA
ENDROOT
BRANCH   3   5
ATOM      5  C   LIG    1       -2.489   1.372  -2.862  0.00  0.00    -0.130 A 
ATOM      6  C   LIG    1       -2.080   2.550  -3.489  0.00  0.00    +0.140 A 
ATOM      7  C   LIG    1       -2.748   2.999  -4.609  0.00  0.00    -0.190 A 
ATOM      8  C   LIG    1       -3.828   2.290  -5.105  0.00  0.00    +0.170 A 
ATOM      9  C   LIG    1       -4.242   1.125  -4.484  0.00  0.00    -0.190 A 
ATOM     10  C   LIG    1       -3.579   0.662  -3.367  0.00  0.00    +0.190 A 
BRANCH   9  11
ATOM     11  C   LIG    1       -5.419   0.359  -5.031  0.00  0.00    +0.510 C 
ATOM     12  F   LIG    1       -5.149  -0.035  -6.346  0.00  0.00    -0.170 F 
ATOM     13  F   LIG    1       -6.555   1.174  -5.012  0.00  0.00    -0.170 F 
ATOM     14  F   LIG    1       -5.644  -0.775  -4.243  0.00  0.00    -0.170 F 
ENDBRANCH   9  11
BRANCH   7  15
ATOM     15  C   LIG    1       -2.305   4.268  -5.292  0.00  0.00    +0.510 C 
ATOM     16  F   LIG    1       -2.597   4.189  -6.658  0.00  0.00    -0.170 F 
ATOM     17  F   LIG    1       -0.927   4.433  -5.118  0.00  0.00    -0.170 F 
ATOM     18  F   LIG    1       -2.980   5.358  -4.733  0.00  0.00    -0.170 F 
ENDBRANCH   7  15
ENDBRANCH   3   5
BRANCH   1  20
ATOM     19  C   LIG    1       -0.729   1.579   1.267  0.00  0.00    +0.060 C 
ATOM     20  C   LIG    1       -0.013   1.086   0.008  0.00  0.00    +0.240 C 
BRANCH  20  21
ATOM     21  C   LIG    1        1.401   1.607  -0.003  0.00  0.00    +0.520 C 
ATOM     22  N   LIG    1        2.245   1.288   0.998  0.00  0.00    -0.720 N 
ATOM     23  H   LIG    1        1.942   0.722   1.726  0.00  0.00    +0.400 HD
ATOM     24  O   LIG    1        1.780   2.315  -0.912  0.00  0.00    -0.530 OA
BRANCH  22  25
ATOM     25  C   LIG    1        3.619   1.795   0.988  0.00  0.00    +0.170 C 
ATOM     26  C   LIG    1        4.335   1.301  -0.271  0.00  0.00    +0.040 C 
ATOM     27  C   LIG    1        4.359   1.288   2.228  0.00  0.00    +0.040 C 
ATOM     28  C   LIG    1        3.599   3.325   0.996  0.00  0.00    +0.050 C 
ENDBRANCH  22  25
ENDBRANCH  20  21
ENDBRANCH   1  20
TORSDOF 6
