REMARK  Name = ZINCrD00000hQ4Yh.0
REMARK                            x       y       z     vdW  Elec       q    Type
REMARK                         _______ _______ _______ _____ _____    ______ ____
ROOT
ATOM      1  C   LIG    1       -2.029  -0.655   1.181  0.00  0.00    +0.600 C 
ATOM      2  N   LIG    1       -1.372  -0.511   0.012  0.00  0.00    -0.730 N 
ATOM      3  H   LIG    1       -1.810  -0.743  -0.822  0.00  0.00    +0.400 HD
ATOM      4  O   LIG    1       -1.480  -0.364   2.226  0.00  0.00    -0.540 OA
ENDROOT
BRANCH   1   7
ATOM      5  C   LIG    1       -3.813  -1.100   3.736  0.00  0.00    +0.170 C 
ATOM      6  C   LIG    1       -4.204  -1.364   2.304  0.00  0.00    +0.160 A 
ATOM      7  C   LIG    1       -3.412  -1.165   1.191  0.00  0.00    -0.310 A 
ATOM      8  C   LIG    1       -4.177  -1.537   0.063  0.00  0.00    +0.270 A 
ATOM      9  N   LIG    1       -5.345  -1.939   0.483  0.00  0.00    -0.290 NA
ATOM     10  N   LIG    1       -5.386  -1.837   1.878  0.00  0.00    -0.350 N 
BRANCH  10  11
ATOM     11  C   LIG    1       -6.526  -2.186   2.729  0.00  0.00    +0.260 C 
ATOM     12  C   LIG    1       -6.917  -3.662   2.509  0.00  0.00    +0.020 C 
ATOM     13  C   LIG    1       -8.464  -3.661   2.598  0.00  0.00    +0.020 C 
ATOM     14  C   LIG    1       -8.847  -2.334   1.896  0.00  0.00    +0.020 C 
ATOM     15  C   LIG    1       -7.752  -1.342   2.340  0.00  0.00    +0.030 C 
ENDBRANCH  10  11
ENDBRANCH   1   7
BRANCH   2  16
ATOM     16  C   LIG    1        0.002  -0.004   0.002  0.00  0.00    +0.290 C 
ATOM     17  C   LIG    1       -0.019   1.526   0.010  0.00  0.00    +0.040 C 
BRANCH  16  18
ATOM     18  C   LIG    1        0.707  -0.490  -1.238  0.00  0.00    -0.010 A 
ATOM     19  C   LIG    1        0.034  -0.532  -2.444  0.00  0.00    -0.010 A 
ATOM     20  C   LIG    1        0.682  -0.973  -3.584  0.00  0.00    +0.170 A 
ATOM     21  C   LIG    1        2.000  -1.382  -3.515  0.00  0.00    -0.700 A 
ATOM     22  C   LIG    1        2.674  -1.345  -2.306  0.00  0.00    +0.190 A 
ATOM     23  F   LIG    1        3.962  -1.746  -2.238  0.00  0.00    -0.120 F 
ATOM     24  C   LIG    1        2.026  -0.899  -1.167  0.00  0.00    -0.010 A 
BRANCH  21  25
ATOM     25  S   LIG    1        2.822  -1.950  -4.966  0.00  0.00    +2.500 S 
ATOM     26  O   LIG    1        1.833  -1.872  -5.983  0.00  0.00    -0.930 OA
ATOM     27  O   LIG    1        3.384  -3.198  -4.585  0.00  0.00    -0.920 OA
ATOM     28  C   LIG    1        4.129  -0.726  -5.255  0.00  0.00    -0.250 C 
ENDBRANCH  21  25
ENDBRANCH  16  18
ENDBRANCH   2  16
TORSDOF 5
