REMARK  Name = ZINCrg00000AyoF6.1
REMARK                            x       y       z     vdW  Elec       q    Type
REMARK                         _______ _______ _______ _____ _____    ______ ____
ROOT
ATOM      1  C   LIG    1       -5.999   2.265  -0.191  0.00  0.00    +0.530 C 
ATOM      2  N   LIG    1       -4.786   1.689  -0.303  0.00  0.00    -0.620 N 
ATOM      3  C   LIG    1       -4.418   0.641  -1.273  0.00  0.00    +0.260 C 
ATOM      4  C   LIG    1       -2.882   0.767  -1.429  0.00  0.00    +0.030 C 
ATOM      5  C   LIG    1       -2.449   1.117   0.020  0.00  0.00    +0.250 C 
ATOM      6  C   LIG    1       -3.610   2.000   0.523  0.00  0.00    +0.250 C 
ATOM      7  O   LIG    1       -6.190   3.120   0.647  0.00  0.00    -0.520 OA
ENDROOT
BRANCH   5   8
ATOM      8  N   LIG    1       -1.191   1.867   0.018  0.00  0.00    -0.720 N 
ATOM      9  H   LIG    1       -1.204   2.837   0.023  0.00  0.00    +0.400 HD
ATOM     10  C   LIG    1       -0.014   1.209   0.009  0.00  0.00    +0.520 C 
ATOM     11  O   LIG    1        0.002  -0.004   0.002  0.00  0.00    -0.510 OA
BRANCH  10  12
ATOM     12  C   LIG    1        1.280   1.980   0.001  0.00  0.00    +0.190 C 
BRANCH  12  13
ATOM     13  C   LIG    1        2.439   1.016  -0.016  0.00  0.00    +0.180 A 
ATOM     14  N   LIG    1        2.656   0.053   0.838  0.00  0.00    -0.260 NA
ATOM     15  N   LIG    1        3.735  -0.571   0.522  0.00  0.00    -0.290 NA
ATOM     16  C   LIG    1        4.256  -0.034  -0.548  0.00  0.00    +0.380 A 
ATOM     17  N   LIG    1        3.445   0.985  -0.923  0.00  0.00    -0.580 N 
ATOM     18  H   LIG    1        3.562   1.575  -1.684  0.00  0.00    +0.430 HD
ENDBRANCH  12  13
ENDBRANCH  10  12
ENDBRANCH   5   8
BRANCH   1  19
ATOM     19  C   LIG    1       -7.119   1.846  -1.109  0.00  0.00    +0.140 C 
BRANCH  19  28
ATOM     20  C   LIG    1       -7.993   7.050  -3.338  0.00  0.00    +0.080 C 
ATOM     21  C   LIG    1       -8.671   6.073  -2.413  0.00  0.00    -0.110 A 
ATOM     22  C   LIG    1       -9.896   6.398  -1.846  0.00  0.00    +0.020 A 
ATOM     23  C   LIG    1      -10.536   5.516  -1.003  0.00  0.00    -0.010 A 
ATOM     24  C   LIG    1       -9.945   4.292  -0.705  0.00  0.00    +0.090 A 
ATOM     25  N   LIG    1      -10.314   3.230   0.089  0.00  0.00    -0.590 N 
ATOM     26  H   LIG    1      -11.131   3.181   0.610  0.00  0.00    +0.420 HD
ATOM     27  C   LIG    1       -9.358   2.253   0.032  0.00  0.00    +0.240 A 
ATOM     28  C   LIG    1       -8.360   2.635  -0.779  0.00  0.00    -0.160 A 
ATOM     29  C   LIG    1       -8.702   3.969  -1.280  0.00  0.00    -0.080 A 
ATOM     30  C   LIG    1       -8.075   4.874  -2.137  0.00  0.00    +0.050 A 
ENDBRANCH  19  28
ENDBRANCH   1  19
TORSDOF 5
