REMARK  Name = ZINCrg00000AyoF6.0
REMARK                            x       y       z     vdW  Elec       q    Type
REMARK                         _______ _______ _______ _____ _____    ______ ____
ROOT
ATOM      1  C   LIG    1       -5.824   1.043   1.755  0.00  0.00    +0.530 C 
ATOM      2  N   LIG    1       -6.884   0.721   0.987  0.00  0.00    -0.620 N 
ATOM      3  C   LIG    1       -7.614   1.642   0.105  0.00  0.00    +0.240 C 
ATOM      4  C   LIG    1       -8.759   0.839  -0.549  0.00  0.00    +0.030 C 
ATOM      5  C   LIG    1       -8.957  -0.346   0.432  0.00  0.00    +0.250 C 
ATOM      6  C   LIG    1       -7.499  -0.616   0.888  0.00  0.00    +0.260 C 
ATOM      7  O   LIG    1       -5.298   0.198   2.447  0.00  0.00    -0.520 OA
ENDROOT
BRANCH   5   8
ATOM      8  N   LIG    1       -9.513  -1.512  -0.259  0.00  0.00    -0.720 N 
ATOM      9  H   LIG    1       -8.921  -2.195  -0.613  0.00  0.00    +0.410 HD
ATOM     10  C   LIG    1      -10.847  -1.637  -0.404  0.00  0.00    +0.530 C 
ATOM     11  O   LIG    1      -11.587  -0.784   0.038  0.00  0.00    -0.520 OA
BRANCH  10  12
ATOM     12  C   LIG    1      -11.419  -2.836  -1.114  0.00  0.00    +0.200 C 
BRANCH  12  13
ATOM     13  C   LIG    1      -12.923  -2.735  -1.140  0.00  0.00    +0.240 A 
ATOM     14  N   LIG    1      -13.629  -2.160  -2.078  0.00  0.00    -0.300 NA
ATOM     15  N   LIG    1      -14.978  -2.293  -1.709  0.00  0.00    -0.480 N 
ATOM     16  H   LIG    1      -15.749  -1.969  -2.199  0.00  0.00    +0.440 HD
ATOM     17  C   LIG    1      -14.987  -2.958  -0.540  0.00  0.00    +0.490 A 
ATOM     18  N   LIG    1      -13.748  -3.221  -0.213  0.00  0.00    -0.540 NA
ENDBRANCH  12  13
ENDBRANCH  10  12
ENDBRANCH   5   8
BRANCH   1  19
ATOM     19  C   LIG    1       -5.294   2.453   1.754  0.00  0.00    +0.140 C 
BRANCH  19  28
ATOM     20  C   LIG    1       -0.013   1.086   0.008  0.00  0.00    +0.080 C 
ATOM     21  C   LIG    1       -0.718   1.572   1.248  0.00  0.00    -0.110 A 
ATOM     22  C   LIG    1        0.009   1.805   2.407  0.00  0.00    +0.020 A 
ATOM     23  C   LIG    1       -0.616   2.250   3.551  0.00  0.00    -0.010 A 
ATOM     24  C   LIG    1       -1.990   2.468   3.548  0.00  0.00    +0.090 A 
ATOM     25  N   LIG    1       -2.884   2.898   4.502  0.00  0.00    -0.590 N 
ATOM     26  H   LIG    1       -2.654   3.136   5.414  0.00  0.00    +0.420 HD
ATOM     27  C   LIG    1       -4.145   2.940   3.973  0.00  0.00    +0.240 A 
ATOM     28  C   LIG    1       -4.116   2.548   2.689  0.00  0.00    -0.160 A 
ATOM     29  C   LIG    1       -2.723   2.230   2.370  0.00  0.00    -0.080 A 
ATOM     30  C   LIG    1       -2.068   1.785   1.220  0.00  0.00    +0.050 A 
ENDBRANCH  19  28
ENDBRANCH   1  19
TORSDOF 5
