REMARK  Name = ZINCvU0000000B2V.0
REMARK                            x       y       z     vdW  Elec       q    Type
REMARK                         _______ _______ _______ _____ _____    ______ ____
ROOT
ATOM      1  C   LIG    1       -2.866   1.540  -0.037  0.00  0.00    +0.290 C 
ATOM      2  C   LIG    1       -3.265   0.055  -0.144  0.00  0.00    +0.110 C 
ATOM      3  C   LIG    1       -4.777   0.084  -0.149  0.00  0.00    +0.170 C 
ATOM      4  N   LIG    1       -5.184   1.303  -0.064  0.00  0.00    -0.270 NA
ATOM      5  N   LIG    1       -4.158   2.243   0.007  0.00  0.00    -0.430 N 
ENDROOT
BRANCH   1  12
ATOM      6  C   LIG    1       -0.013   1.086   0.008  0.00  0.00    +0.090 C 
ATOM      7  C   LIG    1       -0.718   1.572   1.248  0.00  0.00    -0.070 A 
ATOM      8  C   LIG    1        0.001   1.806   2.405  0.00  0.00    +0.000 A 
ATOM      9  C   LIG    1       -0.646   2.252   3.542  0.00  0.00    +0.010 A 
ATOM     10  C   LIG    1       -2.012   2.464   3.522  0.00  0.00    +0.000 A 
ATOM     11  C   LIG    1       -2.731   2.230   2.365  0.00  0.00    +0.020 A 
ATOM     12  C   LIG    1       -2.083   1.789   1.226  0.00  0.00    -0.080 A 
ENDBRANCH   1  12
BRANCH   3  13
ATOM     13  C   LIG    1       -5.650  -1.101  -0.237  0.00  0.00    +0.000 A 
ATOM     14  C   LIG    1       -5.092  -2.379  -0.325  0.00  0.00    -0.010 A 
ATOM     15  C   LIG    1       -5.912  -3.486  -0.407  0.00  0.00    +0.060 A 
ATOM     16  C   LIG    1       -7.286  -3.337  -0.402  0.00  0.00    -0.050 A 
ATOM     17  C   LIG    1       -7.852  -2.070  -0.315  0.00  0.00    +0.210 A 
ATOM     18  C   LIG    1       -7.038  -0.951  -0.226  0.00  0.00    -0.030 A 
BRANCH  17  19
ATOM     19  N   LIG    1       -9.241  -1.925  -0.311  0.00  0.00    -0.640 N 
ATOM     20  C   LIG    1       -9.838  -0.590  -0.219  0.00  0.00    +0.280 C 
ATOM     21  C   LIG    1      -10.102  -3.107  -0.399  0.00  0.00    +0.280 C 
ENDBRANCH  17  19
ENDBRANCH   3  13
BRANCH   5  22
ATOM     22  C   LIG    1       -4.322   3.577   0.102  0.00  0.00    +0.590 C 
ATOM     23  S   LIG    1       -2.955   4.604   0.181  0.00  0.00    -0.600 S 
BRANCH  22  24
ATOM     24  N   LIG    1       -5.563   4.103   0.134  0.00  0.00    -0.670 N 
ATOM     25  H   LIG    1       -6.338   3.521   0.089  0.00  0.00    +0.410 HD
BRANCH  24  26
ATOM     26  C   LIG    1       -5.742   5.553   0.236  0.00  0.00    +0.370 C 
BRANCH  26  27
ATOM     27  C   LIG    1       -7.213   5.878   0.253  0.00  0.00    -0.120 A 
ATOM     28  C   LIG    1       -7.881   6.118  -0.933  0.00  0.00    +0.020 A 
ATOM     29  C   LIG    1       -9.232   6.412  -0.918  0.00  0.00    +0.010 A 
ATOM     30  C   LIG    1       -9.912   6.476   0.284  0.00  0.00    +0.020 A 
ATOM     31  C   LIG    1       -9.243   6.240   1.470  0.00  0.00    +0.010 A 
ATOM     32  C   LIG    1       -7.893   5.942   1.455  0.00  0.00    +0.020 A 
ENDBRANCH  26  27
ENDBRANCH  24  26
ENDBRANCH  22  24
ENDBRANCH   5  22
TORSDOF 7
