REMARK  Name = ZINCqH0000032I1i.0
REMARK                            x       y       z     vdW  Elec       q    Type
REMARK                         _______ _______ _______ _____ _____    ______ ____
ROOT
ATOM      1  N   LIG    1       -0.389   1.287  -1.391  0.00  0.00    -0.740 N 
ATOM      2  H   LIG    1       -1.185   1.810  -1.207  0.00  0.00    +0.400 HD
ATOM      3  C   LIG    1       -0.008   1.064  -2.664  0.00  0.00    +0.710 C 
ATOM      4  N   LIG    1       -0.786   1.478  -3.683  0.00  0.00    -0.630 N 
ATOM      5  C   LIG    1       -2.000   2.266  -3.424  0.00  0.00    +0.270 C 
ATOM      6  C   LIG    1       -3.190   1.579  -4.094  0.00  0.00    +0.060 C 
ATOM      7  C   LIG    1       -2.877   1.347  -5.569  0.00  0.00    -0.040 C 
ATOM      8  C   LIG    1       -4.063   0.741  -6.274  0.00  0.00    -0.130 A 
ATOM      9  C   LIG    1       -4.762  -0.431  -6.136  0.00  0.00    +0.030 A 
ATOM     10  C   LIG    1       -5.838  -0.698  -6.968  0.00  0.00    +0.020 A 
ATOM     11  C   LIG    1       -6.204   0.219  -7.937  0.00  0.00    +0.020 A 
ATOM     12  C   LIG    1       -5.506   1.400  -8.083  0.00  0.00    +0.050 A 
ATOM     13  C   LIG    1       -4.420   1.679  -7.249  0.00  0.00    +0.060 A 
ATOM     14  N   LIG    1       -3.579   2.756  -7.190  0.00  0.00    -0.470 NA
ATOM     15  C   LIG    1       -1.645   0.464  -5.729  0.00  0.00    +0.060 C 
ATOM     16  C   LIG    1       -2.676   2.666  -6.278  0.00  0.00    +0.170 C 
ATOM     17  C   LIG    1       -1.613   3.690  -5.973  0.00  0.00    +0.170 C 
ATOM     18  C   LIG    1       -0.440   1.146  -5.071  0.00  0.00    +0.300 C 
ATOM     19  O   LIG    1        1.038   0.488  -2.894  0.00  0.00    -0.580 OA
ENDROOT
BRANCH   1  20
ATOM     20  C   LIG    1        0.400   0.740  -0.284  0.00  0.00    +0.360 C 
BRANCH  20  25
ATOM     21  C   LIG    1       -1.967   2.312   4.696  0.00  0.00    +0.110 C 
ATOM     22  C   LIG    1       -1.364   1.865   3.389  0.00  0.00    -0.130 A 
ATOM     23  C   LIG    1       -1.686   0.628   2.853  0.00  0.00    +0.060 A 
ATOM     24  C   LIG    1       -1.111   0.261   1.646  0.00  0.00    -0.010 A 
ATOM     25  C   LIG    1       -0.235   1.131   1.026  0.00  0.00    +0.100 A 
ATOM     26  N   LIG    1        0.049   2.300   1.565  0.00  0.00    -0.460 NA
ATOM     27  C   LIG    1       -0.483   2.684   2.709  0.00  0.00    +0.260 A 
ENDBRANCH  20  25
ENDBRANCH   1  20
TORSDOF 2
