REMARK  Name = ZINCkj000005j5lq.1
REMARK                            x       y       z     vdW  Elec       q    Type
REMARK                         _______ _______ _______ _____ _____    ______ ____
ROOT
ATOM      1  N   LIG    1       -6.740  -0.302   1.585  0.00  0.00    -0.380 N 
ATOM      2  C   LIG    1       -6.655   1.163   1.635  0.00  0.00    +0.260 C 
ATOM      3  C   LIG    1       -5.609   1.648   0.626  0.00  0.00    +0.350 C 
ATOM      4  N   LIG    1       -4.340   0.956   0.900  0.00  0.00    -0.640 N 
ATOM      5  C   LIG    1       -4.362  -0.510   1.024  0.00  0.00    +0.310 C 
ATOM      6  C   LIG    1       -3.189   1.645   1.030  0.00  0.00    +0.710 C 
ATOM      7  N   LIG    1       -2.022   0.987   1.181  0.00  0.00    -0.670 N 
ATOM      8  H   LIG    1       -2.004   0.018   1.144  0.00  0.00    +0.410 HD
ATOM      9  O   LIG    1       -3.202   2.861   1.010  0.00  0.00    -0.540 OA
ATOM     10  C   LIG    1       -5.467  -0.892   2.020  0.00  0.00    +0.260 C 
ATOM     11  H   LIG    1       -6.937  -0.594   0.639  0.00  0.00    +0.430 HD
ENDROOT
BRANCH   7  12
ATOM     12  C   LIG    1       -0.838   1.701   1.393  0.00  0.00    +0.180 A 
ATOM     13  C   LIG    1        0.229   1.101   2.049  0.00  0.00    -0.030 A 
ATOM     14  C   LIG    1        1.399   1.806   2.252  0.00  0.00    +0.080 A 
ATOM     15  C   LIG    1        1.508   3.111   1.809  0.00  0.00    -0.030 A 
ATOM     16  C   LIG    1        0.445   3.715   1.159  0.00  0.00    +0.120 A 
ATOM     17  F   LIG    1        0.554   4.991   0.728  0.00  0.00    -0.130 F 
ATOM     18  C   LIG    1       -0.729   3.014   0.953  0.00  0.00    +0.000 A 
ENDBRANCH   7  12
BRANCH   1  20
ATOM     19  C   LIG    1       -9.145  -0.146   2.019  0.00  0.00    +0.100 C 
ATOM     20  C   LIG    1       -7.818  -0.759   2.471  0.00  0.00    +0.180 C 
BRANCH  20  21
ATOM     21  C   LIG    1       -7.915  -2.285   2.412  0.00  0.00    +0.220 C 
BRANCH  21  22
ATOM     22  O   LIG    1       -8.467  -2.679   1.154  0.00  0.00    -0.570 OA
ATOM     23  H   LIG    1       -8.557  -3.635   1.046  0.00  0.00    +0.410 HD
ENDBRANCH  21  22
ENDBRANCH  20  21
ENDBRANCH   1  20
TORSDOF 4
