REMARK  Name = ZINCpk00000xI6bG.0
REMARK                            x       y       z     vdW  Elec       q    Type
REMARK                         _______ _______ _______ _____ _____    ______ ____
ROOT
ATOM      1  N   LIG    1       -0.559   2.794  -1.793  0.00  0.00    -0.390 N 
ATOM      2  C   LIG    1       -0.679   1.552  -1.283  0.00  0.00    +0.290 A 
ATOM      3  N   LIG    1       -1.602   0.894  -1.936  0.00  0.00    -0.490 NA
ATOM      4  C   LIG    1       -2.127   1.673  -2.886  0.00  0.00    +0.320 A 
ATOM      5  N   LIG    1       -3.114   1.490  -3.841  0.00  0.00    -0.510 N 
ATOM      6  C   LIG    1       -3.817   0.208  -3.931  0.00  0.00    +0.340 C 
ATOM      7  C   LIG    1       -3.428   2.489  -4.687  0.00  0.00    +0.710 A 
ATOM      8  O   LIG    1       -4.296   2.311  -5.519  0.00  0.00    -0.530 OA
ATOM      9  N   LIG    1       -2.804   3.679  -4.636  0.00  0.00    -0.550 N 
ATOM     10  C   LIG    1       -3.183   4.733  -5.580  0.00  0.00    +0.340 C 
ATOM     11  C   LIG    1       -1.835   3.917  -3.728  0.00  0.00    +0.590 A 
ATOM     12  O   LIG    1       -1.278   5.000  -3.691  0.00  0.00    -0.500 OA
ATOM     13  C   LIG    1       -1.475   2.897  -2.821  0.00  0.00    -0.150 A 
ENDROOT
BRANCH   1  15
ATOM     14  C   LIG    1        1.292   4.230  -2.496  0.00  0.00    +0.060 C 
ATOM     15  C   LIG    1        0.367   3.835  -1.343  0.00  0.00    +0.240 C 
ATOM     16  C   LIG    1       -0.427   5.060  -0.884  0.00  0.00    +0.050 C 
ENDBRANCH   1  15
BRANCH   2  17
ATOM     17  C   LIG    1        0.133   1.003  -0.138  0.00  0.00    +0.310 C 
BRANCH  17  18
ATOM     18  N   LIG    1       -0.483   1.403   1.134  0.00  0.00    -0.530 NA
ATOM     19  C   LIG    1       -1.936   1.190   1.106  0.00  0.00    +0.170 C 
ATOM     20  C   LIG    1       -2.560   1.750   2.386  0.00  0.00    -0.010 C 
ATOM     21  C   LIG    1       -1.945   1.045   3.599  0.00  0.00    +0.020 C 
ATOM     22  C   LIG    1       -0.427   1.241   3.578  0.00  0.00    -0.010 C 
ATOM     23  C   LIG    1        0.202   0.489   4.753  0.00  0.00    +0.020 C 
ATOM     24  C   LIG    1       -4.071   1.508   2.366  0.00  0.00    +0.010 C 
ATOM     25  C   LIG    1        0.135   0.696   2.263  0.00  0.00    +0.180 C 
ENDBRANCH  17  18
ENDBRANCH   2  17
TORSDOF 3
