REMARK  Name = ZINCvU0000000D8e.1
REMARK                            x       y       z     vdW  Elec       q    Type
REMARK                         _______ _______ _______ _____ _____    ______ ____
ROOT
ATOM      1  C   LIG    1        2.578   4.591  -0.031  0.00  0.00    +0.360 C 
ATOM      2  C   LIG    1        3.765   3.657  -0.045  0.00  0.00    -0.210 C 
ATOM      3  C   LIG    1        4.872   4.434  -0.129  0.00  0.00    +0.110 C 
ATOM      4  C   LIG    1        4.466   5.853  -0.181  0.00  0.00    +0.530 C 
ATOM      5  O   LIG    1        5.230   6.794  -0.262  0.00  0.00    -0.470 OA
ATOM      6  N   LIG    1        3.125   5.950  -0.121  0.00  0.00    -0.500 N 
ENDROOT
BRANCH   1  11
ATOM      7  C   LIG    1       -0.386   3.966   4.890  0.00  0.00    +0.090 C 
ATOM      8  C   LIG    1        0.387   4.129   3.607  0.00  0.00    -0.070 A 
ATOM      9  C   LIG    1       -0.020   3.464   2.465  0.00  0.00    +0.020 A 
ATOM     10  C   LIG    1        0.688   3.614   1.288  0.00  0.00    +0.040 A 
ATOM     11  C   LIG    1        1.805   4.428   1.252  0.00  0.00    -0.100 A 
ATOM     12  C   LIG    1        2.215   5.089   2.395  0.00  0.00    +0.020 A 
ATOM     13  C   LIG    1        1.504   4.943   3.571  0.00  0.00    +0.000 A 
ENDBRANCH   1  11
BRANCH   6  14
ATOM     14  C   LIG    1        2.390   7.128  -0.141  0.00  0.00    +0.250 A 
ATOM     15  N   LIG    1        1.092   7.224  -0.088  0.00  0.00    -0.270 NA
ATOM     16  N   LIG    1        0.590   8.381  -0.112  0.00  0.00    -0.230 NA
ATOM     17  C   LIG    1        1.396   9.390  -0.198  0.00  0.00    +0.020 A 
ATOM     18  S   LIG    1        3.045   8.763  -0.249  0.00  0.00    +0.140 S 
BRANCH  17  19
ATOM     19  C   LIG    1        0.997  10.842  -0.247  0.00  0.00    +0.080 C 
ATOM     20  C   LIG    1        0.228  11.203   1.025  0.00  0.00    +0.060 C 
ATOM     21  C   LIG    1        0.107  11.086  -1.468  0.00  0.00    +0.060 C 
ENDBRANCH  17  19
ENDBRANCH   6  14
BRANCH   3  22
ATOM     22  O   LIG    1        6.146   3.981  -0.164  0.00  0.00    -0.420 OA
ATOM     23  H   LIG    1        6.810   4.681  -0.226  0.00  0.00    +0.420 HD
ENDBRANCH   3  22
BRANCH   2  24
ATOM     24  C   LIG    1        3.727   2.194   0.026  0.00  0.00    +0.480 C 
ATOM     25  O   LIG    1        4.162   1.621   1.008  0.00  0.00    -0.410 OA
BRANCH  24  26
ATOM     26  C   LIG    1        3.160   1.414  -1.094  0.00  0.00    -0.160 A 
ATOM     27  C   LIG    1        2.588   2.070  -2.186  0.00  0.00    +0.080 A 
ATOM     28  C   LIG    1        2.060   1.337  -3.228  0.00  0.00    +0.020 A 
ATOM     29  C   LIG    1        2.098  -0.047  -3.193  0.00  0.00    -0.000 A 
ATOM     30  C   LIG    1        2.664  -0.704  -2.113  0.00  0.00    +0.020 A 
ATOM     31 CL   LIG    1        1.431  -0.963  -4.509  0.00  0.00    -0.050 Cl
ATOM     32  C   LIG    1        3.195   0.018  -1.065  0.00  0.00    +0.110 A 
ENDBRANCH  24  26
ENDBRANCH   2  24
TORSDOF 6
