REMARK  Name = ZINCrg00000yNwLZ.0
REMARK                            x       y       z     vdW  Elec       q    Type
REMARK                         _______ _______ _______ _____ _____    ______ ____
ROOT
ATOM      1  C   LIG    1       -1.068   0.420   2.203  0.00  0.00    +0.300 C 
ATOM      2  N   LIG    1       -0.367   1.409   1.380  0.00  0.00    -0.610 N 
ATOM      3  C   LIG    1       -0.316   2.697   1.773  0.00  0.00    +0.530 C 
ATOM      4  O   LIG    1        0.192   3.530   1.052  0.00  0.00    -0.500 OA
ENDROOT
BRANCH   3   5
ATOM      5  C   LIG    1       -0.889   3.102   3.106  0.00  0.00    +0.150 C 
ATOM      6  C   LIG    1       -2.411   3.260   2.989  0.00  0.00    +0.250 C 
ATOM      7  O   LIG    1       -2.920   3.657   4.267  0.00  0.00    -0.290 OA
ATOM      8  C   LIG    1       -2.254   4.656   4.907  0.00  0.00    +0.080 A 
ATOM      9  C   LIG    1       -2.873   5.327   5.951  0.00  0.00    +0.000 A 
ATOM     10  C   LIG    1       -2.206   6.340   6.617  0.00  0.00    +0.110 A 
ATOM     11  C   LIG    1       -0.919   6.686   6.242  0.00  0.00    +0.010 A 
ATOM     12  C   LIG    1       -0.298   6.020   5.202  0.00  0.00    +0.070 A 
ATOM     13  F   LIG    1       -2.811   6.992   7.634  0.00  0.00    -0.130 F 
ATOM     14  C   LIG    1       -0.962   5.005   4.531  0.00  0.00    +0.040 A 
ATOM     15  O   LIG    1       -0.338   4.361   3.506  0.00  0.00    -0.280 OA
ENDBRANCH   3   5
BRANCH   2  16
ATOM     16  C   LIG    1        0.277   0.997   0.131  0.00  0.00    +0.300 C 
BRANCH  16  17
ATOM     17  C   LIG    1       -0.720   1.121  -1.023  0.00  0.00    +0.250 C 
BRANCH  17  18
ATOM     18  N   LIG    1       -0.076   0.710  -2.272  0.00  0.00    -0.730 N 
ATOM     19  H   LIG    1        0.849   0.418  -2.268  0.00  0.00    +0.400 HD
ATOM     20  C   LIG    1       -0.768   0.737  -3.428  0.00  0.00    +0.500 C 
ATOM     21  O   LIG    1       -1.924   1.102  -3.434  0.00  0.00    -0.500 OA
BRANCH  20  22
ATOM     22  C   LIG    1       -0.105   0.314  -4.714  0.00  0.00    +0.370 C 
BRANCH  22  23
ATOM     23  N   LIG    1       -1.060   0.433  -5.818  0.00  0.00    -0.360 N 
ATOM     24  C   LIG    1       -0.876   1.140  -6.954  0.00  0.00    +0.260 A 
ATOM     25  C   LIG    1       -1.986   0.991  -7.716  0.00  0.00    -0.180 A 
ATOM     26  C   LIG    1       -2.881   0.174  -7.017  0.00  0.00    +0.250 A 
ATOM     27 CL   LIG    1       -2.253   1.696  -9.279  0.00  0.00    -0.040 Cl
ATOM     28  N   LIG    1       -2.327  -0.161  -5.880  0.00  0.00    -0.250 NA
ENDBRANCH  22  23
ENDBRANCH  20  22
ENDBRANCH  17  18
ENDBRANCH  16  17
ENDBRANCH   2  16
TORSDOF 6
