REMARK  Name = ZINCkj00000MwC87.0
REMARK                            x       y       z     vdW  Elec       q    Type
REMARK                         _______ _______ _______ _____ _____    ______ ____
ROOT
ATOM      1  C   LIG    1        0.982   3.608   0.297  0.00  0.00    +0.260 C 
ENDROOT
BRANCH   1   2
ATOM      2  C   LIG    1        1.232   2.108   0.127  0.00  0.00    +0.020 C 
ATOM      3  C   LIG    1        2.071   1.865  -1.132  0.00  0.00    +0.250 C 
ATOM      4  O   LIG    1        2.406   0.476  -1.205  0.00  0.00    -0.360 OA
ATOM      5  C   LIG    1        3.121  -0.005  -0.065  0.00  0.00    +0.260 C 
ATOM      6  O   LIG    1        2.337   0.204   1.112  0.00  0.00    -0.360 OA
ATOM      7  C   LIG    1        3.402  -1.500  -0.232  0.00  0.00    +0.130 C 
ATOM      8  C   LIG    1        4.445   0.751   0.063  0.00  0.00    +0.030 C 
ATOM      9  C   LIG    1        1.997   1.575   1.343  0.00  0.00    +0.240 C 
BRANCH   2  11
ATOM     10  C   LIG    1       -0.846   1.526   1.169  0.00  0.00    +0.230 C 
ATOM     11  O   LIG    1       -0.017   1.425   0.010  0.00  0.00    -0.350 OA
ENDBRANCH   2  11
ENDBRANCH   1   2
BRANCH   1  12
ATOM     12  N   LIG    1        0.253   4.119  -0.872  0.00  0.00    -0.510 N 
ATOM     13  H   LIG    1       -0.630   3.638  -0.955  0.00  0.00    +0.430 HD
ATOM     14  H   LIG    1        0.801   3.962  -1.704  0.00  0.00    +0.430 HD
BRANCH  12  15
ATOM     15  C   LIG    1        0.013   5.559  -0.708  0.00  0.00    +0.380 C 
BRANCH  15  16
ATOM     16  C   LIG    1       -0.734   6.083  -1.908  0.00  0.00    +0.010 A 
ATOM     17  C   LIG    1       -0.180   6.575  -3.041  0.00  0.00    -0.140 A 
ATOM     18  C   LIG    1       -1.219   6.951  -3.899  0.00  0.00    +0.280 A 
ATOM     19  N   LIG    1       -2.356   6.694  -3.303  0.00  0.00    -0.230 NA
ATOM     20 CL   LIG    1        1.518   6.713  -3.371  0.00  0.00    -0.010 Cl
ATOM     21  N   LIG    1       -2.076   6.140  -2.047  0.00  0.00    -0.350 N 
ATOM     22  C   LIG    1       -3.065   5.703  -1.059  0.00  0.00    +0.380 C 
ENDBRANCH  15  16
ENDBRANCH  12  15
ENDBRANCH   1  12
TORSDOF 5
