REMARK  Name = ZINCvU0000000GZa.0
REMARK                            x       y       z     vdW  Elec       q    Type
REMARK                         _______ _______ _______ _____ _____    ______ ____
ROOT
ATOM      1  C   LIG    1       -4.741   0.787   0.026  0.00  0.00    +0.190 A 
ATOM      2  N   LIG    1       -5.385   0.342  -1.015  0.00  0.00    -0.250 NA
ATOM      3  N   LIG    1       -6.415  -0.331  -0.643  0.00  0.00    -0.290 NA
ATOM      4  C   LIG    1       -6.489  -0.343   0.668  0.00  0.00    +0.150 A 
ATOM      5  N   LIG    1       -5.423   0.370   1.136  0.00  0.00    -0.440 N 
ENDROOT
BRANCH   5   6
ATOM      6  C   LIG    1       -5.081   0.634   2.536  0.00  0.00    +0.290 C 
ATOM      7  C   LIG    1       -6.184   0.085   3.442  0.00  0.00    +0.100 C 
BRANCH   6   8
ATOM      8  C   LIG    1       -3.775  -0.040   2.869  0.00  0.00    -0.110 A 
ATOM      9  C   LIG    1       -3.619  -1.395   2.643  0.00  0.00    +0.030 A 
ATOM     10  C   LIG    1       -2.420  -2.012   2.945  0.00  0.00    +0.010 A 
ATOM     11  C   LIG    1       -1.379  -1.277   3.482  0.00  0.00    +0.020 A 
ATOM     12  C   LIG    1       -1.537   0.077   3.713  0.00  0.00    +0.010 A 
ATOM     13  C   LIG    1       -2.735   0.695   3.407  0.00  0.00    +0.020 A 
ENDBRANCH   6   8
ENDBRANCH   5   6
BRANCH   1  14
ATOM     14  C   LIG    1       -3.481   1.614   0.011  0.00  0.00    +0.340 C 
BRANCH  14  15
ATOM     15  O   LIG    1       -2.343   0.749   0.038  0.00  0.00    -0.300 OA
BRANCH  15  19
ATOM     16  C   LIG    1        1.372   2.542   0.002  0.00  0.00    -0.120 A 
ATOM     17  C   LIG    1        1.271   1.163   0.037  0.00  0.00    +0.050 A 
ATOM     18  C   LIG    1        0.028   0.561   0.053  0.00  0.00    -0.010 A 
ATOM     19  C   LIG    1       -1.119   1.340   0.028  0.00  0.00    +0.130 A 
ATOM     20  C   LIG    1       -1.015   2.723  -0.002  0.00  0.00    -0.080 A 
ATOM     21  C   LIG    1        0.230   3.321  -0.017  0.00  0.00    +0.040 A 
BRANCH  16  23
ATOM     22  C   LIG    1        3.188   3.382  -1.463  0.00  0.00    +0.030 C 
ATOM     23  C   LIG    1        2.729   3.196  -0.015  0.00  0.00    +0.060 C 
ENDBRANCH  16  23
ENDBRANCH  15  19
ENDBRANCH  14  15
ENDBRANCH   1  14
BRANCH   4  24
ATOM     24  S   LIG    1       -7.730  -1.131   1.640  0.00  0.00    +0.080 S 
BRANCH  24  25
ATOM     25  C   LIG    1       -8.754  -1.841   0.327  0.00  0.00    +0.050 C 
BRANCH  25  26
ATOM     26  C   LIG    1       -9.912  -2.585   0.939  0.00  0.00    +0.390 C 
ATOM     27  O   LIG    1      -10.033  -2.631   2.140  0.00  0.00    -0.440 OA
BRANCH  26  28
ATOM     28  C   LIG    1      -10.920  -3.271   0.054  0.00  0.00    -0.100 C 
ATOM     29  C   LIG    1      -10.214  -4.326  -0.800  0.00  0.00    +0.060 C 
ATOM     30  C   LIG    1      -11.585  -2.238  -0.858  0.00  0.00    +0.060 C 
ATOM     31  C   LIG    1      -11.985  -3.946   0.921  0.00  0.00    +0.050 C 
ENDBRANCH  26  28
ENDBRANCH  25  26
ENDBRANCH  24  25
ENDBRANCH   4  24
TORSDOF 10
