REMARK  Name = ZINCrH000004q8yt.0
REMARK                            x       y       z     vdW  Elec       q    Type
REMARK                         _______ _______ _______ _____ _____    ______ ____
ROOT
ATOM      1  C   LIG    1        3.150   0.009  -0.027  0.00  0.00    +0.110 C 
ENDROOT
BRANCH   1   2
ATOM      2  C   LIG    1        2.600   1.412  -0.015  0.00  0.00    -0.160 A 
ATOM      3  C   LIG    1        3.312   2.549  -0.016  0.00  0.00    +0.230 A 
ATOM      4  N   LIG    1        2.470   3.628  -0.002  0.00  0.00    -0.590 N 
ATOM      5  H   LIG    1        2.753   4.556  -0.001  0.00  0.00    +0.420 HD
ATOM      6  C   LIG    1        1.161   3.199   0.008  0.00  0.00    +0.100 A 
ATOM      7  C   LIG    1       -0.062   3.860   0.022  0.00  0.00    -0.010 A 
ATOM      8  C   LIG    1       -1.233   3.133   0.030  0.00  0.00    +0.030 A 
ATOM      9  C   LIG    1       -1.204   1.745   0.017  0.00  0.00    -0.020 A 
ATOM     10  C   LIG    1       -0.013   1.076   0.008  0.00  0.00    +0.050 A 
ATOM     11  C   LIG    1        1.185   1.793   0.000  0.00  0.00    -0.100 A 
ENDBRANCH   1   2
BRANCH   1  12
ATOM     12  C   LIG    1        4.007  -0.205   1.194  0.00  0.00    -0.070 A 
ATOM     13  C   LIG    1        5.122   0.585   1.404  0.00  0.00    +0.010 A 
ATOM     14  C   LIG    1        5.905   0.391   2.527  0.00  0.00    +0.000 A 
ATOM     15  C   LIG    1        5.578  -0.598   3.435  0.00  0.00    +0.000 A 
ATOM     16  C   LIG    1        4.465  -1.391   3.223  0.00  0.00    +0.000 A 
ATOM     17  C   LIG    1        3.680  -1.195   2.103  0.00  0.00    +0.000 A 
ENDBRANCH   1  12
BRANCH   1  18
ATOM     18  C   LIG    1        3.996  -0.196  -1.285  0.00  0.00    +0.290 C 
BRANCH  18  20
ATOM     19  C   LIG    1        5.195  -2.007  -2.389  0.00  0.00    +0.600 C 
ATOM     20  N   LIG    1        4.433  -1.592  -1.358  0.00  0.00    -0.720 N 
ATOM     21  H   LIG    1        4.173  -2.219  -0.664  0.00  0.00    +0.400 HD
ATOM     22  O   LIG    1        5.521  -1.222  -3.259  0.00  0.00    -0.550 OA
BRANCH  19  25
ATOM     23  C   LIG    1        6.972  -3.269  -4.660  0.00  0.00    +0.170 C 
ATOM     24  C   LIG    1        6.413  -3.977  -3.453  0.00  0.00    +0.160 A 
ATOM     25  C   LIG    1        5.635  -3.413  -2.462  0.00  0.00    -0.300 A 
ATOM     26  C   LIG    1        5.343  -4.432  -1.529  0.00  0.00    +0.270 A 
ATOM     27  N   LIG    1        5.906  -5.533  -1.945  0.00  0.00    -0.300 NA
ATOM     28  N   LIG    1        6.582  -5.272  -3.142  0.00  0.00    -0.360 N 
ATOM     29  C   LIG    1        7.346  -6.248  -3.924  0.00  0.00    +0.350 C 
ENDBRANCH  19  25
ENDBRANCH  18  20
ENDBRANCH   1  18
TORSDOF 5
