REMARK  Name = ZINCnE000008JhOT.0
REMARK                            x       y       z     vdW  Elec       q    Type
REMARK                         _______ _______ _______ _____ _____    ______ ____
ROOT
ATOM      1  C   LIG    1        0.899   3.178   0.024  0.00  0.00    -0.320 A 
ATOM      2  C   LIG    1        1.133   1.829  -0.015  0.00  0.00    +0.120 A 
ATOM      3  C   LIG    1       -0.015   1.078   0.014  0.00  0.00    +0.000 A 
ATOM      4  C   LIG    1       -1.154   1.781   0.071  0.00  0.00    -0.160 A 
ATOM      5  S   LIG    1       -0.835   3.457   0.100  0.00  0.00    +0.200 S 
ENDROOT
BRANCH   1   7
ATOM      6  O   LIG    1        3.104   3.915   0.073  0.00  0.00    -0.450 OA
ATOM      7  C   LIG    1        1.927   4.219   0.005  0.00  0.00    +0.470 C 
BRANCH   7   8
ATOM      8  C   LIG    1        1.536   5.642  -0.096  0.00  0.00    -0.150 A 
ATOM      9  C   LIG    1        0.327   5.996  -0.696  0.00  0.00    +0.050 A 
ATOM     10  C   LIG    1       -0.034   7.325  -0.782  0.00  0.00    +0.010 A 
ATOM     11  C   LIG    1        0.805   8.307  -0.285  0.00  0.00    +0.040 A 
ATOM     12  C   LIG    1        2.008   7.963   0.307  0.00  0.00    +0.000 A 
ATOM     13  C   LIG    1        2.378   6.638   0.404  0.00  0.00    +0.070 A 
ENDBRANCH   7   8
ENDBRANCH   1   7
BRANCH   4  14
ATOM     14  C   LIG    1       -2.533   1.173   0.106  0.00  0.00    +0.280 C 
BRANCH  14  15
ATOM     15  N   LIG    1       -2.931   0.945   1.502  0.00  0.00    -0.500 NA
ATOM     16  C   LIG    1       -2.633   2.119   2.333  0.00  0.00    +0.130 C 
ATOM     17  C   LIG    1       -2.925   1.794   3.800  0.00  0.00    +0.020 C 
ATOM     18  C   LIG    1       -4.397   1.401   3.947  0.00  0.00    -0.010 C 
ATOM     19  C   LIG    1       -4.693   0.207   3.035  0.00  0.00    +0.040 C 
ATOM     20  C   LIG    1       -4.350   0.578   1.591  0.00  0.00    +0.050 C 
BRANCH  20  21
ATOM     21  C   LIG    1       -4.620  -0.601   0.692  0.00  0.00    +0.500 C 
ATOM     22  O   LIG    1       -5.719  -0.739   0.181  0.00  0.00    -0.700 OA
ATOM     23  O   LIG    1       -3.741  -1.417   0.475  0.00  0.00    -0.680 OA
ENDBRANCH  20  21
ENDBRANCH  14  15
ENDBRANCH   4  14
TORSDOF 5
