REMARK  Name = ZINCpk00000kNRDN.0
REMARK                            x       y       z     vdW  Elec       q    Type
REMARK                         _______ _______ _______ _____ _____    ______ ____
ROOT
ATOM      1  C   LIG    1       -0.450   0.430  -0.310  0.00  0.00    +0.630 C 
ATOM      2  N   LIG    1       -1.576   1.169  -0.253  0.00  0.00    -0.620 N 
ATOM      3  C   LIG    1       -1.692   2.641  -0.131  0.00  0.00    +0.310 C 
ATOM      4  C   LIG    1       -2.866   3.018  -1.059  0.00  0.00    -0.040 C 
ATOM      5  C   LIG    1       -4.278   3.023  -0.470  0.00  0.00    +0.090 C 
ATOM      6  C   LIG    1       -3.715   1.734  -1.169  0.00  0.00    +0.070 C 
ATOM      7  C   LIG    1       -2.978   0.694  -0.304  0.00  0.00    +0.340 C 
ATOM      8  O   LIG    1       -0.521  -0.780  -0.412  0.00  0.00    -0.510 OA
ENDROOT
BRANCH   1  13
ATOM      9  C   LIG    1        3.122   3.922  -0.020  0.00  0.00    +0.240 C 
ATOM     10  C   LIG    1        2.421   2.593  -0.131  0.00  0.00    +0.230 A 
ATOM     11  N   LIG    1        3.011   1.431  -0.229  0.00  0.00    -0.490 NA
ATOM     12  C   LIG    1        2.079   0.476  -0.309  0.00  0.00    +0.090 A 
ATOM     13  C   LIG    1        0.861   1.086  -0.256  0.00  0.00    -0.130 A 
ATOM     14  C   LIG    1        2.330  -1.005  -0.434  0.00  0.00    +0.180 C 
ATOM     15  O   LIG    1        1.096   2.415  -0.151  0.00  0.00    -0.190 OA
ENDBRANCH   1  13
BRANCH   6  16
ATOM     16  N   LIG    1       -4.282   1.290  -2.445  0.00  0.00    -0.690 N 
ATOM     17  H   LIG    1       -4.129   1.809  -3.250  0.00  0.00    +0.410 HD
ATOM     18  C   LIG    1       -5.018   0.163  -2.499  0.00  0.00    +0.490 C 
ATOM     19  O   LIG    1       -5.210  -0.485  -1.492  0.00  0.00    -0.510 OA
BRANCH  18  20
ATOM     20  C   LIG    1       -5.602  -0.294  -3.811  0.00  0.00    +0.120 C 
ATOM     21  C   LIG    1       -6.937   0.414  -4.049  0.00  0.00    +0.090 C 
BRANCH  20  22
ATOM     22  O   LIG    1       -4.699   0.025  -4.872  0.00  0.00    -0.550 OA
ATOM     23  H   LIG    1       -3.765  -0.032  -4.624  0.00  0.00    +0.380 HD
ENDBRANCH  20  22
BRANCH  20  24
ATOM     24  C   LIG    1       -5.827  -1.806  -3.771  0.00  0.00    +0.040 C 
BRANCH  24  25
ATOM     25  C   LIG    1       -4.510  -2.509  -3.436  0.00  0.00    -0.030 C 
ATOM     26  C   LIG    1       -3.533  -2.345  -4.602  0.00  0.00    +0.020 C 
ATOM     27  C   LIG    1       -4.772  -3.997  -3.196  0.00  0.00    +0.030 C 
ENDBRANCH  24  25
ENDBRANCH  20  24
ENDBRANCH  18  20
ENDBRANCH   6  16
TORSDOF 6
