REMARK  Name = ZINC650000003W0T.0
REMARK                            x       y       z     vdW  Elec       q    Type
REMARK                         _______ _______ _______ _____ _____    ______ ____
ROOT
ATOM      1  C   LIG    1        2.059   0.668  -0.014  0.00  0.00    +0.470 A 
ATOM      2  N   LIG    1        1.325   1.756  -0.001  0.00  0.00    -0.370 NA
ATOM      3  N   LIG    1       -0.016   1.339   0.009  0.00  0.00    -0.480 N 
ATOM      4  H   LIG    1       -0.801   1.909   0.016  0.00  0.00    +0.440 HD
ATOM      5  C   LIG    1        0.002  -0.004   0.002  0.00  0.00    +0.510 A 
ATOM      6  N   LIG    1        1.251  -0.396  -0.012  0.00  0.00    -0.580 NA
ENDROOT
BRANCH   1   7
ATOM      7  N   LIG    1        3.454   0.630  -0.028  0.00  0.00    -0.830 N 
ATOM      8  H   LIG    1        3.962   1.456  -0.028  0.00  0.00    +0.410 HD
ATOM      9  H   LIG    1        3.916  -0.224  -0.036  0.00  0.00    +0.420 HD
ENDBRANCH   1   7
TORSDOF 1
