REMARK  Name = ZINCrH000004lFhS.0
REMARK                            x       y       z     vdW  Elec       q    Type
REMARK                         _______ _______ _______ _____ _____    ______ ____
ROOT
ATOM      1  C   LIG    1        0.028   2.978   5.671  0.00  0.00    +0.280 A 
ATOM      2  N   LIG    1        0.524   2.951   6.868  0.00  0.00    -0.500 NA
ATOM      3  C   LIG    1        0.196   3.949   7.678  0.00  0.00    +0.130 A 
ATOM      4  C   LIG    1       -0.621   4.877   7.149  0.00  0.00    -0.110 A 
ATOM      5  S   LIG    1       -0.974   4.415   5.485  0.00  0.00    +0.210 S 
ENDROOT
BRANCH   3   6
ATOM      6  C   LIG    1        0.697   4.035   9.072  0.00  0.00    -0.020 A 
ATOM      7  C   LIG    1        0.244   5.046   9.918  0.00  0.00    +0.020 A 
ATOM      8  C   LIG    1        0.718   5.115  11.210  0.00  0.00    +0.000 A 
ATOM      9  C   LIG    1        1.642   4.188  11.678  0.00  0.00    -0.070 A 
ATOM     10  C   LIG    1        2.119   4.334  13.100  0.00  0.00    +0.080 C 
ATOM     11  C   LIG    1        2.764   3.038  13.586  0.00  0.00    +0.020 C 
ATOM     12  C   LIG    1        3.812   2.603  12.554  0.00  0.00    +0.020 C 
ATOM     13  C   LIG    1        3.084   2.144  11.293  0.00  0.00    +0.070 C 
ATOM     14  C   LIG    1        2.091   3.185  10.846  0.00  0.00    -0.080 A 
ATOM     15  C   LIG    1        1.617   3.106   9.545  0.00  0.00    +0.040 A 
ENDBRANCH   3   6
BRANCH   1  17
ATOM     16  C   LIG    1       -0.316   2.160   3.473  0.00  0.00    +0.520 C 
ATOM     17  N   LIG    1        0.256   2.026   4.686  0.00  0.00    -0.620 N 
ATOM     18  H   LIG    1        0.828   1.264   4.871  0.00  0.00    +0.420 HD
ATOM     19  O   LIG    1       -1.030   3.112   3.241  0.00  0.00    -0.480 OA
BRANCH  16  20
ATOM     20  C   LIG    1       -0.068   1.127   2.404  0.00  0.00    +0.270 C 
BRANCH  20  21
ATOM     21  C   LIG    1       -0.657  -0.192   2.834  0.00  0.00    -0.280 A 
ATOM     22  C   LIG    1        0.007  -1.197   3.451  0.00  0.00    +0.250 A 
ATOM     23  N   LIG    1       -0.871  -2.198   3.669  0.00  0.00    -0.370 N 
ATOM     24  N   LIG    1       -2.114  -1.798   3.161  0.00  0.00    -0.290 NA
ATOM     25  C   LIG    1       -0.576  -3.478   4.317  0.00  0.00    +0.360 C 
ATOM     26  C   LIG    1       -1.984  -0.596   2.661  0.00  0.00    +0.270 A 
ENDBRANCH  20  21
BRANCH  20  28
ATOM     27  C   LIG    1       -0.013   1.086   0.008  0.00  0.00    +0.230 C 
ATOM     28  O   LIG    1       -0.682   1.547   1.184  0.00  0.00    -0.350 OA
ENDBRANCH  20  28
ENDBRANCH  16  20
ENDBRANCH   1  17
TORSDOF 5
