REMARK  Name = ZINCvU0000000HKY.0
REMARK                            x       y       z     vdW  Elec       q    Type
REMARK                         _______ _______ _______ _____ _____    ______ ____
ROOT
ATOM      1  C   LIG    1        2.146   6.780  -2.083  0.00  0.00    +0.290 C 
ENDROOT
BRANCH   1   2
ATOM      2  C   LIG    1        3.117   5.792  -2.675  0.00  0.00    +0.160 A 
ATOM      3  N   LIG    1        3.449   5.681  -3.938  0.00  0.00    -0.280 NA
ATOM      4  N   LIG    1        4.303   4.723  -4.043  0.00  0.00    -0.080 NA
ATOM      5  N   LIG    1        4.529   4.222  -2.878  0.00  0.00    -0.090 NA
ATOM      6  N   LIG    1        3.812   4.851  -2.009  0.00  0.00    -0.300 N 
BRANCH   6   7
ATOM      7  C   LIG    1        3.768   4.593  -0.568  0.00  0.00    +0.400 C 
BRANCH   7   8
ATOM      8  C   LIG    1        2.840   3.437  -0.292  0.00  0.00    -0.120 A 
ATOM      9  C   LIG    1        3.304   2.139  -0.398  0.00  0.00    +0.070 A 
ATOM     10  C   LIG    1        2.453   1.079  -0.146  0.00  0.00    +0.030 A 
ATOM     11  C   LIG    1        1.138   1.316   0.206  0.00  0.00    +0.070 A 
ATOM     12  C   LIG    1        0.675   2.615   0.317  0.00  0.00    -0.090 A 
ATOM     13 BR   LIG    1       -1.122   2.940   0.806  0.00  0.00    -0.040 Br
ATOM     14  C   LIG    1        1.526   3.675   0.065  0.00  0.00    +0.070 A 
ENDBRANCH   7   8
ENDBRANCH   6   7
ENDBRANCH   1   2
BRANCH   1  15
ATOM     15  N   LIG    1        2.539   8.143  -2.467  0.00  0.00    -0.500 NA
BRANCH  15  17
ATOM     16  C   LIG    1        2.310   7.886  -4.892  0.00  0.00    +0.030 C 
ATOM     17  C   LIG    1        3.280   8.139  -3.736  0.00  0.00    +0.160 C 
ENDBRANCH  15  17
BRANCH  15  18
ATOM     18  C   LIG    1        3.321   8.785  -1.403  0.00  0.00    +0.170 C 
ATOM     19  C   LIG    1        4.361   7.798  -0.867  0.00  0.00    -0.010 C 
BRANCH  18  20
ATOM     20  C   LIG    1        2.387   9.208  -0.268  0.00  0.00    +0.200 C 
BRANCH  20  21
ATOM     21  O   LIG    1        1.837   8.046   0.355  0.00  0.00    -0.390 OA
ATOM     22  C   LIG    1        0.874   8.331   1.371  0.00  0.00    +0.210 C 
ENDBRANCH  20  21
ENDBRANCH  18  20
ENDBRANCH  15  18
ENDBRANCH   1  15
BRANCH   1  23
ATOM     23  C   LIG    1        0.738   6.489  -2.606  0.00  0.00    +0.040 C 
BRANCH  23  24
ATOM     24  C   LIG    1       -0.249   7.485  -1.995  0.00  0.00    +0.090 C 
BRANCH  24  25
ATOM     25  C   LIG    1       -1.639   7.185  -2.495  0.00  0.00    -0.070 A 
ATOM     26  C   LIG    1       -2.062   7.692  -3.709  0.00  0.00    +0.020 A 
ATOM     27  C   LIG    1       -3.335   7.412  -4.170  0.00  0.00    +0.030 A 
ATOM     28  C   LIG    1       -4.189   6.635  -3.412  0.00  0.00    +0.010 A 
ATOM     29  C   LIG    1       -3.769   6.132  -2.194  0.00  0.00    -0.030 A 
ATOM     30 CL   LIG    1       -4.842   5.154  -1.241  0.00  0.00    -0.070 Cl
ATOM     31  C   LIG    1       -2.493   6.407  -1.735  0.00  0.00    +0.020 A 
ENDBRANCH  24  25
ENDBRANCH  23  24
ENDBRANCH   1  23
TORSDOF 11
