REMARK  Name = ZINCrD0000071Xk9.0
REMARK                            x       y       z     vdW  Elec       q    Type
REMARK                         _______ _______ _______ _____ _____    ______ ____
ROOT
ATOM      1  C   LIG    1       -0.015   1.210   0.008  0.00  0.00    +0.520 C 
ATOM      2  O   LIG    1        0.088   0.159  -0.592  0.00  0.00    -0.500 OA
ENDROOT
BRANCH   1   3
ATOM      3  C   LIG    1       -1.302   1.930   0.019  0.00  0.00    -0.120 A 
ATOM      4  C   LIG    1       -1.423   3.137   0.714  0.00  0.00    +0.090 A 
ATOM      5  C   LIG    1       -2.625   3.809   0.717  0.00  0.00    +0.010 A 
ATOM      6  C   LIG    1       -3.720   3.284   0.038  0.00  0.00    +0.170 A 
ATOM      7  C   LIG    1       -3.604   2.080  -0.650  0.00  0.00    +0.020 A 
ATOM      8  C   LIG    1       -2.404   1.405  -0.662  0.00  0.00    +0.110 A 
BRANCH   6   9
ATOM      9  N   LIG    1       -4.936   3.964   0.049  0.00  0.00    -0.570 N 
ATOM     10  C   LIG    1       -5.178   4.948  -0.999  0.00  0.00    +0.260 C 
ATOM     11  C   LIG    1       -6.673   5.240  -1.125  0.00  0.00    +0.030 C 
ATOM     12  C   LIG    1       -7.230   5.564   0.266  0.00  0.00    +0.020 C 
ATOM     13  C   LIG    1       -7.170   4.295   1.119  0.00  0.00    +0.070 C 
ATOM     14  C   LIG    1       -5.809   3.670   1.014  0.00  0.00    +0.520 C 
ATOM     15  O   LIG    1       -5.483   2.858   1.854  0.00  0.00    -0.540 OA
ENDBRANCH   6   9
ENDBRANCH   1   3
BRANCH   1  16
ATOM     16  O   LIG    1        1.048   1.720   0.660  0.00  0.00    -0.340 OA
BRANCH  16  17
ATOM     17  C   LIG    1        2.284   0.960   0.602  0.00  0.00    +0.360 C 
BRANCH  17  19
ATOM     18  C   LIG    1        3.624   1.511   2.710  0.00  0.00    -0.200 A 
ATOM     19  C   LIG    1        3.353   1.680   1.383  0.00  0.00    +0.070 A 
ATOM     20  O   LIG    1        4.202   2.589   0.892  0.00  0.00    -0.160 OA
ATOM     21  C   LIG    1        5.026   3.041   1.850  0.00  0.00    +0.200 A 
ATOM     22  C   LIG    1        4.739   2.423   3.005  0.00  0.00    +0.000 A 
BRANCH  18  23
ATOM     23  C   LIG    1        2.943   0.605   3.649  0.00  0.00    +0.540 C 
ATOM     24  O   LIG    1        2.029  -0.097   3.262  0.00  0.00    -0.500 OA
BRANCH  23  25
ATOM     25  O   LIG    1        3.332   0.554   4.938  0.00  0.00    -0.350 OA
BRANCH  25  27
ATOM     26  C   LIG    1        3.193  -0.282   7.222  0.00  0.00    +0.070 C 
ATOM     27  C   LIG    1        2.615  -0.362   5.808  0.00  0.00    +0.200 C 
ENDBRANCH  25  27
ENDBRANCH  23  25
ENDBRANCH  18  23
ENDBRANCH  17  19
ENDBRANCH  16  17
ENDBRANCH   1  16
TORSDOF 8
