REMARK  Name = ZINCqH0000000prf.0
REMARK                            x       y       z     vdW  Elec       q    Type
REMARK                         _______ _______ _______ _____ _____    ______ ____
ROOT
ATOM      1  C   LIG    1       -1.214  -2.053  -0.185  0.00  0.00    +0.520 C 
ATOM      2  N   LIG    1       -1.243  -0.708  -0.104  0.00  0.00    -0.670 N 
ATOM      3  H   LIG    1       -2.091  -0.245  -0.016  0.00  0.00    +0.410 HD
ATOM      4  O   LIG    1       -0.152  -2.637  -0.202  0.00  0.00    -0.480 OA
ENDROOT
BRANCH   1   9
ATOM      5  C   LIG    1       -5.799  -1.590   1.920  0.00  0.00    +0.120 C 
ATOM      6  C   LIG    1       -5.692  -3.000   1.397  0.00  0.00    +0.520 C 
ATOM      7  N   LIG    1       -4.506  -3.468   0.960  0.00  0.00    -0.560 N 
ATOM      8  C   LIG    1       -3.283  -2.654   1.056  0.00  0.00    +0.290 C 
ATOM      9  C   LIG    1       -2.503  -2.831  -0.254  0.00  0.00    +0.170 C 
ATOM     10  O   LIG    1       -2.215  -4.220  -0.435  0.00  0.00    -0.280 OA
ATOM     11  C   LIG    1       -3.240  -5.102  -0.298  0.00  0.00    +0.090 A 
ATOM     12  C   LIG    1       -3.135  -6.367  -0.855  0.00  0.00    +0.020 A 
ATOM     13  C   LIG    1       -4.170  -7.273  -0.716  0.00  0.00    +0.030 A 
ATOM     14  C   LIG    1       -5.313  -6.924  -0.022  0.00  0.00    +0.000 A 
ATOM     15  C   LIG    1       -5.427  -5.664   0.537  0.00  0.00    +0.050 A 
ATOM     16  C   LIG    1       -4.394  -4.752   0.398  0.00  0.00    +0.070 A 
ATOM     17  O   LIG    1       -6.673  -3.712   1.368  0.00  0.00    -0.510 OA
ENDBRANCH   1   9
BRANCH   2  18
ATOM     18  C   LIG    1       -0.050   0.021  -0.147  0.00  0.00    +0.140 A 
ATOM     19  C   LIG    1        1.013  -0.428  -0.920  0.00  0.00    +0.010 A 
ATOM     20  C   LIG    1        2.189   0.294  -0.961  0.00  0.00    +0.030 A 
ATOM     21  C   LIG    1        2.310   1.464  -0.233  0.00  0.00    -0.080 A 
ATOM     22  C   LIG    1        1.254   1.914   0.538  0.00  0.00    +0.030 A 
ATOM     23  C   LIG    1        0.075   1.196   0.583  0.00  0.00    -0.010 A 
BRANCH  21  24
ATOM     24  C   LIG    1        3.595   2.249  -0.280  0.00  0.00    -0.030 C 
ATOM     25  C   LIG    1        3.316   3.654  -0.818  0.00  0.00    +0.040 C 
ATOM     26  C   LIG    1        4.593   1.540  -1.198  0.00  0.00    +0.030 C 
ATOM     27  C   LIG    1        4.182   2.351   1.129  0.00  0.00    +0.040 C 
ENDBRANCH  21  24
ENDBRANCH   2  18
TORSDOF 3
