REMARK  Name = ZINCc70000006lnq.0
REMARK                            x       y       z     vdW  Elec       q    Type
REMARK                         _______ _______ _______ _____ _____    ______ ____
ROOT
ATOM      1  C   LIG    1       -0.018   1.465   0.010  0.00  0.00    +0.210 C 
ATOM      2  N   LIG    1        0.002  -0.004   0.002  0.00  0.00    -0.550 NA
ATOM      3  C   LIG    1       -1.360  -0.549  -0.084  0.00  0.00    +0.190 C 
ATOM      4  C   LIG    1       -1.301  -2.037  -0.451  0.00  0.00    +0.330 C 
ATOM      5  N   LIG    1       -0.351  -2.696   0.452  0.00  0.00    -0.350 N 
ATOM      6  N   LIG    1       -0.211  -4.059   0.705  0.00  0.00    -0.290 NA
ATOM      7  C   LIG    1        0.748  -4.233   1.575  0.00  0.00    +0.290 A 
ATOM      8  C   LIG    1        1.267  -2.958   1.917  0.00  0.00    -0.340 A 
ATOM      9  C   LIG    1        0.555  -2.029   1.193  0.00  0.00    +0.160 A 
ATOM     10  C   LIG    1        0.709  -0.529   1.184  0.00  0.00    +0.300 C 
ENDROOT
BRANCH   8  11
ATOM     11  C   LIG    1        2.355  -2.683   2.861  0.00  0.00    +0.530 C 
ATOM     12  O   LIG    1        2.707  -1.540   3.065  0.00  0.00    -0.480 OA
ENDBRANCH   8  11
TORSDOF 1
