REMARK  Name = ZINCvU0000000HX1.0
REMARK                            x       y       z     vdW  Elec       q    Type
REMARK                         _______ _______ _______ _____ _____    ______ ____
ROOT
ATOM      1  N   LIG    1       -0.011   0.966   0.007  0.00  0.00    -0.680 N 
ATOM      2  H   LIG    1        0.792   1.324   0.415  0.00  0.00    +0.410 HD
ATOM      3  C   LIG    1        0.022  -0.235  -0.605  0.00  0.00    +0.520 C 
ATOM      4  O   LIG    1       -1.000  -0.721  -1.042  0.00  0.00    -0.490 OA
ENDROOT
BRANCH   1   8
ATOM      5  C   LIG    1       -3.570   3.130   0.162  0.00  0.00    -0.060 A 
ATOM      6  C   LIG    1       -3.595   1.736   0.239  0.00  0.00    +0.090 A 
ATOM      7  C   LIG    1       -2.417   1.023   0.187  0.00  0.00    +0.030 A 
ATOM      8  C   LIG    1       -1.204   1.691   0.059  0.00  0.00    +0.170 A 
ATOM      9  C   LIG    1       -1.175   3.079  -0.013  0.00  0.00    +0.000 A 
ATOM     10  C   LIG    1       -2.350   3.797   0.033  0.00  0.00    +0.060 A 
BRANCH   5  17
ATOM     11  C   LIG    1      -10.058   7.286   0.436  0.00  0.00    +0.100 C 
ATOM     12  C   LIG    1       -9.004   6.209   0.413  0.00  0.00    -0.060 A 
ATOM     13  C   LIG    1       -9.373   4.875   0.514  0.00  0.00    +0.030 A 
ATOM     14  C   LIG    1       -8.434   3.890   0.495  0.00  0.00    +0.080 A 
ATOM     15  C   LIG    1       -7.063   4.207   0.372  0.00  0.00    +0.080 A 
ATOM     16  N   LIG    1       -6.007   3.376   0.336  0.00  0.00    -0.460 NA
ATOM     17  C   LIG    1       -4.832   3.897   0.217  0.00  0.00    +0.170 A 
ATOM     18  S   LIG    1       -4.945   5.650   0.139  0.00  0.00    +0.060 S 
ATOM     19  C   LIG    1       -6.699   5.555   0.272  0.00  0.00    -0.170 A 
ATOM     20  C   LIG    1       -7.675   6.549   0.293  0.00  0.00    +0.050 A 
ENDBRANCH   5  17
ENDBRANCH   1   8
BRANCH   3  21
ATOM     21  C   LIG    1        1.328  -0.973  -0.746  0.00  0.00    +0.180 C 
BRANCH  21  22
ATOM     22  C   LIG    1        1.093  -2.278  -1.461  0.00  0.00    +0.100 A 
ATOM     23  C   LIG    1        1.751  -2.623  -2.569  0.00  0.00    -0.130 A 
ATOM     24  S   LIG    1        1.181  -4.211  -3.072  0.00  0.00    +0.250 S 
ATOM     25  C   LIG    1        0.103  -4.256  -1.746  0.00  0.00    +0.240 A 
ATOM     26  N   LIG    1        0.214  -3.171  -1.045  0.00  0.00    -0.490 NA
BRANCH  25  27
ATOM     27  N   LIG    1       -0.767  -5.302  -1.461  0.00  0.00    -0.620 N 
ATOM     28  H   LIG    1       -1.349  -5.252  -0.687  0.00  0.00    +0.430 HD
ATOM     29  C   LIG    1       -0.800  -6.387  -2.260  0.00  0.00    +0.540 C 
ATOM     30  O   LIG    1       -0.072  -6.450  -3.228  0.00  0.00    -0.500 OA
BRANCH  29  31
ATOM     31  C   LIG    1       -1.743  -7.521  -1.952  0.00  0.00    -0.070 C 
ATOM     32  C   LIG    1       -1.129  -8.846  -1.494  0.00  0.00    +0.060 C 
ATOM     33  C   LIG    1       -1.733  -8.725  -2.896  0.00  0.00    +0.080 C 
ENDBRANCH  29  31
ENDBRANCH  25  27
ENDBRANCH  21  22
ENDBRANCH   3  21
TORSDOF 6
