REMARK  Name = ZINCpk00000xVS8f.0
REMARK                            x       y       z     vdW  Elec       q    Type
REMARK                         _______ _______ _______ _____ _____    ______ ____
ROOT
ATOM      1  C   LIG    1       -0.181   0.351  -1.631  0.00  0.00    +0.130 C 
ATOM      2  C   LIG    1       -0.661   0.889  -3.002  0.00  0.00    +0.030 C 
ATOM      3  C   LIG    1       -0.926   2.382  -2.677  0.00  0.00    +0.010 C 
ATOM      4  C   LIG    1       -1.470   2.333  -1.234  0.00  0.00    +0.190 C 
ATOM      5  N   LIG    1       -1.004   1.069  -0.634  0.00  0.00    -0.500 NA
ENDROOT
BRANCH   1  12
ATOM      6  C   LIG    1        2.203  -2.603  -3.986  0.00  0.00    +0.090 C 
ATOM      7  C   LIG    1        1.614  -1.849  -2.822  0.00  0.00    +0.530 C 
ATOM      8  N   LIG    1        0.280  -1.847  -2.626  0.00  0.00    -0.610 N 
ATOM      9  C   LIG    1       -0.713  -2.536  -3.469  0.00  0.00    +0.250 C 
ATOM     10  C   LIG    1       -1.933  -2.761  -2.541  0.00  0.00    +0.030 C 
ATOM     11  C   LIG    1       -1.929  -1.457  -1.699  0.00  0.00    +0.060 C 
ATOM     12  C   LIG    1       -0.424  -1.157  -1.535  0.00  0.00    +0.220 C 
ATOM     13  O   LIG    1        2.340  -1.245  -2.061  0.00  0.00    -0.550 OA
ENDBRANCH   1  12
BRANCH   5  14
ATOM     14  C   LIG    1       -0.242   1.319   0.596  0.00  0.00    +0.200 C 
BRANCH  14  15
ATOM     15  C   LIG    1       -1.192   1.666   1.714  0.00  0.00    +0.510 C 
ATOM     16  N   LIG    1       -0.714   1.937   2.945  0.00  0.00    -0.650 N 
ATOM     17  H   LIG    1        0.243   1.987   3.093  0.00  0.00    +0.400 HD
ATOM     18  O   LIG    1       -2.386   1.702   1.506  0.00  0.00    -0.500 OA
BRANCH  16  19
ATOM     19  C   LIG    1       -1.604   2.148   4.014  0.00  0.00    -0.010 A 
ATOM     20  C   LIG    1       -1.513   1.595   5.251  0.00  0.00    +0.070 A 
ATOM     21  N   LIG    1       -2.561   2.054   5.983  0.00  0.00    -0.370 N 
ATOM     22  N   LIG    1       -3.316   2.905   5.167  0.00  0.00    -0.290 NA
ATOM     23  C   LIG    1       -2.852   1.715   7.378  0.00  0.00    +0.360 C 
ATOM     24  C   LIG    1       -0.443   0.646   5.725  0.00  0.00    +0.140 C 
ATOM     25  C   LIG    1       -2.746   2.962   3.991  0.00  0.00    +0.100 A 
ATOM     26  C   LIG    1       -3.233   3.765   2.812  0.00  0.00    +0.160 C 
ENDBRANCH  16  19
ENDBRANCH  14  15
ENDBRANCH   5  14
TORSDOF 4
