REMARK  Name = ZINCqH0000008AaC.1
REMARK                            x       y       z     vdW  Elec       q    Type
REMARK                         _______ _______ _______ _____ _____    ______ ____
ROOT
ATOM      1  N   LIG    1       -2.124   1.115   1.254  0.00  0.00    -0.520 NA
ATOM      2  C   LIG    1       -0.678   1.360   1.348  0.00  0.00    +0.170 C 
ATOM      3  C   LIG    1        0.004   0.889   0.061  0.00  0.00    +0.030 C 
ATOM      4  C   LIG    1       -0.585   1.647  -1.131  0.00  0.00    -0.020 C 
ATOM      5  C   LIG    1       -2.098   1.414  -1.177  0.00  0.00    +0.030 C 
ATOM      6  C   LIG    1       -2.720   1.870   0.144  0.00  0.00    +0.170 C 
ENDROOT
BRANCH   1   7
ATOM      7  C   LIG    1       -2.794   1.427   2.523  0.00  0.00    +0.200 C 
BRANCH   7  10
ATOM      8  N   LIG    1       -5.062   1.209   3.486  0.00  0.00    -0.720 N 
ATOM      9  H   LIG    1       -4.759   1.738   4.241  0.00  0.00    +0.400 HD
ATOM     10  C   LIG    1       -4.214   0.923   2.478  0.00  0.00    +0.510 C 
ATOM     11  O   LIG    1       -4.594   0.262   1.535  0.00  0.00    -0.520 OA
BRANCH   8  18
ATOM     12  C   LIG    1       -7.279   3.055   3.738  0.00  0.00    +0.020 C 
ATOM     13  C   LIG    1       -7.333   1.630   4.291  0.00  0.00    -0.010 C 
ATOM     14  C   LIG    1       -6.836   1.625   5.738  0.00  0.00    +0.010 C 
ATOM     15  C   LIG    1       -6.889   0.200   6.291  0.00  0.00    +0.000 C 
ATOM     16  C   LIG    1       -5.999  -0.710   5.443  0.00  0.00    +0.000 C 
ATOM     17  C   LIG    1       -6.496  -0.706   3.996  0.00  0.00    +0.010 C 
ATOM     18  C   LIG    1       -6.442   0.720   3.443  0.00  0.00    +0.240 C 
ENDBRANCH   8  18
ENDBRANCH   7  10
ENDBRANCH   1   7
BRANCH   4  19
ATOM     19  C   LIG    1        0.050   1.137  -2.426  0.00  0.00    +0.020 C 
BRANCH  19  20
ATOM     20  C   LIG    1       -0.446   1.979  -3.604  0.00  0.00    +0.070 C 
BRANCH  20  21
ATOM     21  C   LIG    1        0.181   1.477  -4.879  0.00  0.00    -0.090 A 
ATOM     22  C   LIG    1        1.382   2.006  -5.313  0.00  0.00    +0.030 A 
ATOM     23  C   LIG    1        1.961   1.543  -6.479  0.00  0.00    -0.010 A 
ATOM     24  C   LIG    1        1.330   0.556  -7.221  0.00  0.00    +0.100 A 
ATOM     25  C   LIG    1        0.121   0.031  -6.786  0.00  0.00    -0.010 A 
ATOM     26  C   LIG    1       -0.450   0.492  -5.617  0.00  0.00    +0.030 A 
BRANCH  24  27
ATOM     27  O   LIG    1        1.894   0.103  -8.371  0.00  0.00    -0.500 OA
ATOM     28  H   LIG    1        1.624   0.593  -9.161  0.00  0.00    +0.390 HD
ENDBRANCH  24  27
ENDBRANCH  20  21
ENDBRANCH  19  20
ENDBRANCH   4  19
TORSDOF 7
