REMARK  Name = ZINCqH0000005j0T.0
REMARK                            x       y       z     vdW  Elec       q    Type
REMARK                         _______ _______ _______ _____ _____    ______ ____
ROOT
ATOM      1  C   LIG    1        4.751   5.755   2.465  0.00  0.00    +0.280 C 
ATOM      2  N   LIG    1        5.825   5.315   1.571  0.00  0.00    -0.600 N 
ATOM      3  C   LIG    1        7.100   5.300   2.005  0.00  0.00    +0.560 C 
ATOM      4  O   LIG    1        7.981   4.862   1.291  0.00  0.00    -0.500 OA
ENDROOT
BRANCH   3   5
ATOM      5  C   LIG    1        7.428   5.816   3.350  0.00  0.00    -0.070 A 
ATOM      6  C   LIG    1        6.694   5.397   4.461  0.00  0.00    +0.080 A 
ATOM      7  C   LIG    1        7.010   5.879   5.715  0.00  0.00    +0.120 A 
ATOM      8  C   LIG    1        8.044   6.784   5.872  0.00  0.00    -0.020 A 
ATOM      9  C   LIG    1        8.773   7.209   4.776  0.00  0.00    +0.120 A 
ATOM     10  C   LIG    1        8.472   6.731   3.516  0.00  0.00    +0.000 A 
ATOM     11 CL   LIG    1        9.387   7.266   2.141  0.00  0.00    -0.010 Cl
BRANCH   8  12
ATOM     12  N   LIG    1        8.371   7.301   7.220  0.00  0.00    +0.020 N 
ATOM     13  O   LIG    1        7.731   6.929   8.187  0.00  0.00    -0.140 OA
ATOM     14  O   LIG    1        9.281   8.099   7.362  0.00  0.00    -0.140 OA
ENDBRANCH   8  12
ENDBRANCH   3   5
BRANCH   2  15
ATOM     15  C   LIG    1        5.512   4.891   0.204  0.00  0.00    +0.390 C 
BRANCH  15  16
ATOM     16  C   LIG    1        5.234   3.410   0.188  0.00  0.00    -0.250 A 
ATOM     17  C   LIG    1        4.027   2.825   0.362  0.00  0.00    +0.250 A 
ATOM     18  N   LIG    1        4.202   1.486   0.278  0.00  0.00    -0.320 N 
ATOM     19  N   LIG    1        5.563   1.244   0.050  0.00  0.00    -0.290 NA
ATOM     20  C   LIG    1        6.179   2.397  -0.009  0.00  0.00    +0.270 A 
BRANCH  18  21
ATOM     21  C   LIG    1        3.201   0.513   0.402  0.00  0.00    +0.160 A 
ATOM     22  C   LIG    1        1.886   0.894   0.635  0.00  0.00    -0.010 A 
ATOM     23  C   LIG    1        0.902  -0.067   0.758  0.00  0.00    +0.040 A 
ATOM     24  C   LIG    1        1.225  -1.407   0.649  0.00  0.00    +0.000 A 
ATOM     25  C   LIG    1        2.533  -1.790   0.417  0.00  0.00    +0.040 A 
ATOM     26  C   LIG    1        3.522  -0.833   0.294  0.00  0.00    +0.020 A 
ENDBRANCH  18  21
ENDBRANCH  15  16
ENDBRANCH   2  15
TORSDOF 5
