REMARK  Name = ZINCvU00000009lm.0
REMARK                            x       y       z     vdW  Elec       q    Type
REMARK                         _______ _______ _______ _____ _____    ______ ____
ROOT
ATOM      1  C   LIG    1        8.050   1.089   1.603  0.00  0.00    +0.290 A 
ATOM      2  N   LIG    1        7.736   1.078   0.329  0.00  0.00    -0.270 NA
ATOM      3  N   LIG    1        6.461   0.998   0.190  0.00  0.00    -0.280 NA
ATOM      4  C   LIG    1        5.879   0.962   1.366  0.00  0.00    +0.160 A 
ATOM      5  N   LIG    1        6.870   1.014   2.310  0.00  0.00    -0.410 N 
ENDROOT
BRANCH   1   8
ATOM      6  C   LIG    1       10.732   1.257  -0.012  0.00  0.00    +0.200 C 
ATOM      7  C   LIG    1       10.586   1.239   1.488  0.00  0.00    +0.070 A 
ATOM      8  C   LIG    1        9.412   1.166   2.172  0.00  0.00    -0.140 A 
ATOM      9  C   LIG    1        9.780   1.186   3.594  0.00  0.00    -0.040 A 
ATOM     10  C   LIG    1       11.120   1.258   3.630  0.00  0.00    +0.180 A 
ATOM     11  O   LIG    1       11.591   1.294   2.374  0.00  0.00    -0.170 OA
ENDBRANCH   1   8
BRANCH   5  12
ATOM     12  C   LIG    1        6.716   0.997   3.703  0.00  0.00    +0.100 A 
ATOM     13  C   LIG    1        7.085   2.102   4.458  0.00  0.00    +0.030 A 
ATOM     14  C   LIG    1        6.927   2.083   5.830  0.00  0.00    +0.030 A 
ATOM     15  C   LIG    1        6.412   0.961   6.453  0.00  0.00    +0.040 A 
ATOM     16  C   LIG    1        6.049  -0.143   5.704  0.00  0.00    +0.040 A 
ATOM     17  C   LIG    1        6.199  -0.128   4.331  0.00  0.00    +0.030 A 
ENDBRANCH   5  12
BRANCH   4  18
ATOM     18  S   LIG    1        4.147   0.858   1.673  0.00  0.00    +0.060 S 
BRANCH  18  19
ATOM     19  C   LIG    1        3.528   0.833  -0.028  0.00  0.00    +0.260 C 
BRANCH  19  20
ATOM     20  C   LIG    1        2.023   0.744  -0.013  0.00  0.00    +0.170 A 
ATOM     21  N   LIG    1        1.193   1.749   0.000  0.00  0.00    -0.250 NA
ATOM     22  N   LIG    1       -0.016   1.308   0.009  0.00  0.00    -0.270 NA
ATOM     23  C   LIG    1        0.002  -0.004   0.002  0.00  0.00    +0.220 A 
ATOM     24  O   LIG    1        1.295  -0.386  -0.012  0.00  0.00    -0.190 OA
BRANCH  23  25
ATOM     25  C   LIG    1       -1.176  -0.897   0.008  0.00  0.00    -0.020 A 
ATOM     26  C   LIG    1       -2.463  -0.359   0.023  0.00  0.00    +0.100 A 
ATOM     27  C   LIG    1       -3.559  -1.198   0.029  0.00  0.00    +0.030 A 
ATOM     28  C   LIG    1       -3.384  -2.570   0.020  0.00  0.00    +0.060 A 
ATOM     29  C   LIG    1       -2.111  -3.111   0.005  0.00  0.00    +0.040 A 
ATOM     30  C   LIG    1       -1.006  -2.283  -0.007  0.00  0.00    -0.010 A 
ATOM     31 CL   LIG    1        0.591  -2.964  -0.034  0.00  0.00    -0.040 Cl
ENDBRANCH  23  25
ENDBRANCH  19  20
ENDBRANCH  18  19
ENDBRANCH   4  18
TORSDOF 6
