REMARK  Name = ZINCrD000000Cd9F.0
REMARK                            x       y       z     vdW  Elec       q    Type
REMARK                         _______ _______ _______ _____ _____    ______ ____
ROOT
ATOM      1  O   LIG    1       -1.020  -2.408   0.090  0.00  0.00    -0.520 OA
ATOM      2  C   LIG    1        0.064  -2.950  -0.014  0.00  0.00    +0.570 C 
ATOM      3  N   LIG    1        0.140  -4.291  -0.123  0.00  0.00    -0.640 N 
ATOM      4  H   LIG    1        1.004  -4.723  -0.207  0.00  0.00    +0.410 HD
ENDROOT
BRANCH   2   5
ATOM      5  C   LIG    1        1.296  -2.139  -0.021  0.00  0.00    -0.110 A 
ATOM      6  C   LIG    1        2.544  -2.747  -0.019  0.00  0.00    +0.090 A 
ATOM      7  C   LIG    1        3.703  -1.980  -0.026  0.00  0.00    -0.110 A 
ATOM      8  C   LIG    1        3.664  -0.619  -0.035  0.00  0.00    +0.110 A 
ATOM      9  C   LIG    1        2.435   0.062  -0.037  0.00  0.00    -0.060 A 
ATOM     10  C   LIG    1        2.378   1.466  -0.046  0.00  0.00    +0.030 A 
ATOM     11  C   LIG    1        1.168   2.091  -0.047  0.00  0.00    +0.020 A 
ATOM     12  C   LIG    1       -0.017   1.359  -0.040  0.00  0.00    +0.030 A 
ATOM     13  C   LIG    1        0.002  -0.004  -0.032  0.00  0.00    +0.060 A 
ATOM     14 BR   LIG    1        5.382  -2.852  -0.023  0.00  0.00    -0.040 Br
ATOM     15  C   LIG    1        1.228  -0.679  -0.031  0.00  0.00    -0.000 A 
ENDBRANCH   2   5
BRANCH   3  16
ATOM     16  C   LIG    1       -1.035  -5.064  -0.117  0.00  0.00    -0.000 A 
ATOM     17  C   LIG    1       -1.104  -6.416  -0.224  0.00  0.00    +0.210 A 
ATOM     18  N   LIG    1       -2.415  -6.766  -0.171  0.00  0.00    -0.370 N 
ATOM     19  N   LIG    1       -3.168  -5.592  -0.037  0.00  0.00    -0.280 NA
ATOM     20  C   LIG    1       -2.345  -4.576  -0.004  0.00  0.00    +0.270 A 
BRANCH  18  21
ATOM     21  C   LIG    1       -2.948  -8.128  -0.248  0.00  0.00    +0.340 C 
BRANCH  21  22
ATOM     22  C   LIG    1       -3.836  -8.398   0.969  0.00  0.00    +0.170 C 
BRANCH  22  23
ATOM     23  N   LIG    1       -4.370  -9.764   0.893  0.00  0.00    -0.540 NA
ATOM     24  C   LIG    1       -5.292  -9.906  -0.243  0.00  0.00    +0.150 C 
ATOM     25  C   LIG    1       -5.778 -11.356  -0.321  0.00  0.00    +0.220 C 
ATOM     26  O   LIG    1       -6.389 -11.716   0.921  0.00  0.00    -0.380 OA
ATOM     27  C   LIG    1       -5.518 -11.590   2.049  0.00  0.00    +0.220 C 
ATOM     28  C   LIG    1       -5.030 -10.143   2.151  0.00  0.00    +0.160 C 
ENDBRANCH  22  23
ENDBRANCH  21  22
ENDBRANCH  18  21
ENDBRANCH   3  16
TORSDOF 5
