REMARK  Name = ZINCpe000000Yntc.1
REMARK                            x       y       z     vdW  Elec       q    Type
REMARK                         _______ _______ _______ _____ _____    ______ ____
ROOT
ATOM      1  N   LIG    1       -1.141   2.116   0.019  0.00  0.00    -0.450 N 
ATOM      2  C   LIG    1       -1.112   3.046   1.157  0.00  0.00    +0.200 C 
ATOM      3  C   LIG    1       -2.273   4.038   1.032  0.00  0.00    +0.300 C 
ATOM      4  N   LIG    1       -3.523   3.277   0.882  0.00  0.00    -0.610 N 
ATOM      5  C   LIG    1       -3.582   2.231  -0.150  0.00  0.00    +0.300 C 
ATOM      6  C   LIG    1       -4.587   3.533   1.669  0.00  0.00    +0.490 C 
ATOM      7  O   LIG    1       -5.609   2.896   1.532  0.00  0.00    -0.530 OA
ATOM      8  C   LIG    1       -2.369   1.310   0.021  0.00  0.00    +0.230 C 
ENDROOT
BRANCH   1  14
ATOM      9  C   LIG    1        1.768   3.108   0.002  0.00  0.00    +0.340 C 
ATOM     10  N   LIG    1        1.283   1.726  -0.001  0.00  0.00    -0.490 N 
ATOM     11  C   LIG    1        2.039   0.586  -0.014  0.00  0.00    +0.370 A 
ATOM     12  N   LIG    1        1.217  -0.424  -0.012  0.00  0.00    -0.280 NA
ATOM     13  N   LIG    1        0.002  -0.004   0.002  0.00  0.00    -0.320 NA
ATOM     14  C   LIG    1       -0.016   1.308   0.009  0.00  0.00    +0.360 A 
ENDBRANCH   1  14
BRANCH   6  15
ATOM     15  C   LIG    1       -4.505   4.610   2.720  0.00  0.00    +0.190 C 
BRANCH  15  16
ATOM     16  N   LIG    1       -5.861   5.026   3.102  0.00  0.00    -0.810 NA
ATOM     17  H   LIG    1       -6.386   4.249   3.475  0.00  0.00    +0.350 HD
ATOM     18  H   LIG    1       -6.343   5.446   2.322  0.00  0.00    +0.350 HD
ENDBRANCH  15  16
BRANCH  15  19
ATOM     19  C   LIG    1       -3.773   4.068   3.950  0.00  0.00    +0.100 C 
BRANCH  19  20
ATOM     20  C   LIG    1       -3.583   5.178   4.951  0.00  0.00    -0.090 A 
ATOM     21  C   LIG    1       -4.433   5.285   6.035  0.00  0.00    +0.080 A 
ATOM     22  C   LIG    1       -4.259   6.302   6.954  0.00  0.00    +0.030 A 
ATOM     23  C   LIG    1       -3.234   7.215   6.791  0.00  0.00    +0.050 A 
ATOM     24  C   LIG    1       -2.381   7.111   5.707  0.00  0.00    -0.070 A 
ATOM     25 CL   LIG    1       -1.094   8.258   5.501  0.00  0.00    -0.050 Cl
ATOM     26  C   LIG    1       -2.552   6.088   4.788  0.00  0.00    +0.110 A 
ATOM     27  F   LIG    1       -1.717   5.982   3.732  0.00  0.00    -0.130 F 
ENDBRANCH  19  20
ENDBRANCH  15  19
ENDBRANCH   6  15
TORSDOF 5
