REMARK  Name = ZINCrD000006fiMF.0
REMARK                            x       y       z     vdW  Elec       q    Type
REMARK                         _______ _______ _______ _____ _____    ______ ____
ROOT
ATOM      1  C   LIG    1        3.140  -0.548   1.594  0.00  0.00    +0.570 C 
ATOM      2  N   LIG    1        2.293   0.043   0.728  0.00  0.00    -0.610 N 
ATOM      3  C   LIG    1        1.364  -0.755  -0.087  0.00  0.00    +0.240 C 
ATOM      4  C   LIG    1        1.505  -0.317  -1.549  0.00  0.00    +0.220 C 
ATOM      5  O   LIG    1        1.363   1.103  -1.631  0.00  0.00    -0.370 OA
ATOM      6  C   LIG    1        2.366   1.834  -0.923  0.00  0.00    +0.200 C 
ATOM      7  C   LIG    1        2.269   1.506   0.572  0.00  0.00    +0.280 C 
ATOM      8  O   LIG    1        3.972   0.117   2.180  0.00  0.00    -0.530 OA
ENDROOT
BRANCH   6   9
ATOM      9  C   LIG    1        2.153   3.311  -1.129  0.00  0.00    -0.070 A 
ATOM     10  C   LIG    1        3.239   4.146  -1.318  0.00  0.00    +0.060 A 
ATOM     11  C   LIG    1        3.045   5.501  -1.508  0.00  0.00    +0.030 A 
ATOM     12  C   LIG    1        1.764   6.024  -1.508  0.00  0.00    +0.070 A 
ATOM     13  C   LIG    1        0.675   5.187  -1.319  0.00  0.00    +0.070 A 
ATOM     14  F   LIG    1       -0.577   5.695  -1.319  0.00  0.00    -0.130 F 
ATOM     15  F   LIG    1        1.575   7.349  -1.694  0.00  0.00    -0.130 F 
ATOM     16  C   LIG    1        0.871   3.830  -1.135  0.00  0.00    +0.050 A 
ENDBRANCH   6   9
BRANCH   1  20
ATOM     17  C   LIG    1        2.906  -4.734   2.271  0.00  0.00    +0.170 A 
ATOM     18  C   LIG    1        4.132  -4.083   2.367  0.00  0.00    +0.020 A 
ATOM     19  C   LIG    1        4.211  -2.726   2.148  0.00  0.00    +0.100 A 
ATOM     20  C   LIG    1        3.059  -2.003   1.829  0.00  0.00    -0.150 A 
ATOM     21  C   LIG    1        1.828  -2.659   1.739  0.00  0.00    +0.060 A 
ATOM     22  C   LIG    1        1.757  -4.017   1.953  0.00  0.00    -0.010 A 
BRANCH  17  24
ATOM     23  C   LIG    1        3.617  -6.686   3.420  0.00  0.00    +0.540 C 
ATOM     24  N   LIG    1        2.829  -6.108   2.492  0.00  0.00    -0.670 N 
ATOM     25  H   LIG    1        2.208  -6.648   1.978  0.00  0.00    +0.420 HD
ATOM     26  O   LIG    1        4.454  -6.025   4.004  0.00  0.00    -0.520 OA
BRANCH  23  28
ATOM     27  C   LIG    1        4.243  -8.687   4.642  0.00  0.00    +0.160 C 
ATOM     28  C   LIG    1        3.465  -8.116   3.726  0.00  0.00    -0.090 C 
ENDBRANCH  23  28
ENDBRANCH  17  24
ENDBRANCH   1  20
TORSDOF 4
