REMARK  Name = ZINCqH00000332rx.0
REMARK                            x       y       z     vdW  Elec       q    Type
REMARK                         _______ _______ _______ _____ _____    ______ ____
ROOT
ATOM      1  C   LIG    1       -2.109   2.299   3.470  0.00  0.00    +0.560 C 
ATOM      2  N   LIG    1       -2.608   2.755   4.636  0.00  0.00    -0.650 N 
ATOM      3  H   LIG    1       -2.236   2.446   5.477  0.00  0.00    +0.420 HD
ATOM      4  O   LIG    1       -2.643   2.602   2.420  0.00  0.00    -0.490 OA
ENDROOT
BRANCH   2   5
ATOM      5  C   LIG    1       -3.659   3.671   4.634  0.00  0.00    +0.330 A 
ATOM      6  C   LIG    1       -4.610   3.806   5.599  0.00  0.00    -0.220 A 
ATOM      7  C   LIG    1       -5.471   4.835   5.209  0.00  0.00    -0.000 A 
ATOM      8  N   LIG    1       -5.060   5.302   4.058  0.00  0.00    -0.230 NA
ATOM      9  C   LIG    1       -4.714   2.992   6.863  0.00  0.00    +0.130 C 
ATOM     10  N   LIG    1       -3.916   4.590   3.675  0.00  0.00    -0.340 N 
ATOM     11  C   LIG    1       -3.138   4.801   2.452  0.00  0.00    +0.380 C 
BRANCH   7  12
ATOM     12  C   LIG    1       -6.670   5.323   5.981  0.00  0.00    +0.560 C 
ATOM     13  F   LIG    1       -7.208   4.266   6.723  0.00  0.00    -0.160 F 
ATOM     14  F   LIG    1       -7.634   5.806   5.090  0.00  0.00    -0.170 F 
ATOM     15  F   LIG    1       -6.279   6.349   6.848  0.00  0.00    -0.170 F 
ENDBRANCH   7  12
ENDBRANCH   2   5
BRANCH   1  21
ATOM     16  C   LIG    1       -0.395   0.958   2.254  0.00  0.00    +0.240 A 
ATOM     17  C   LIG    1        0.722   0.141   2.261  0.00  0.00    -0.110 A 
ATOM     18  C   LIG    1        1.329  -0.195   3.462  0.00  0.00    +0.210 A 
ATOM     19  C   LIG    1        0.813   0.277   4.665  0.00  0.00    -0.110 A 
ATOM     20  C   LIG    1       -0.300   1.085   4.672  0.00  0.00    +0.140 A 
ATOM     21  C   LIG    1       -0.917   1.434   3.467  0.00  0.00    -0.220 A 
BRANCH  18  22
ATOM     22  O   LIG    1        2.428  -0.991   3.465  0.00  0.00    -0.310 OA
ATOM     23  C   LIG    1        3.001  -1.303   4.736  0.00  0.00    +0.250 C 
ENDBRANCH  18  22
BRANCH  16  24
ATOM     24  O   LIG    1       -0.987   1.292   1.080  0.00  0.00    -0.280 OA
BRANCH  24  25
ATOM     25  C   LIG    1       -0.401   0.770  -0.114  0.00  0.00    +0.190 C 
BRANCH  25  27
ATOM     26  C   LIG    1       -0.571   0.692  -2.605  0.00  0.00    +0.040 C 
ATOM     27  C   LIG    1       -1.200   1.251  -1.327  0.00  0.00    +0.040 C 
ENDBRANCH  25  27
ENDBRANCH  24  25
ENDBRANCH  16  24
ENDBRANCH   1  21
TORSDOF 7
