REMARK  Name = ZINCAx0000000k40.0
REMARK                            x       y       z     vdW  Elec       q    Type
REMARK                         _______ _______ _______ _____ _____    ______ ____
ROOT
ATOM      1  C   LIG    1        1.121   3.561   0.011  0.00  0.00    -0.190 A 
ATOM      2  C   LIG    1       -0.099   4.245   0.020  0.00  0.00    +0.080 A 
ATOM      3  C   LIG    1       -0.114   5.616   0.033  0.00  0.00    -0.030 A 
ATOM      4  C   LIG    1        1.083   6.327   0.026  0.00  0.00    +0.250 A 
ATOM      5  C   LIG    1        2.300   5.649   0.011  0.00  0.00    -0.070 A 
ATOM      6  C   LIG    1        2.322   4.278   0.003  0.00  0.00    +0.130 A 
ENDROOT
BRANCH   1   9
ATOM      7  N   LIG    1       -0.017   1.397   0.010  0.00  0.00    -0.580 N 
ATOM      8  H   LIG    1       -0.864   1.870   0.016  0.00  0.00    +0.380 HD
ATOM      9  C   LIG    1        1.141   2.087   0.002  0.00  0.00    +0.580 C 
ATOM     10  O   LIG    1        2.203   1.493  -0.011  0.00  0.00    -0.510 OA
BRANCH   7  12
ATOM     11  C   LIG    1       -1.113  -0.668   0.009  0.00  0.00    +0.240 C 
ATOM     12  N   LIG    1        0.002  -0.004   0.002  0.00  0.00    -0.240 NA
BRANCH  11  16
ATOM     13  C   LIG    1       -1.056  -4.913  -0.016  0.00  0.00    +0.230 A 
ATOM     14  C   LIG    1       -2.271  -4.236   0.001  0.00  0.00    -0.070 A 
ATOM     15  C   LIG    1       -2.293  -2.859   0.009  0.00  0.00    +0.090 A 
ATOM     16  C   LIG    1       -1.093  -2.142   0.001  0.00  0.00    -0.120 A 
ATOM     17  C   LIG    1        0.126  -2.826  -0.020  0.00  0.00    +0.110 A 
ATOM     18  C   LIG    1        0.140  -4.204  -0.023  0.00  0.00    -0.090 A 
BRANCH  13  20
ATOM     19  C   LIG    1       -2.295  -7.058  -0.016  0.00  0.00    +0.290 C 
ATOM     20  N   LIG    1       -1.037  -6.308  -0.024  0.00  0.00    -0.620 N 
BRANCH  20  21
ATOM     21  C   LIG    1        0.242  -7.023  -0.041  0.00  0.00    +0.290 C 
BRANCH  21  22
ATOM     22  C   LIG    1        0.701  -7.281   1.395  0.00  0.00    +0.150 C 
BRANCH  22  23
ATOM     23  O   LIG    1       -0.219  -8.166   2.038  0.00  0.00    -0.570 OA
ATOM     24  H   LIG    1        0.011  -8.374   2.954  0.00  0.00    +0.380 HD
ENDBRANCH  22  23
ENDBRANCH  21  22
ENDBRANCH  20  21
ENDBRANCH  13  20
ENDBRANCH  11  16
ENDBRANCH   7  12
ENDBRANCH   1   9
BRANCH   4  25
ATOM     25  N   LIG    1        1.065   7.716   0.034  0.00  0.00    -0.580 N 
ATOM     26  H   LIG    1        1.898   8.213   0.028  0.00  0.00    +0.390 HD
BRANCH  25  27
ATOM     27  N   LIG    1       -0.158   8.400   0.049  0.00  0.00    -0.250 NA
ATOM     28  C   LIG    1       -0.176   9.698   0.056  0.00  0.00    +0.230 C 
BRANCH  28  29
ATOM     29  C   LIG    1       -1.462  10.418   0.072  0.00  0.00    -0.120 A 
ATOM     30  C   LIG    1       -2.664   9.705   0.074  0.00  0.00    +0.100 A 
ATOM     31  C   LIG    1       -3.864  10.381   0.094  0.00  0.00    -0.090 A 
ATOM     32  C   LIG    1       -3.881  11.771   0.101  0.00  0.00    +0.230 A 
ATOM     33  C   LIG    1       -2.687  12.485   0.095  0.00  0.00    -0.070 A 
ATOM     34  C   LIG    1       -1.483  11.816   0.080  0.00  0.00    +0.090 A 
BRANCH  32  35
ATOM     35  N   LIG    1       -5.099  12.452   0.116  0.00  0.00    -0.620 N 
ATOM     36  C   LIG    1       -5.119  13.917   0.124  0.00  0.00    +0.290 C 
BRANCH  35  37
ATOM     37  C   LIG    1       -6.357  11.703   0.123  0.00  0.00    +0.290 C 
BRANCH  37  38
ATOM     38  C   LIG    1       -6.783  11.434   1.567  0.00  0.00    +0.150 C 
BRANCH  38  39
ATOM     39  O   LIG    1       -7.077  12.673   2.216  0.00  0.00    -0.570 OA
ATOM     40  H   LIG    1       -7.354  12.579   3.137  0.00  0.00    +0.380 HD
ENDBRANCH  38  39
ENDBRANCH  37  38
ENDBRANCH  35  37
ENDBRANCH  32  35
ENDBRANCH  28  29
ENDBRANCH  25  27
ENDBRANCH   4  25
TORSDOF 14
