REMARK  Name = ZINCvU00000008cc.0
REMARK                            x       y       z     vdW  Elec       q    Type
REMARK                         _______ _______ _______ _____ _____    ______ ____
ROOT
ATOM      1  C   LIG    1        0.421   5.555  -0.952  0.00  0.00    +0.570 A 
ATOM      2  N   LIG    1        1.484   6.258  -0.612  0.00  0.00    -0.550 NA
ATOM      3  C   LIG    1        2.558   5.654  -0.085  0.00  0.00    +0.210 A 
ATOM      4  C   LIG    1        3.704   6.372   0.286  0.00  0.00    +0.050 A 
ATOM      5  C   LIG    1        4.770   5.709   0.817  0.00  0.00    +0.090 A 
ATOM      6  C   LIG    1        4.740   4.328   0.998  0.00  0.00    -0.050 A 
ATOM      7  C   LIG    1        3.640   3.599   0.647  0.00  0.00    +0.090 A 
ATOM      8 CL   LIG    1        6.119   3.522   1.678  0.00  0.00    -0.060 Cl
ATOM      9  C   LIG    1        2.527   4.250   0.105  0.00  0.00    -0.180 A 
ATOM     10  C   LIG    1        1.359   3.545  -0.284  0.00  0.00    +0.320 A 
ATOM     11  N   LIG    1        0.350   4.236  -0.796  0.00  0.00    -0.550 NA
ENDROOT
BRANCH  10  12
ATOM     12  C   LIG    1        1.267   2.078  -0.117  0.00  0.00    -0.070 A 
ATOM     13  C   LIG    1        1.729   1.475   1.054  0.00  0.00    +0.040 A 
ATOM     14  C   LIG    1        1.640   0.107   1.204  0.00  0.00    +0.010 A 
ATOM     15  C   LIG    1        1.093  -0.668   0.196  0.00  0.00    +0.030 A 
ATOM     16  C   LIG    1        0.634  -0.077  -0.967  0.00  0.00    +0.010 A 
ATOM     17  C   LIG    1        0.718   1.290  -1.130  0.00  0.00    +0.060 A 
ENDBRANCH  10  12
BRANCH   1  18
ATOM     18  N   LIG    1       -0.668   6.219  -1.492  0.00  0.00    -0.630 N 
ATOM     19  H   LIG    1       -1.439   5.716  -1.799  0.00  0.00    +0.430 HD
BRANCH  18  23
ATOM     20  C   LIG    1       -0.632  10.370  -1.803  0.00  0.00    -0.150 A 
ATOM     21  C   LIG    1       -0.028   9.745  -0.709  0.00  0.00    +0.100 A 
ATOM     22  C   LIG    1       -0.042   8.372  -0.609  0.00  0.00    +0.020 A 
ATOM     23  C   LIG    1       -0.656   7.607  -1.596  0.00  0.00    +0.190 A 
ATOM     24  C   LIG    1       -1.253   8.227  -2.690  0.00  0.00    -0.030 A 
ATOM     25  C   LIG    1       -1.248   9.599  -2.793  0.00  0.00    +0.060 A 
BRANCH  20  27
ATOM     26  O   LIG    1       -0.205  12.517  -0.991  0.00  0.00    -0.540 OA
ATOM     27  C   LIG    1       -0.619  11.842  -1.913  0.00  0.00    +0.580 C 
ATOM     28  N   LIG    1       -1.067  12.437  -3.036  0.00  0.00    -0.620 N 
ATOM     29  C   LIG    1       -1.686  11.753  -4.181  0.00  0.00    +0.250 C 
ATOM     30  C   LIG    1       -2.015  12.830  -5.236  0.00  0.00    +0.030 C 
ATOM     31  C   LIG    1       -1.042  13.981  -4.868  0.00  0.00    +0.040 C 
ATOM     32  C   LIG    1       -1.012  13.882  -3.323  0.00  0.00    +0.250 C 
ENDBRANCH  20  27
ENDBRANCH  18  23
ENDBRANCH   1  18
TORSDOF 4
