REMARK  Name = ZINCqH0000004HrY.0
REMARK                            x       y       z     vdW  Elec       q    Type
REMARK                         _______ _______ _______ _____ _____    ______ ____
ROOT
ATOM      1  C   LIG    1       -1.083   7.428   0.065  0.00  0.00    +0.040 C 
ENDROOT
BRANCH   1   4
ATOM      2  N   LIG    1       -0.068   5.182   0.277  0.00  0.00    -0.670 N 
ATOM      3  H   LIG    1        0.758   5.614   0.547  0.00  0.00    +0.410 HD
ATOM      4  C   LIG    1       -1.165   5.924   0.029  0.00  0.00    +0.520 C 
ATOM      5  O   LIG    1       -2.220   5.380  -0.223  0.00  0.00    -0.510 OA
BRANCH   2  12
ATOM      6  C   LIG    1        0.765   3.139  -0.707  0.00  0.00    -0.090 A 
ATOM      7  C   LIG    1        0.711   1.766  -0.836  0.00  0.00    +0.020 A 
ATOM      8  C   LIG    1       -0.221   1.038  -0.119  0.00  0.00    +0.020 A 
ATOM      9  C   LIG    1       -1.106   1.683   0.725  0.00  0.00    +0.010 A 
ATOM     10  C   LIG    1       -1.054   3.057   0.863  0.00  0.00    -0.070 A 
ATOM     11  C   LIG    1       -2.014   3.759   1.788  0.00  0.00    +0.090 C 
ATOM     12  C   LIG    1       -0.119   3.790   0.144  0.00  0.00    +0.130 A 
BRANCH   6  14
ATOM     13  C   LIG    1        3.019   4.168  -0.622  0.00  0.00    +0.020 C 
ATOM     14  C   LIG    1        1.781   3.932  -1.488  0.00  0.00    +0.060 C 
ENDBRANCH   6  14
ENDBRANCH   2  12
ENDBRANCH   1   4
BRANCH   1  15
ATOM     15  C   LIG    1       -2.457   8.022  -0.249  0.00  0.00    +0.350 C 
BRANCH  15  16
ATOM     16  N   LIG    1       -2.377   9.485  -0.215  0.00  0.00    -0.540 N 
ATOM     17  C   LIG    1       -2.086  10.283  -1.260  0.00  0.00    +0.680 A 
ATOM     18  N   LIG    1       -2.099  11.570  -0.865  0.00  0.00    -0.540 N 
ATOM     19  C   LIG    1       -2.412  11.609   0.492  0.00  0.00    +0.090 A 
ATOM     20  C   LIG    1       -2.561  12.642   1.404  0.00  0.00    +0.030 A 
ATOM     21  C   LIG    1       -2.898  12.360   2.714  0.00  0.00    +0.020 A 
ATOM     22  C   LIG    1       -3.074  11.049   3.122  0.00  0.00    +0.020 A 
ATOM     23  C   LIG    1       -2.923  10.013   2.221  0.00  0.00    +0.030 A 
ATOM     24  O   LIG    1       -1.847   9.899  -2.389  0.00  0.00    -0.550 OA
ATOM     25  C   LIG    1       -2.593  10.287   0.903  0.00  0.00    +0.090 A 
BRANCH  18  26
ATOM     26  C   LIG    1       -1.832  12.731  -1.717  0.00  0.00    +0.310 C 
ATOM     27  C   LIG    1       -3.141  13.219  -2.339  0.00  0.00    +0.030 C 
ENDBRANCH  18  26
ENDBRANCH  15  16
ENDBRANCH   1  15
TORSDOF 6
