REMARK  Name = ZINCpe000000Yhyx.0
REMARK                            x       y       z     vdW  Elec       q    Type
REMARK                         _______ _______ _______ _____ _____    ______ ____
ROOT
ATOM      1  N   LIG    1        0.384   0.919  -0.662  0.00  0.00    -0.460 N 
ATOM      2  C   LIG    1       -0.414   1.486  -1.758  0.00  0.00    +0.180 C 
ATOM      3  C   LIG    1       -0.705   2.961  -1.463  0.00  0.00    +0.270 C 
ATOM      4  N   LIG    1        0.570   3.646  -1.203  0.00  0.00    -0.630 N 
ATOM      5  C   LIG    1        1.486   3.059  -0.213  0.00  0.00    +0.310 C 
ATOM      6  C   LIG    1        0.891   4.782  -1.854  0.00  0.00    +0.710 C 
ATOM      7  N   LIG    1        0.086   5.250  -2.829  0.00  0.00    -0.740 N 
ATOM      8  H   LIG    1       -0.760   4.812  -3.012  0.00  0.00    +0.410 HD
ATOM      9  O   LIG    1        1.906   5.384  -1.563  0.00  0.00    -0.590 OA
ATOM     10  C   LIG    1        1.691   1.580  -0.557  0.00  0.00    +0.190 C 
ENDROOT
BRANCH   1  14
ATOM     11  C   LIG    1       -0.625  -3.872  -1.222  0.00  0.00    +0.360 C 
ATOM     12  N   LIG    1        0.092  -2.605  -1.063  0.00  0.00    -0.370 N 
ATOM     13  C   LIG    1       -0.473  -1.375  -0.939  0.00  0.00    +0.220 A 
ATOM     14  C   LIG    1        0.533  -0.473  -0.814  0.00  0.00    -0.050 A 
ATOM     15  C   LIG    1        1.747  -1.172  -0.869  0.00  0.00    +0.200 A 
ATOM     16  N   LIG    1        1.483  -2.446  -1.013  0.00  0.00    -0.280 NA
ENDBRANCH   1  14
BRANCH   7  17
ATOM     17  C   LIG    1        0.489   6.421  -3.612  0.00  0.00    +0.330 C 
BRANCH  17  18
ATOM     18  C   LIG    1       -0.578   6.737  -4.628  0.00  0.00    +0.510 C 
ATOM     19  N   LIG    1       -0.423   7.781  -5.466  0.00  0.00    -0.670 N 
ATOM     20  H   LIG    1        0.406   8.283  -5.466  0.00  0.00    +0.420 HD
ATOM     21  O   LIG    1       -1.577   6.051  -4.692  0.00  0.00    -0.520 OA
BRANCH  19  22
ATOM     22  C   LIG    1       -1.458   8.140  -6.336  0.00  0.00    +0.140 A 
ATOM     23  C   LIG    1       -1.165   8.672  -7.585  0.00  0.00    -0.010 A 
ATOM     24  C   LIG    1       -2.189   9.020  -8.443  0.00  0.00    +0.030 A 
ATOM     25  C   LIG    1       -3.506   8.850  -8.056  0.00  0.00    -0.010 A 
ATOM     26  C   LIG    1       -3.801   8.325  -6.811  0.00  0.00    +0.030 A 
ATOM     27  C   LIG    1       -2.782   7.970  -5.951  0.00  0.00    +0.010 A 
ENDBRANCH  19  22
ENDBRANCH  17  18
ENDBRANCH   7  17
TORSDOF 4
