REMARK  Name = ZINCkj000005lXfH.0
REMARK                            x       y       z     vdW  Elec       q    Type
REMARK                         _______ _______ _______ _____ _____    ______ ____
ROOT
ATOM      1  O   LIG    1        0.002  -0.004   0.002  0.00  0.00    -0.510 OA
ATOM      2  C   LIG    1       -0.014   1.211   0.009  0.00  0.00    +0.590 C 
ATOM      3  N   LIG    1       -1.191   1.869   0.018  0.00  0.00    -0.690 N 
ATOM      4  H   LIG    1       -1.204   2.838   0.023  0.00  0.00    +0.420 HD
ENDROOT
BRANCH   2   5
ATOM      5  C   LIG    1        1.260   1.970   0.001  0.00  0.00    +0.140 A 
ATOM      6  N   LIG    1        1.224   3.289   0.008  0.00  0.00    -0.440 NA
ATOM      7  C   LIG    1        2.344   4.007   0.002  0.00  0.00    +0.170 A 
ATOM      8  C   LIG    1        2.326   5.417   0.009  0.00  0.00    -0.130 A 
ATOM      9  C   LIG    1        3.512   6.087   0.001  0.00  0.00    +0.320 A 
ATOM     10  N   LIG    1        4.676   5.454  -0.013  0.00  0.00    -0.470 NA
ATOM     11  C   LIG    1        4.771   4.144  -0.021  0.00  0.00    +0.360 A 
ATOM     12 BR   LIG    1        0.687   6.359   0.029  0.00  0.00    -0.010 Br
ATOM     13  C   LIG    1        3.608   3.359  -0.013  0.00  0.00    -0.150 A 
ATOM     14  C   LIG    1        3.657   1.954  -0.021  0.00  0.00    +0.150 A 
ATOM     15  C   LIG    1        2.475   1.269  -0.009  0.00  0.00    +0.030 A 
ENDBRANCH   2   5
BRANCH   3  16
ATOM     16  C   LIG    1       -2.449   1.119   0.020  0.00  0.00    +0.300 C 
ATOM     17  C   LIG    1       -3.681   1.811   0.607  0.00  0.00    -0.050 C 
ATOM     18  C   LIG    1       -4.874   0.931   1.038  0.00  0.00    +0.320 C 
ATOM     19  N   LIG    1       -5.690   0.777  -0.194  0.00  0.00    -0.520 N 
ATOM     20  C   LIG    1       -4.688   0.612  -1.278  0.00  0.00    +0.320 C 
ATOM     21  H   LIG    1       -6.251   1.601  -0.351  0.00  0.00    +0.430 HD
ATOM     22  H   LIG    1       -6.277  -0.042  -0.128  0.00  0.00    +0.440 HD
ATOM     23  C   LIG    1       -3.559   1.603  -0.915  0.00  0.00    -0.050 C 
ENDBRANCH   3  16
TORSDOF 2
