REMARK  Name = ZINCrD00000hQ4m6.0
REMARK                            x       y       z     vdW  Elec       q    Type
REMARK                         _______ _______ _______ _____ _____    ______ ____
ROOT
ATOM      1  C   LIG    1       -2.231   1.867   0.765  0.00  0.00    +0.270 C 
ATOM      2  C   LIG    1       -2.281   1.493  -0.731  0.00  0.00    +0.020 C 
ATOM      3  C   LIG    1       -0.812   1.624  -1.205  0.00  0.00    +0.020 C 
ATOM      4  C   LIG    1       -0.013   1.086   0.008  0.00  0.00    +0.030 C 
ATOM      5  C   LIG    1       -0.786   1.609   1.236  0.00  0.00    +0.030 C 
ENDROOT
BRANCH   1   8
ATOM      6  N   LIG    1       -4.170   4.958   1.218  0.00  0.00    -0.630 N 
ATOM      7  C   LIG    1       -3.858   3.657   1.057  0.00  0.00    +0.710 C 
ATOM      8  N   LIG    1       -2.569   3.282   0.940  0.00  0.00    -0.740 N 
ATOM      9  H   LIG    1       -1.865   3.949   0.971  0.00  0.00    +0.390 HD
ATOM     10  O   LIG    1       -4.741   2.821   1.018  0.00  0.00    -0.570 OA
ATOM     11  C   LIG    1       -3.107   5.965   1.265  0.00  0.00    +0.270 C 
BRANCH   6  12
ATOM     12  C   LIG    1       -5.571   5.366   1.346  0.00  0.00    +0.420 C 
BRANCH  12  16
ATOM     13  C   LIG    1       -6.547   6.705   6.073  0.00  0.00    +0.370 C 
ATOM     14  N   LIG    1       -6.391   5.926   4.842  0.00  0.00    -0.300 N 
ATOM     15  C   LIG    1       -5.955   6.402   3.653  0.00  0.00    +0.150 A 
ATOM     16  C   LIG    1       -5.968   5.351   2.799  0.00  0.00    -0.040 A 
ATOM     17  N   LIG    1       -6.397   4.297   3.501  0.00  0.00    -0.240 NA
ATOM     18  N   LIG    1       -6.639   4.670   4.708  0.00  0.00    -0.090 NA
ENDBRANCH  12  16
ENDBRANCH   6  12
ENDBRANCH   1   8
BRANCH   5  19
ATOM     19  C   LIG    1       -0.775   0.574   2.332  0.00  0.00    -0.070 A 
ATOM     20  C   LIG    1       -1.297  -0.685   2.099  0.00  0.00    +0.050 A 
ATOM     21  C   LIG    1       -1.287  -1.634   3.104  0.00  0.00    +0.030 A 
ATOM     22  C   LIG    1       -0.754  -1.325   4.341  0.00  0.00    +0.070 A 
ATOM     23  C   LIG    1       -0.232  -0.067   4.574  0.00  0.00    -0.180 A 
ATOM     24  C   LIG    1       -0.237   0.881   3.568  0.00  0.00    +0.060 A 
BRANCH  23  25
ATOM     25  C   LIG    1        0.350   0.270   5.923  0.00  0.00    +0.510 C 
ATOM     26  F   LIG    1       -0.355   1.343   6.480  0.00  0.00    -0.180 F 
ATOM     27  F   LIG    1        1.696   0.622   5.776  0.00  0.00    -0.180 F 
ATOM     28  F   LIG    1        0.248  -0.842   6.766  0.00  0.00    -0.180 F 
ENDBRANCH  23  25
ENDBRANCH   5  19
TORSDOF 5
