REMARK  Name = ZINCrH00000No4Um.0
REMARK                            x       y       z     vdW  Elec       q    Type
REMARK                         _______ _______ _______ _____ _____    ______ ____
ROOT
ATOM      1  C   LIG    1        1.088   2.002   0.408  0.00  0.00    -0.090 C 
ATOM      2  C   LIG    1        1.589   2.001   1.675  0.00  0.00    +0.100 C 
ENDROOT
BRANCH   1   9
ATOM      3  C   LIG    1        6.277   2.350  -2.864  0.00  0.00    +0.650 C 
ATOM      4  N   LIG    1        5.278   1.922  -2.066  0.00  0.00    -0.600 N 
ATOM      5  C   LIG    1        4.747   0.558  -2.200  0.00  0.00    +0.300 C 
ATOM      6  C   LIG    1        3.233   0.641  -2.424  0.00  0.00    +0.290 C 
ATOM      7  N   LIG    1        2.655   1.530  -1.406  0.00  0.00    -0.610 N 
ATOM      8  C   LIG    1        3.182   2.895  -1.277  0.00  0.00    +0.270 C 
ATOM      9  C   LIG    1        1.656   1.101  -0.609  0.00  0.00    +0.570 C 
ATOM     10  O   LIG    1        1.224  -0.029  -0.730  0.00  0.00    -0.520 OA
ATOM     11  C   LIG    1        4.700   2.810  -1.048  0.00  0.00    +0.290 C 
ATOM     12  O   LIG    1        6.746   1.607  -3.702  0.00  0.00    -0.570 OA
BRANCH   3  13
ATOM     13  O   LIG    1        6.754   3.602  -2.732  0.00  0.00    -0.370 OA
BRANCH  13  15
ATOM     14  C   LIG    1        8.236   5.440  -3.327  0.00  0.00    +0.070 C 
ATOM     15  C   LIG    1        7.829   3.996  -3.624  0.00  0.00    +0.220 C 
ENDBRANCH  13  15
ENDBRANCH   3  13
ENDBRANCH   1   9
BRANCH   2  16
ATOM     16  C   LIG    1        0.919   2.772   2.730  0.00  0.00    -0.080 A 
ATOM     17  C   LIG    1        1.674   3.402   3.727  0.00  0.00    +0.070 A 
ATOM     18  C   LIG    1        1.039   4.128   4.712  0.00  0.00    -0.020 A 
ATOM     19  C   LIG    1       -0.345   4.226   4.722  0.00  0.00    +0.110 A 
ATOM     20  C   LIG    1       -1.099   3.600   3.740  0.00  0.00    -0.020 A 
ATOM     21  F   LIG    1       -0.961   4.934   5.693  0.00  0.00    -0.140 F 
ATOM     22  C   LIG    1       -0.477   2.876   2.747  0.00  0.00    +0.070 A 
ENDBRANCH   2  16
BRANCH   1  23
ATOM     23  C   LIG    1       -0.023   2.905   0.055  0.00  0.00    -0.150 A 
ATOM     24  C   LIG    1       -0.083   4.221   0.351  0.00  0.00    +0.030 A 
ATOM     25  C   LIG    1       -1.224   4.859  -0.088  0.00  0.00    +0.010 A 
ATOM     26  C   LIG    1       -2.099   4.077  -0.729  0.00  0.00    -0.040 A 
ATOM     27  S   LIG    1       -1.481   2.433  -0.809  0.00  0.00    +0.130 S 
ENDBRANCH   1  23
TORSDOF 5
