REMARK  Name = ZINCqH0000007Ocp.0
REMARK                            x       y       z     vdW  Elec       q    Type
REMARK                         _______ _______ _______ _____ _____    ______ ____
ROOT
ATOM      1  C   LIG    1       -2.139   2.362   3.679  0.00  0.00    -0.020 C 
ATOM      2  C   LIG    1       -0.938   1.681   4.341  0.00  0.00    +0.000 C 
ATOM      3  C   LIG    1       -0.404   2.581   5.459  0.00  0.00    +0.210 C 
ATOM      4  O   LIG    1       -1.447   2.841   6.400  0.00  0.00    -0.380 OA
ATOM      5  C   LIG    1       -2.576   3.520   5.846  0.00  0.00    +0.210 C 
ATOM      6  C   LIG    1       -3.199   2.658   4.745  0.00  0.00    +0.030 C 
ENDROOT
BRANCH   1  12
ATOM      7  C   LIG    1       -3.847   1.839   1.918  0.00  0.00    +0.140 A 
ATOM      8  C   LIG    1       -4.376   1.000   0.949  0.00  0.00    -0.070 A 
ATOM      9  C   LIG    1       -3.785  -0.224   0.699  0.00  0.00    +0.040 A 
ATOM     10  C   LIG    1       -2.667  -0.612   1.413  0.00  0.00    -0.020 A 
ATOM     11  C   LIG    1       -2.137   0.224   2.380  0.00  0.00    +0.040 A 
ATOM     12  C   LIG    1       -2.721   1.450   2.630  0.00  0.00    -0.110 A 
BRANCH   7  14
ATOM     13  C   LIG    1       -5.644   3.331   1.476  0.00  0.00    +0.240 C 
ATOM     14  O   LIG    1       -4.426   3.043   2.166  0.00  0.00    -0.310 OA
ENDBRANCH   7  14
ENDBRANCH   1  12
BRANCH   1  15
ATOM     15  C   LIG    1       -1.691   3.671   3.026  0.00  0.00    +0.290 C 
BRANCH  15  16
ATOM     16  N   LIG    1       -0.648   3.392   2.036  0.00  0.00    -0.720 N 
ATOM     17  H   LIG    1       -0.407   2.474   1.832  0.00  0.00    +0.400 HD
ATOM     18  C   LIG    1       -0.023   4.408   1.410  0.00  0.00    +0.590 C 
ATOM     19  O   LIG    1       -0.260   5.558   1.730  0.00  0.00    -0.530 OA
BRANCH  18  20
ATOM     20  C   LIG    1        0.943   4.129   0.344  0.00  0.00    -0.270 A 
ATOM     21  C   LIG    1        1.706   5.057  -0.291  0.00  0.00    +0.120 A 
ATOM     22  C   LIG    1        2.545   4.529  -1.268  0.00  0.00    -0.140 A 
ATOM     23  C   LIG    1        2.448   3.196  -1.409  0.00  0.00    -0.220 A 
ATOM     24  C   LIG    1        3.396   2.707  -2.496  0.00  0.00    +0.120 C 
ATOM     25  C   LIG    1        3.758   3.969  -3.304  0.00  0.00    +0.040 C 
ATOM     26  C   LIG    1        3.576   5.080  -2.252  0.00  0.00    +0.100 C 
ATOM     27  S   LIG    1        1.303   2.541  -0.312  0.00  0.00    +0.210 S 
ENDBRANCH  18  20
ENDBRANCH  15  16
ENDBRANCH   1  15
TORSDOF 5
