REMARK  Name = ZINCqH0000003Tw7.0
REMARK                            x       y       z     vdW  Elec       q    Type
REMARK                         _______ _______ _______ _____ _____    ______ ____
ROOT
ATOM      1  C   LIG    1       -0.735  -1.305   2.238  0.00  0.00    +0.510 C 
ATOM      2  N   LIG    1       -0.410  -2.613   2.257  0.00  0.00    -0.610 N 
ATOM      3  C   LIG    1        0.381  -3.155   3.365  0.00  0.00    +0.290 C 
ATOM      4  O   LIG    1       -1.446  -0.869   1.354  0.00  0.00    -0.460 OA
ENDROOT
BRANCH   1  10
ATOM      5  C   LIG    1        0.499   0.740   2.946  0.00  0.00    -0.620 A 
ATOM      6  C   LIG    1        0.966   1.582   3.934  0.00  0.00    +0.130 A 
ATOM      7  C   LIG    1        0.721   1.295   5.265  0.00  0.00    +0.020 A 
ATOM      8  C   LIG    1        0.007   0.162   5.614  0.00  0.00    +0.070 A 
ATOM      9  C   LIG    1       -0.465  -0.689   4.636  0.00  0.00    +0.030 A 
ATOM     10  C   LIG    1       -0.227  -0.401   3.291  0.00  0.00    -0.030 A 
BRANCH   5  11
ATOM     11  S   LIG    1        0.812   1.108   1.251  0.00  0.00    +2.470 S 
ATOM     12  O   LIG    1       -0.465   1.026   0.633  0.00  0.00    -0.890 OA
ATOM     13  O   LIG    1        1.533   2.332   1.286  0.00  0.00    -0.940 OA
BRANCH  11  15
ATOM     14  C   LIG    1        2.227  -0.036  -0.791  0.00  0.00    +0.080 C 
ATOM     15  C   LIG    1        1.881  -0.244   0.685  0.00  0.00    -0.340 C 
ENDBRANCH  11  15
ENDBRANCH   5  11
ENDBRANCH   1  10
BRANCH   2  16
ATOM     16  C   LIG    1       -0.849  -3.493   1.171  0.00  0.00    +0.360 C 
BRANCH  16  17
ATOM     17  C   LIG    1        0.195  -3.509   0.085  0.00  0.00    -0.080 A 
ATOM     18  C   LIG    1        0.130  -2.594  -0.949  0.00  0.00    +0.050 A 
ATOM     19  C   LIG    1        1.091  -2.605  -1.943  0.00  0.00    +0.070 A 
ATOM     20  C   LIG    1        2.109  -3.539  -1.909  0.00  0.00    -0.180 A 
ATOM     21  C   LIG    1        2.171  -4.457  -0.878  0.00  0.00    +0.070 A 
ATOM     22  C   LIG    1        1.214  -4.442   0.119  0.00  0.00    +0.030 A 
BRANCH  20  23
ATOM     23  C   LIG    1        3.153  -3.555  -2.996  0.00  0.00    +0.510 C 
ATOM     24  F   LIG    1        4.363  -4.026  -2.474  0.00  0.00    -0.180 F 
ATOM     25  F   LIG    1        3.332  -2.258  -3.491  0.00  0.00    -0.180 F 
ATOM     26  F   LIG    1        2.734  -4.395  -4.033  0.00  0.00    -0.170 F 
ENDBRANCH  20  23
ENDBRANCH  16  17
ENDBRANCH   2  16
TORSDOF 6
