REMARK  Name = ZINCvU0000000GZE.0
REMARK                            x       y       z     vdW  Elec       q    Type
REMARK                         _______ _______ _______ _____ _____    ______ ____
ROOT
ATOM      1  C   LIG    1       -6.103  -1.181  -7.211  0.00  0.00    -0.090 A 
ATOM      2  C   LIG    1       -5.607  -0.592  -6.067  0.00  0.00    +0.040 A 
ATOM      3  C   LIG    1       -4.311  -0.070  -6.059  0.00  0.00    -0.040 A 
ATOM      4  C   LIG    1       -3.526  -0.142  -7.213  0.00  0.00    +0.060 A 
ATOM      5  C   LIG    1       -4.029  -0.738  -8.350  0.00  0.00    -0.090 A 
ATOM      6  C   LIG    1       -5.317  -1.256  -8.353  0.00  0.00    +0.120 A 
ENDROOT
BRANCH   1   8
ATOM      7  C   LIG    1       -8.145  -1.534  -5.849  0.00  0.00    +0.030 C 
ATOM      8  C   LIG    1       -7.501  -1.744  -7.221  0.00  0.00    -0.020 C 
ATOM      9  C   LIG    1       -7.445  -3.241  -7.535  0.00  0.00    +0.040 C 
ATOM     10  C   LIG    1       -8.331  -1.030  -8.289  0.00  0.00    +0.030 C 
ENDBRANCH   1   8
BRANCH   5  11
ATOM     11  C   LIG    1       -3.181  -0.822  -9.593  0.00  0.00    -0.020 C 
ATOM     12  C   LIG    1       -3.876  -0.077 -10.735  0.00  0.00    +0.030 C 
ATOM     13  C   LIG    1       -2.989  -2.289  -9.982  0.00  0.00    +0.030 C 
ATOM     14  C   LIG    1       -1.817  -0.183  -9.323  0.00  0.00    +0.030 C 
ENDBRANCH   5  11
BRANCH   3  15
ATOM     15  C   LIG    1       -3.776   0.560  -4.838  0.00  0.00    +0.160 C 
ATOM     16  N   LIG    1       -2.572   1.045  -4.833  0.00  0.00    -0.210 NA
BRANCH  16  17
ATOM     17  N   LIG    1       -2.026   1.551  -3.646  0.00  0.00    -0.540 N 
ATOM     18  C   LIG    1       -2.839   1.655  -2.425  0.00  0.00    +0.250 C 
ATOM     19  C   LIG    1       -2.710   3.079  -1.874  0.00  0.00    +0.170 C 
ATOM     20  N   LIG    1       -1.289   3.408  -1.703  0.00  0.00    -0.530 NA
ATOM     21  C   LIG    1       -0.582   3.403  -2.991  0.00  0.00    +0.160 C 
ATOM     22  C   LIG    1       -0.624   1.992  -3.588  0.00  0.00    +0.330 C 
BRANCH  20  23
ATOM     23  C   LIG    1       -1.125   4.696  -1.017  0.00  0.00    +0.230 C 
BRANCH  23  24
ATOM     24  C   LIG    1        0.322   4.885  -0.641  0.00  0.00    -0.080 A 
ATOM     25  C   LIG    1        0.781   4.442   0.585  0.00  0.00    +0.050 A 
ATOM     26  C   LIG    1        2.109   4.610   0.928  0.00  0.00    +0.020 A 
ATOM     27  C   LIG    1        2.978   5.231   0.048  0.00  0.00    -0.030 A 
ATOM     28  C   LIG    1        2.517   5.679  -1.177  0.00  0.00    +0.020 A 
ATOM     29 CL   LIG    1        4.645   5.448   0.481  0.00  0.00    -0.070 Cl
ATOM     30  C   LIG    1        1.190   5.505  -1.521  0.00  0.00    +0.030 A 
ENDBRANCH  23  24
ENDBRANCH  20  23
ENDBRANCH  16  17
ENDBRANCH   3  15
BRANCH   6  31
ATOM     31  O   LIG    1       -5.811  -1.837  -9.478  0.00  0.00    -0.490 OA
ATOM     32  H   LIG    1       -6.266  -1.223 -10.070  0.00  0.00    +0.380 HD
ENDBRANCH   6  31
TORSDOF 7
