REMARK  Name = ZINCrg00001JduUZ.0
REMARK                            x       y       z     vdW  Elec       q    Type
REMARK                         _______ _______ _______ _____ _____    ______ ____
ROOT
ATOM      1  C   LIG    1        1.238  -1.523  -0.687  0.00  0.00    +0.080 C 
ATOM      2  C   LIG    1        0.294  -2.594  -1.264  0.00  0.00    +0.310 C 
ATOM      3  N   LIG    1        0.880  -3.505  -0.258  0.00  0.00    -0.640 N 
ATOM      4  C   LIG    1        1.025  -4.842  -0.166  0.00  0.00    +0.520 C 
ATOM      5  O   LIG    1        1.641  -5.323   0.762  0.00  0.00    -0.510 OA
ATOM      6  C   LIG    1        1.246  -2.364   0.602  0.00  0.00    +0.310 C 
ENDROOT
BRANCH   1  14
ATOM      7  C   LIG    1        4.027   3.154  -2.007  0.00  0.00    +0.040 C 
ATOM      8  C   LIG    1        2.574   2.754  -1.744  0.00  0.00    -0.020 C 
ATOM      9  C   LIG    1        1.967   3.696  -0.700  0.00  0.00    +0.040 C 
ATOM     10  C   LIG    1        0.455   3.448  -0.611  0.00  0.00    +0.160 C 
ATOM     11  C   LIG    1        0.229   1.962  -0.484  0.00  0.00    +0.180 A 
ATOM     12  N   LIG    1       -0.844   1.337  -0.107  0.00  0.00    -0.290 NA
ATOM     13  N   LIG    1       -0.631   0.065  -0.130  0.00  0.00    -0.290 NA
ATOM     14  C   LIG    1        0.593  -0.171  -0.526  0.00  0.00    +0.180 A 
ATOM     15  N   LIG    1        1.170   1.024  -0.762  0.00  0.00    -0.460 N 
ATOM     16  C   LIG    1        2.527   1.312  -1.225  0.00  0.00    +0.290 C 
ENDBRANCH   1  14
BRANCH   4  17
ATOM     17  C   LIG    1        0.421  -5.739  -1.215  0.00  0.00    +0.180 C 
ATOM     18  C   LIG    1        0.298  -7.161  -0.662  0.00  0.00    +0.050 C 
ATOM     19  C   LIG    1       -0.315  -8.072  -1.727  0.00  0.00    +0.030 C 
ATOM     20  C   LIG    1        0.582  -8.082  -2.967  0.00  0.00    -0.010 C 
ATOM     21  C   LIG    1        0.704  -6.661  -3.520  0.00  0.00    +0.020 C 
ATOM     22  C   LIG    1        1.317  -5.750  -2.455  0.00  0.00    +0.040 C 
BRANCH  17  23
ATOM     23  N   LIG    1       -0.908  -5.241  -1.578  0.00  0.00    -1.110 NA
ATOM     24  H   LIG    1       -1.061  -4.863  -2.458  0.00  0.00    +0.420 HD
BRANCH  23  25
ATOM     25  S   LIG    1       -2.150  -5.321  -0.485  0.00  0.00    +2.600 S 
ATOM     26  O   LIG    1       -2.135  -6.669  -0.036  0.00  0.00    -0.940 OA
ATOM     27  O   LIG    1       -3.268  -4.795  -1.186  0.00  0.00    -0.950 OA
ATOM     28  C   LIG    1       -1.651  -4.200   0.850  0.00  0.00    -0.290 C 
ENDBRANCH  23  25
ENDBRANCH  17  23
ENDBRANCH   4  17
TORSDOF 4
