REMARK  Name = ZINCrD00000F5LHu.0
REMARK                            x       y       z     vdW  Elec       q    Type
REMARK                         _______ _______ _______ _____ _____    ______ ____
ROOT
ATOM      1  C   LIG    1        7.407   0.937  -0.130  0.00  0.00    -0.110 C 
ATOM      2  C   LIG    1        6.376   0.072  -0.022  0.00  0.00    +0.140 C 
ENDROOT
BRANCH   2   3
ATOM      3  C   LIG    1        4.994   0.573  -0.015  0.00  0.00    -0.110 A 
ATOM      4  C   LIG    1        3.923  -0.322   0.096  0.00  0.00    +0.070 A 
ATOM      5  C   LIG    1        2.631   0.152   0.102  0.00  0.00    +0.000 A 
ATOM      6  C   LIG    1        2.388   1.518  -0.003  0.00  0.00    +0.180 A 
ATOM      7  C   LIG    1        3.449   2.411  -0.120  0.00  0.00    -0.030 A 
ATOM      8  C   LIG    1        4.745   1.946  -0.121  0.00  0.00    +0.060 A 
BRANCH   6   9
ATOM      9  N   LIG    1        1.077   1.993   0.003  0.00  0.00    -0.560 N 
ATOM     10  C   LIG    1        0.712   3.415   0.021  0.00  0.00    +0.260 C 
ATOM     11  C   LIG    1       -0.770   3.454   0.457  0.00  0.00    +0.060 C 
ATOM     12  C   LIG    1       -1.266   2.058   0.008  0.00  0.00    +0.070 C 
ATOM     13  C   LIG    1       -0.014   1.209  -0.007  0.00  0.00    +0.520 C 
ATOM     14  O   LIG    1        0.002  -0.004  -0.030  0.00  0.00    -0.500 OA
ENDBRANCH   6   9
ENDBRANCH   2   3
BRANCH   1  16
ATOM     15  N   LIG    1        9.811   1.301  -0.245  0.00  0.00    -0.610 N 
ATOM     16  C   LIG    1        8.782   0.438  -0.137  0.00  0.00    +0.550 C 
ATOM     17  O   LIG    1        8.996  -0.757  -0.046  0.00  0.00    -0.530 OA
BRANCH  15  18
ATOM     18  C   LIG    1        9.553   2.739  -0.355  0.00  0.00    +0.290 C 
BRANCH  18  19
ATOM     19  C   LIG    1        9.513   3.359   1.043  0.00  0.00    +0.190 C 
BRANCH  19  21
ATOM     20  N   LIG    1        9.053   5.918   0.847  0.00  0.00    -0.420 NA
ATOM     21  C   LIG    1        9.254   4.803   0.933  0.00  0.00    +0.200 C 
ENDBRANCH  19  21
ENDBRANCH  18  19
ENDBRANCH  15  18
BRANCH  15  22
ATOM     22  C   LIG    1       11.188   0.802  -0.252  0.00  0.00    +0.410 C 
BRANCH  22  23
ATOM     23  C   LIG    1       11.611   0.513  -1.669  0.00  0.00    -0.040 A 
ATOM     24  C   LIG    1       12.202   1.385  -2.507  0.00  0.00    -0.050 A 
ATOM     25  C   LIG    1       12.421   0.699  -3.724  0.00  0.00    -0.070 A 
ATOM     26  C   LIG    1       11.951  -0.551  -3.557  0.00  0.00    +0.170 A 
ATOM     27  O   LIG    1       11.467  -0.659  -2.309  0.00  0.00    -0.160 OA
ENDBRANCH  22  23
ENDBRANCH  15  22
ENDBRANCH   1  16
TORSDOF 8
