REMARK  Name = ZINCkj000005jdtP.1
REMARK                            x       y       z     vdW  Elec       q    Type
REMARK                         _______ _______ _______ _____ _____    ______ ____
ROOT
ATOM      1  C   LIG    1        2.118   1.453   1.168  0.00  0.00    +0.490 C 
ATOM      2  N   LIG    1        3.436   1.377   1.111  0.00  0.00    -0.560 NA
ATOM      3  C   LIG    1        4.122   0.891   2.143  0.00  0.00    +0.670 C 
ATOM      4  N   LIG    1        3.479   0.471   3.227  0.00  0.00    -0.610 N 
ATOM      5  C   LIG    1        2.154   0.544   3.279  0.00  0.00    +0.670 C 
ATOM      6  N   LIG    1        1.481   0.110   4.403  0.00  0.00    -0.770 N 
ATOM      7  H   LIG    1        1.976  -0.248   5.156  0.00  0.00    +0.430 HD
ATOM      8  H   LIG    1        0.513   0.164   4.440  0.00  0.00    +0.450 HD
ATOM      9  H   LIG    1        3.976   0.113   3.979  0.00  0.00    +0.440 HD
ATOM     10  N   LIG    1        1.475   1.037   2.245  0.00  0.00    -0.540 NA
ENDROOT
BRANCH   3  11
ATOM     11  N   LIG    1        5.499   0.817   2.084  0.00  0.00    -0.570 NA
ATOM     12  C   LIG    1        6.296   1.034   3.294  0.00  0.00    +0.330 C 
ATOM     13  C   LIG    1        6.163   0.522   0.812  0.00  0.00    +0.360 C 
ENDBRANCH   3  11
BRANCH   1  15
ATOM     14  C   LIG    1        1.287   3.535   0.108  0.00  0.00    +0.100 C 
ATOM     15  C   LIG    1        1.346   2.010   0.000  0.00  0.00    +0.240 C 
BRANCH  15  16
ATOM     16  N   LIG    1       -0.018   1.465   0.010  0.00  0.00    -0.520 NA
ATOM     17  C   LIG    1        0.002  -0.004   0.002  0.00  0.00    +0.200 C 
BRANCH  16  18
ATOM     18  C   LIG    1       -0.802   1.987  -1.117  0.00  0.00    +0.310 C 
BRANCH  18  19
ATOM     19  C   LIG    1       -2.249   1.608  -0.941  0.00  0.00    -0.020 A 
ATOM     20  C   LIG    1       -3.179   2.333  -0.293  0.00  0.00    -0.030 A 
ATOM     21  C   LIG    1       -4.391   1.609  -0.373  0.00  0.00    -0.070 A 
ATOM     22  C   LIG    1       -4.128   0.481  -1.056  0.00  0.00    +0.170 A 
ATOM     23  O   LIG    1       -2.829   0.486  -1.398  0.00  0.00    -0.180 OA
ENDBRANCH  18  19
ENDBRANCH  16  18
ENDBRANCH  15  16
ENDBRANCH   1  15
TORSDOF 5
