REMARK  Name = ZINCpk00001AZiGw.1
REMARK                            x       y       z     vdW  Elec       q    Type
REMARK                         _______ _______ _______ _____ _____    ______ ____
ROOT
ATOM      1  N   LIG    1       -5.108   1.126   0.978  0.00  0.00    -0.610 N 
ATOM      2  C   LIG    1       -4.361   1.079  -0.143  0.00  0.00    +0.530 C 
ATOM      3  O   LIG    1       -4.743   0.440  -1.100  0.00  0.00    -0.530 OA
ATOM      4  C   LIG    1       -4.720   2.009   2.081  0.00  0.00    +0.280 C 
ENDROOT
BRANCH   2   5
ATOM      5  C   LIG    1       -3.051   1.821  -0.207  0.00  0.00    -0.010 C 
ATOM      6  C   LIG    1       -2.053   1.181   0.763  0.00  0.00    +0.050 C 
ATOM      7  C   LIG    1       -0.703   1.892   0.634  0.00  0.00    +0.070 C 
ATOM      8  C   LIG    1       -0.229   1.816  -0.819  0.00  0.00    +0.080 C 
ATOM      9  N   LIG    1       -1.213   2.467  -1.692  0.00  0.00    -0.360 N 
ATOM     10  C   LIG    1       -0.719   2.459  -3.075  0.00  0.00    +0.320 C 
ATOM     11  H   LIG    1       -1.350   3.420  -1.391  0.00  0.00    +0.420 HD
ATOM     12  C   LIG    1       -2.490   1.747  -1.629  0.00  0.00    +0.270 C 
BRANCH   8  13
ATOM     13  C   LIG    1        1.099   2.515  -0.951  0.00  0.00    +0.500 C 
ATOM     14  O   LIG    1        1.175   3.571  -1.556  0.00  0.00    -0.670 OA
ATOM     15  O   LIG    1        2.098   2.024  -0.454  0.00  0.00    -0.630 OA
ENDBRANCH   8  13
ENDBRANCH   2   5
BRANCH   1  16
ATOM     16  C   LIG    1       -6.308   0.294   1.093  0.00  0.00    +0.290 C 
BRANCH  16  17
ATOM     17  C   LIG    1       -5.935  -1.058   1.705  0.00  0.00    +0.010 C 
BRANCH  17  18
ATOM     18  C   LIG    1       -7.189  -1.926   1.826  0.00  0.00    +0.150 C 
BRANCH  18  23
ATOM     19  N   LIG    1       -6.452  -4.359   1.739  0.00  0.00    -0.450 N 
ATOM     20  C   LIG    1       -6.202  -5.345   2.655  0.00  0.00    +0.110 A 
ATOM     21  C   LIG    1       -6.436  -4.816   3.871  0.00  0.00    +0.140 A 
ATOM     22  N   LIG    1       -6.814  -3.540   3.703  0.00  0.00    -0.490 NA
ATOM     23  C   LIG    1       -6.822  -3.258   2.428  0.00  0.00    +0.210 A 
BRANCH  19  24
ATOM     24  C   LIG    1       -6.335  -4.474   0.283  0.00  0.00    +0.280 C 
BRANCH  24  26
ATOM     25  C   LIG    1       -4.835  -4.102  -1.680  0.00  0.00    +0.030 C 
ATOM     26  C   LIG    1       -4.957  -3.981  -0.159  0.00  0.00    +0.000 C 
ENDBRANCH  24  26
ENDBRANCH  19  24
ENDBRANCH  18  23
ENDBRANCH  17  18
ENDBRANCH  16  17
ENDBRANCH   1  16
TORSDOF 8
