REMARK  Name = ZINCpk00001AZiGw.0
REMARK                            x       y       z     vdW  Elec       q    Type
REMARK                         _______ _______ _______ _____ _____    ______ ____
ROOT
ATOM      1  N   LIG    1       -0.280  -3.254  -1.380  0.00  0.00    -0.610 N 
ATOM      2  C   LIG    1        0.701  -2.430  -1.797  0.00  0.00    +0.530 C 
ATOM      3  O   LIG    1        1.733  -2.890  -2.239  0.00  0.00    -0.530 OA
ATOM      4  C   LIG    1       -1.575  -2.703  -0.973  0.00  0.00    +0.280 C 
ENDROOT
BRANCH   2   5
ATOM      5  C   LIG    1        0.518  -0.936  -1.714  0.00  0.00    -0.010 C 
ATOM      6  C   LIG    1        0.471  -0.508  -0.244  0.00  0.00    +0.050 C 
ATOM      7  C   LIG    1        0.363   1.018  -0.171  0.00  0.00    +0.090 C 
ATOM      8  C   LIG    1        1.542   1.644  -0.920  0.00  0.00    +0.080 C 
ATOM      9  N   LIG    1        1.515   1.217  -2.324  0.00  0.00    -0.350 N 
ATOM     10  C   LIG    1        0.225   1.588  -2.921  0.00  0.00    +0.310 C 
ATOM     11  H   LIG    1        2.261   1.673  -2.827  0.00  0.00    +0.430 HD
ATOM     12  C   LIG    1        1.690  -0.238  -2.406  0.00  0.00    +0.270 C 
BRANCH   8  13
ATOM     13  C   LIG    1        1.440   3.146  -0.850  0.00  0.00    +0.490 C 
ATOM     14  O   LIG    1        1.358   3.799  -1.876  0.00  0.00    -0.670 OA
ATOM     15  O   LIG    1        1.440   3.707   0.232  0.00  0.00    -0.630 OA
ENDBRANCH   8  13
ENDBRANCH   2   5
BRANCH   1  16
ATOM     16  C   LIG    1       -0.052  -4.700  -1.334  0.00  0.00    +0.290 C 
BRANCH  16  17
ATOM     17  C   LIG    1        0.503  -5.085   0.039  0.00  0.00    +0.010 C 
BRANCH  17  18
ATOM     18  C   LIG    1        0.741  -6.596   0.087  0.00  0.00    +0.150 C 
BRANCH  18  23
ATOM     19  N   LIG    1        2.596  -7.030   1.771  0.00  0.00    -0.450 N 
ATOM     20  C   LIG    1        2.665  -7.410   3.084  0.00  0.00    +0.110 A 
ATOM     21  C   LIG    1        1.398  -7.584   3.506  0.00  0.00    +0.140 A 
ATOM     22  N   LIG    1        0.578  -7.311   2.480  0.00  0.00    -0.490 NA
ATOM     23  C   LIG    1        1.289  -6.976   1.439  0.00  0.00    +0.210 A 
BRANCH  19  24
ATOM     24  C   LIG    1        3.730  -6.733   0.892  0.00  0.00    +0.280 C 
BRANCH  24  26
ATOM     25  C   LIG    1        5.183  -4.918  -0.021  0.00  0.00    +0.030 C 
ATOM     26  C   LIG    1        3.999  -5.227   0.897  0.00  0.00    +0.000 C 
ENDBRANCH  24  26
ENDBRANCH  19  24
ENDBRANCH  18  23
ENDBRANCH  17  18
ENDBRANCH  16  17
ENDBRANCH   1  16
TORSDOF 8
