REMARK  Name = ZINCqH0000004qkm.1
REMARK                            x       y       z     vdW  Elec       q    Type
REMARK                         _______ _______ _______ _____ _____    ______ ____
ROOT
ATOM      1  C   LIG    1       -0.101   6.462  -0.092  0.00  0.00    +0.270 A 
ATOM      2  N   LIG    1       -0.525   5.644   0.821  0.00  0.00    -0.470 NA
ATOM      3  C   LIG    1       -0.462   4.343   0.541  0.00  0.00    +0.110 A 
ATOM      4  C   LIG    1        0.044   4.040  -0.667  0.00  0.00    -0.050 A 
ATOM      5  S   LIG    1        0.453   5.544  -1.489  0.00  0.00    +0.060 S 
ENDROOT
BRANCH   1   9
ATOM      6  N   LIG    1       -0.812  10.496  -0.719  0.00  0.00    -0.530 NA
ATOM      7  C   LIG    1        0.531   9.977  -1.014  0.00  0.00    +0.200 C 
ATOM      8  C   LIG    1        0.458   8.460  -1.203  0.00  0.00    +0.210 C 
ATOM      9  N   LIG    1       -0.087   7.843   0.015  0.00  0.00    -0.440 N 
ATOM     10  C   LIG    1       -1.429   8.363   0.310  0.00  0.00    +0.230 C 
ATOM     11  C   LIG    1       -1.357   9.880   0.499  0.00  0.00    +0.200 C 
BRANCH   6  12
ATOM     12  C   LIG    1       -0.797  11.961  -0.606  0.00  0.00    +0.150 C 
BRANCH  12  13
ATOM     13  C   LIG    1       -0.701  12.580  -2.002  0.00  0.00    +0.210 C 
BRANCH  13  15
ATOM     14  C   LIG    1       -0.448  14.720  -3.266  0.00  0.00    +0.010 C 
ATOM     15  C   LIG    1       -0.669  14.105  -1.883  0.00  0.00    -0.020 C 
ENDBRANCH  13  15
BRANCH  13  16
ATOM     16  O   LIG    1       -1.836  12.186  -2.776  0.00  0.00    -0.550 OA
ATOM     17  H   LIG    1       -2.683  12.461  -2.399  0.00  0.00    +0.370 HD
ENDBRANCH  13  16
ENDBRANCH  12  13
ENDBRANCH   6  12
ENDBRANCH   1   9
BRANCH   3  18
ATOM     18  C   LIG    1       -0.913   3.302   1.496  0.00  0.00    +0.030 A 
ATOM     19  C   LIG    1       -1.755   2.278   1.068  0.00  0.00    +0.040 A 
ATOM     20  C   LIG    1       -2.171   1.312   1.962  0.00  0.00    +0.050 A 
ATOM     21  C   LIG    1       -1.754   1.359   3.280  0.00  0.00    +0.030 A 
ATOM     22  C   LIG    1       -0.913   2.371   3.709  0.00  0.00    +0.070 A 
ATOM     23  C   LIG    1       -0.495   3.345   2.825  0.00  0.00    -0.160 A 
BRANCH  23  24
ATOM     24  C   LIG    1        0.416   4.449   3.296  0.00  0.00    +0.510 C 
ATOM     25  F   LIG    1        1.553   4.495   2.481  0.00  0.00    -0.180 F 
ATOM     26  F   LIG    1       -0.258   5.673   3.224  0.00  0.00    -0.150 F 
ATOM     27  F   LIG    1        0.800   4.206   4.619  0.00  0.00    -0.180 F 
ENDBRANCH  23  24
ENDBRANCH   3  18
TORSDOF 7
