REMARK  Name = ZINCvU0000000DLm.0
REMARK                            x       y       z     vdW  Elec       q    Type
REMARK                         _______ _______ _______ _____ _____    ______ ____
ROOT
ATOM      1  C   LIG    1        0.002  -0.004   0.002  0.00  0.00    +0.400 C 
ATOM      2  O   LIG    1        1.061  -0.596  -0.011  0.00  0.00    -0.430 OA
ENDROOT
BRANCH   1   3
ATOM      3  C   LIG    1       -1.260  -0.756   0.010  0.00  0.00    -0.210 A 
ATOM      4  C   LIG    1       -2.483  -0.074   0.031  0.00  0.00    +0.110 A 
ATOM      5  C   LIG    1       -3.658  -0.781   0.032  0.00  0.00    -0.080 A 
ATOM      6  C   LIG    1       -3.637  -2.171   0.025  0.00  0.00    +0.170 A 
ATOM      7  C   LIG    1       -2.424  -2.853   0.010  0.00  0.00    -0.020 A 
ATOM      8  C   LIG    1       -1.243  -2.156   0.002  0.00  0.00    +0.130 A 
BRANCH   6   9
ATOM      9  O   LIG    1       -4.802  -2.866   0.032  0.00  0.00    -0.300 OA
BRANCH   9  10
ATOM     10  C   LIG    1       -6.011  -2.104   0.047  0.00  0.00    +0.260 C 
BRANCH  10  11
ATOM     11  C   LIG    1       -7.194  -3.038   0.053  0.00  0.00    -0.100 A 
ATOM     12  C   LIG    1       -7.750  -3.456  -1.141  0.00  0.00    +0.030 A 
ATOM     13  C   LIG    1       -8.832  -4.317  -1.135  0.00  0.00    +0.010 A 
ATOM     14  C   LIG    1       -9.363  -4.752   0.065  0.00  0.00    +0.020 A 
ATOM     15  C   LIG    1       -8.810  -4.329   1.259  0.00  0.00    +0.010 A 
ATOM     16  C   LIG    1       -7.725  -3.472   1.253  0.00  0.00    +0.030 A 
ENDBRANCH  10  11
ENDBRANCH   9  10
ENDBRANCH   6   9
ENDBRANCH   1   3
BRANCH   1  17
ATOM     17  C   LIG    1       -0.018   1.503   0.010  0.00  0.00    +0.240 C 
BRANCH  17  18
ATOM     18  O   LIG    1        1.344   2.005   0.000  0.00  0.00    -0.340 OA
BRANCH  18  20
ATOM     19  O   LIG    1        0.534   4.061   0.019  0.00  0.00    -0.510 OA
ATOM     20  C   LIG    1        1.502   3.338   0.006  0.00  0.00    +0.470 C 
BRANCH  20  21
ATOM     21  C   LIG    1        2.886   3.933  -0.004  0.00  0.00    +0.130 C 
BRANCH  21  22
ATOM     22  C   LIG    1        2.785   5.460   0.005  0.00  0.00    +0.060 C 
BRANCH  22  23
ATOM     23  C   LIG    1        4.170   6.055  -0.005  0.00  0.00    +0.400 C 
ATOM     24  O   LIG    1        5.142   5.329  -0.018  0.00  0.00    -0.440 OA
BRANCH  23  25
ATOM     25  C   LIG    1        4.343   7.516   0.001  0.00  0.00    -0.170 A 
ATOM     26  C   LIG    1        3.224   8.356   0.010  0.00  0.00    +0.080 A 
ATOM     27  C   LIG    1        3.394   9.723   0.020  0.00  0.00    +0.020 A 
ATOM     28  C   LIG    1        4.669  10.267   0.011  0.00  0.00    -0.000 A 
ATOM     29  C   LIG    1        5.781   9.441  -0.003  0.00  0.00    +0.020 A 
ATOM     30 CL   LIG    1        4.873  11.991   0.017  0.00  0.00    -0.060 Cl
ATOM     31  C   LIG    1        5.627   8.071  -0.008  0.00  0.00    +0.100 A 
ENDBRANCH  23  25
ENDBRANCH  22  23
ENDBRANCH  21  22
ENDBRANCH  20  21
ENDBRANCH  18  20
ENDBRANCH  17  18
ENDBRANCH   1  17
TORSDOF 11
