REMARK  Name = ZINCrH000004mpX5.0
REMARK                            x       y       z     vdW  Elec       q    Type
REMARK                         _______ _______ _______ _____ _____    ______ ____
ROOT
ATOM      1  S   LIG    1       -1.447   2.392   0.022  0.00  0.00    +0.080 S 
ENDROOT
BRANCH   1   6
ATOM      2  N   LIG    1        0.002  -0.004   0.002  0.00  0.00    -0.410 N 
ATOM      3  C   LIG    1        1.325  -0.356  -0.013  0.00  0.00    +0.400 A 
ATOM      4  N   LIG    1        2.019   0.748  -0.013  0.00  0.00    -0.280 NA
ATOM      5  N   LIG    1        1.234   1.764  -0.000  0.00  0.00    -0.290 NA
ATOM      6  C   LIG    1       -0.017   1.363   0.009  0.00  0.00    +0.150 A 
BRANCH   2  10
ATOM      7  C   LIG    1       -3.288  -2.570   0.020  0.00  0.00    +0.150 A 
ATOM      8  C   LIG    1       -2.275  -2.748  -0.911  0.00  0.00    +0.010 A 
ATOM      9  C   LIG    1       -1.186  -1.899  -0.918  0.00  0.00    +0.080 A 
ATOM     10  C   LIG    1       -1.105  -0.867   0.008  0.00  0.00    +0.060 A 
ATOM     11  C   LIG    1       -2.116  -0.694   0.943  0.00  0.00    +0.080 A 
ATOM     12  C   LIG    1       -3.207  -1.540   0.945  0.00  0.00    -0.050 A 
BRANCH   7  14
ATOM     13  C   LIG    1       -5.365  -3.166   1.012  0.00  0.00    +0.250 C 
ATOM     14  O   LIG    1       -4.360  -3.406   0.026  0.00  0.00    -0.310 OA
ENDBRANCH   7  14
ENDBRANCH   2  10
ENDBRANCH   1   6
BRANCH   1  15
ATOM     15  C   LIG    1       -0.661   4.023   0.027  0.00  0.00    +0.010 C 
ATOM     16  C   LIG    1        0.116   4.211   1.332  0.00  0.00    +0.090 C 
BRANCH  15  17
ATOM     17  C   LIG    1       -1.719   5.090  -0.086  0.00  0.00    +0.540 C 
ATOM     18  N   LIG    1       -1.407   6.298  -0.597  0.00  0.00    -0.720 N 
ATOM     19  H   LIG    1       -0.501   6.479  -0.892  0.00  0.00    +0.400 HD
ATOM     20  O   LIG    1       -2.852   4.863   0.283  0.00  0.00    -0.520 OA
BRANCH  18  21
ATOM     21  C   LIG    1       -2.435   7.335  -0.706  0.00  0.00    +0.260 C 
BRANCH  21  22
ATOM     22  C   LIG    1       -1.822   8.598  -1.314  0.00  0.00    +0.060 C 
BRANCH  22  23
ATOM     23  C   LIG    1       -2.879   9.666  -1.427  0.00  0.00    -0.120 C 
ATOM     24  C   LIG    1       -2.977  10.528  -0.466  0.00  0.00    -0.050 C 
ATOM     25  C   LIG    1       -3.981  11.642  -0.434  0.00  0.00    +0.050 C 
ATOM     26  C   LIG    1       -4.566  11.866  -1.831  0.00  0.00    +0.010 C 
ATOM     27  C   LIG    1       -5.007  10.510  -2.395  0.00  0.00    +0.010 C 
ATOM     28  C   LIG    1       -3.758   9.660  -2.643  0.00  0.00    +0.060 C 
ENDBRANCH  22  23
ENDBRANCH  21  22
ENDBRANCH  18  21
ENDBRANCH  15  17
ENDBRANCH   1  15
TORSDOF 8
