REMARK  Name = ZINCCC0000000cRN.0
REMARK                            x       y       z     vdW  Elec       q    Type
REMARK                         _______ _______ _______ _____ _____    ______ ____
ROOT
ATOM      1  C   LIG    1        2.916  -0.118  -5.622  0.00  0.00    -0.670 A 
ATOM      2  C   LIG    1        1.861  -0.742  -6.269  0.00  0.00    +0.150 A 
ATOM      3  C   LIG    1        0.601  -0.721  -5.712  0.00  0.00    +0.060 A 
ATOM      4  C   LIG    1        0.383  -0.074  -4.499  0.00  0.00    -0.140 A 
ATOM      5  S   LIG    1       -1.079   0.125  -3.536  0.00  0.00    +0.130 S 
ATOM      6  C   LIG    1       -0.180   1.039  -2.334  0.00  0.00    +0.290 A 
ATOM      7  N   LIG    1        1.058   1.136  -2.677  0.00  0.00    -0.480 NA
ATOM      8  C   LIG    1        1.438   0.560  -3.835  0.00  0.00    +0.070 A 
ATOM      9  C   LIG    1        2.719   0.525  -4.425  0.00  0.00    +0.190 A 
ENDROOT
BRANCH   6  10
ATOM     10  N   LIG    1       -0.723   1.572  -1.182  0.00  0.00    -0.460 N 
ATOM     11  C   LIG    1       -0.013   1.086   0.008  0.00  0.00    +0.200 C 
ATOM     12  C   LIG    1       -0.729   1.579   1.267  0.00  0.00    +0.060 C 
ATOM     13  C   LIG    1       -0.764   3.110   1.262  0.00  0.00    +0.000 C 
ATOM     14  C   LIG    1       -1.466   3.591  -0.011  0.00  0.00    +0.060 C 
ATOM     15  C   LIG    1       -0.729   3.040  -1.234  0.00  0.00    +0.220 C 
BRANCH  14  16
ATOM     16  C   LIG    1       -1.454   5.098  -0.054  0.00  0.00    -0.080 A 
ATOM     17  C   LIG    1       -0.251   5.779  -0.048  0.00  0.00    +0.010 A 
ATOM     18  C   LIG    1       -0.239   7.161  -0.091  0.00  0.00    +0.000 A 
ATOM     19  C   LIG    1       -1.431   7.861  -0.131  0.00  0.00    +0.000 A 
ATOM     20  C   LIG    1       -2.633   7.180  -0.132  0.00  0.00    +0.000 A 
ATOM     21  C   LIG    1       -2.645   5.798  -0.093  0.00  0.00    +0.020 A 
ENDBRANCH  14  16
BRANCH  13  22
ATOM     22  C   LIG    1       -1.531   3.609   2.488  0.00  0.00    +0.180 C 
BRANCH  22  23
ATOM     23  O   LIG    1       -0.814   3.259   3.673  0.00  0.00    -0.570 OA
ATOM     24  H   LIG    1       -1.242   3.545   4.492  0.00  0.00    +0.380 HD
ENDBRANCH  22  23
ENDBRANCH  13  22
ENDBRANCH   6  10
BRANCH   1  25
ATOM     25  S   LIG    1        4.524  -0.150  -6.341  0.00  0.00    +2.690 S 
ATOM     26  O   LIG    1        4.556  -1.280  -7.202  0.00  0.00    -0.940 OA
ATOM     27  O   LIG    1        5.444   0.042  -5.275  0.00  0.00    -0.950 OA
BRANCH  25  28
ATOM     28  N   LIG    1        4.652   1.184  -7.315  0.00  0.00    -1.110 NA
ATOM     29  H   LIG    1        4.750   1.076  -8.274  0.00  0.00    +0.420 HD
BRANCH  28  33
ATOM     30  N   LIG    1        4.077   5.347  -7.018  0.00  0.00    -0.530 NA
ATOM     31  C   LIG    1        5.462   4.866  -6.935  0.00  0.00    +0.200 C 
ATOM     32  C   LIG    1        5.548   3.452  -7.515  0.00  0.00    +0.060 C 
ATOM     33  C   LIG    1        4.618   2.525  -6.728  0.00  0.00    +0.240 C 
ATOM     34  C   LIG    1        3.190   3.074  -6.788  0.00  0.00    +0.030 C 
ATOM     35  C   LIG    1        3.172   4.500  -6.231  0.00  0.00    +0.170 C 
BRANCH  30  36
ATOM     36  C   LIG    1        3.981   6.751  -6.598  0.00  0.00    +0.190 C 
BRANCH  36  37
ATOM     37  C   LIG    1        2.509   7.143  -6.459  0.00  0.00    +0.250 C 
BRANCH  37  39
ATOM     38  C   LIG    1        2.946   9.413  -7.099  0.00  0.00    +0.320 C 
ATOM     39  N   LIG    1        2.413   8.547  -6.039  0.00  0.00    -0.390 N 
ATOM     40  C   LIG    1        1.006   8.889  -5.789  0.00  0.00    +0.320 C 
ATOM     41  H   LIG    1        2.947   8.683  -5.194  0.00  0.00    +0.430 HD
ENDBRANCH  37  39
ENDBRANCH  36  37
ENDBRANCH  30  36
ENDBRANCH  28  33
ENDBRANCH  25  28
ENDBRANCH   1  25
TORSDOF 10
