REMARK  Name = ZINCrD000000BTOI.0
REMARK                            x       y       z     vdW  Elec       q    Type
REMARK                         _______ _______ _______ _____ _____    ______ ____
ROOT
ATOM      1  O   LIG    1       -0.782   2.147   1.502  0.00  0.00    -0.500 OA
ATOM      2  C   LIG    1       -0.971   1.271   0.679  0.00  0.00    +0.610 C 
ATOM      3  N   LIG    1       -0.031   1.004  -0.249  0.00  0.00    -0.650 N 
ATOM      4  H   LIG    1       -0.215   0.366  -0.956  0.00  0.00    +0.420 HD
ENDROOT
BRANCH   3   5
ATOM      5  C   LIG    1        1.210   1.654  -0.196  0.00  0.00    +0.090 A 
ATOM      6  C   LIG    1        1.270   3.027   0.000  0.00  0.00    +0.130 A 
ATOM      7  C   LIG    1        2.498   3.665   0.051  0.00  0.00    -0.030 A 
ATOM      8  C   LIG    1        3.665   2.939  -0.092  0.00  0.00    +0.070 A 
ATOM      9  C   LIG    1        3.614   1.571  -0.288  0.00  0.00    -0.030 A 
ATOM     10  F   LIG    1        0.131   3.740   0.140  0.00  0.00    -0.120 F 
ATOM     11  C   LIG    1        2.389   0.922  -0.335  0.00  0.00    +0.120 A 
BRANCH  11  12
ATOM     12  N   LIG    1        2.336  -0.463  -0.527  0.00  0.00    -0.470 N 
ATOM     13  C   LIG    1        3.702  -1.039  -0.622  0.00  0.00    +0.180 C 
ATOM     14  C   LIG    1        3.476  -2.538  -0.300  0.00  0.00    +0.040 C 
ATOM     15  C   LIG    1        2.389  -2.497   0.797  0.00  0.00    +0.020 C 
ATOM     16  C   LIG    1        1.694  -1.133   0.624  0.00  0.00    +0.170 C 
ENDBRANCH  11  12
ENDBRANCH   3   5
BRANCH   2  17
ATOM     17  C   LIG    1       -2.231   0.500   0.697  0.00  0.00    -0.050 A 
ATOM     18  N   LIG    1       -2.560  -0.472  -0.135  0.00  0.00    -0.200 NA
ATOM     19  N   LIG    1       -3.727  -0.920   0.171  0.00  0.00    -0.150 N 
ATOM     20  N   LIG    1       -4.212  -0.206   1.274  0.00  0.00    -0.270 NA
ATOM     21  C   LIG    1       -3.290   0.667   1.607  0.00  0.00    +0.310 A 
BRANCH  19  22
ATOM     22  C   LIG    1       -4.402  -1.953  -0.493  0.00  0.00    +0.140 A 
ATOM     23  C   LIG    1       -3.814  -2.581  -1.583  0.00  0.00    +0.070 A 
ATOM     24  C   LIG    1       -4.479  -3.602  -2.232  0.00  0.00    +0.020 A 
ATOM     25  C   LIG    1       -5.737  -3.994  -1.804  0.00  0.00    +0.110 A 
ATOM     26  C   LIG    1       -6.327  -3.365  -0.720  0.00  0.00    +0.020 A 
ATOM     27  F   LIG    1       -6.388  -4.989  -2.443  0.00  0.00    -0.130 F 
ATOM     28  C   LIG    1       -5.663  -2.347  -0.065  0.00  0.00    +0.080 A 
ENDBRANCH  19  22
ENDBRANCH   2  17
TORSDOF 4
