REMARK  Name = ZINCqH00000096zA.0
REMARK                            x       y       z     vdW  Elec       q    Type
REMARK                         _______ _______ _______ _____ _____    ______ ____
ROOT
ATOM      1  C   LIG    1       -4.335   6.019   1.515  0.00  0.00    +0.040 C 
ATOM      2  C   LIG    1       -3.839   5.904   0.072  0.00  0.00    +0.300 C 
ENDROOT
BRANCH   2   3
ATOM      3  C   LIG    1       -3.697   7.282  -0.521  0.00  0.00    -0.120 A 
ATOM      4  C   LIG    1       -2.585   8.049  -0.231  0.00  0.00    +0.070 A 
ATOM      5  C   LIG    1       -2.453   9.311  -0.779  0.00  0.00    +0.010 A 
ATOM      6  C   LIG    1       -3.438   9.810  -1.610  0.00  0.00    +0.120 A 
ATOM      7  C   LIG    1       -4.554   9.045  -1.897  0.00  0.00    -0.670 A 
ATOM      8  C   LIG    1       -4.683   7.781  -1.353  0.00  0.00    +0.140 A 
BRANCH   7   9
ATOM      9  S   LIG    1       -5.810   9.681  -2.956  0.00  0.00    +2.690 S 
ATOM     10  O   LIG    1       -6.490   8.555  -3.494  0.00  0.00    -0.950 OA
ATOM     11  O   LIG    1       -5.190  10.673  -3.763  0.00  0.00    -0.950 OA
BRANCH   9  12
ATOM     12  N   LIG    1       -6.904  10.474  -1.998  0.00  0.00    -1.000 NA
ATOM     13  C   LIG    1       -8.047   9.749  -1.437  0.00  0.00    +0.310 C 
ATOM     14  C   LIG    1       -6.728  11.899  -1.711  0.00  0.00    +0.300 C 
ENDBRANCH   9  12
ENDBRANCH   7   9
ENDBRANCH   2   3
BRANCH   2  15
ATOM     15  N   LIG    1       -2.538   5.230   0.056  0.00  0.00    -0.690 N 
ATOM     16  H   LIG    1       -1.721   5.752   0.051  0.00  0.00    +0.410 HD
BRANCH  15  17
ATOM     17  C   LIG    1       -2.477   3.853   0.047  0.00  0.00    +0.500 A 
ATOM     18  N   LIG    1       -3.583   3.121   0.054  0.00  0.00    -0.590 NA
ATOM     19  C   LIG    1       -3.537   1.797   0.046  0.00  0.00    +0.420 A 
ATOM     20  N   LIG    1       -2.411   1.122   0.032  0.00  0.00    -0.540 NA
ATOM     21  C   LIG    1       -1.233   1.764   0.018  0.00  0.00    +0.200 A 
ATOM     22  C   LIG    1       -0.013   1.076   0.008  0.00  0.00    +0.030 A 
ATOM     23  C   LIG    1        1.156   1.778   0.001  0.00  0.00    +0.070 A 
ATOM     24  C   LIG    1        1.157   3.169   0.008  0.00  0.00    +0.000 A 
ATOM     25  C   LIG    1       -0.013   3.871   0.023  0.00  0.00    +0.060 A 
ATOM     26 CL   LIG    1       -5.032   0.915   0.057  0.00  0.00    +0.020 Cl
ATOM     27  C   LIG    1       -1.230   3.180   0.031  0.00  0.00    -0.200 A 
ENDBRANCH  15  17
ENDBRANCH   2  15
TORSDOF 5
