REMARK  Name = ZINCpe00000VVGUU.0
REMARK                            x       y       z     vdW  Elec       q    Type
REMARK                         _______ _______ _______ _____ _____    ______ ____
ROOT
ATOM      1  C   LIG    1        4.265   1.342   2.226  0.00  0.00    +0.200 C 
ENDROOT
BRANCH   1   2
ATOM      2  N   LIG    1        3.914   1.934   0.928  0.00  0.00    -0.500 NA
ATOM      3  C   LIG    1        5.064   2.648   0.345  0.00  0.00    +0.210 C 
ATOM      4  C   LIG    1        5.326   2.034  -1.046  0.00  0.00    +0.000 C 
ATOM      5  C   LIG    1        3.960   1.392  -1.410  0.00  0.00    +0.040 C 
ATOM      6  C   LIG    1        3.471   0.895  -0.026  0.00  0.00    +0.250 C 
BRANCH   6   7
ATOM      7  C   LIG    1        1.969   0.776  -0.013  0.00  0.00    +0.180 A 
ATOM      8  N   LIG    1        1.119   1.759   0.001  0.00  0.00    -0.350 NA
ATOM      9  O   LIG    1       -0.016   1.332   0.009  0.00  0.00    +0.080 OA
ATOM     10  C   LIG    1        0.002  -0.004   0.002  0.00  0.00    +0.210 A 
ATOM     11  N   LIG    1        1.262  -0.368  -0.012  0.00  0.00    -0.480 NA
BRANCH  10  12
ATOM     12  C   LIG    1       -1.196  -0.918   0.009  0.00  0.00    +0.070 C 
ATOM     13  C   LIG    1       -2.573  -0.279  -0.181  0.00  0.00    +0.060 C 
ATOM     14  C   LIG    1       -2.159  -0.811   1.193  0.00  0.00    +0.060 C 
ENDBRANCH  10  12
ENDBRANCH   6   7
ENDBRANCH   1   2
BRANCH   1  16
ATOM     15  O   LIG    1        5.108   3.503   2.661  0.00  0.00    -0.520 OA
ATOM     16  C   LIG    1        4.938   2.380   3.087  0.00  0.00    +0.520 C 
ATOM     17  N   LIG    1        5.350   2.060   4.329  0.00  0.00    -0.710 N 
ATOM     18  H   LIG    1        5.214   1.162   4.670  0.00  0.00    +0.410 HD
BRANCH  17  19
ATOM     19  C   LIG    1        6.004   3.070   5.166  0.00  0.00    +0.240 C 
ATOM     20  C   LIG    1        5.825   2.708   6.642  0.00  0.00    +0.040 C 
ATOM     21  C   LIG    1        5.929   3.941   7.516  0.00  0.00    +0.030 C 
ATOM     22  C   LIG    1        7.310   4.571   7.531  0.00  0.00    +0.010 C 
ATOM     23  C   LIG    1        7.657   5.156   6.160  0.00  0.00    +0.270 C 
ATOM     24  N   LIG    1        8.247   4.093   5.330  0.00  0.00    -0.720 N 
ATOM     25  H   LIG    1        9.196   4.109   5.130  0.00  0.00    +0.400 HD
ATOM     26  C   LIG    1        7.485   3.108   4.853  0.00  0.00    +0.510 C 
ATOM     27  O   LIG    1        7.980   2.240   4.165  0.00  0.00    -0.540 OA
ENDBRANCH  17  19
ENDBRANCH   1  16
TORSDOF 5
