REMARK  Name = ZINCpk000000np3O.0
REMARK                            x       y       z     vdW  Elec       q    Type
REMARK                         _______ _______ _______ _____ _____    ______ ____
ROOT
ATOM      1  N   LIG    1       -5.081   3.749  -0.619  0.00  0.00    -0.530 NA
ATOM      2  C   LIG    1       -5.016   2.284  -0.526  0.00  0.00    +0.180 C 
ATOM      3  C   LIG    1       -4.135   1.891   0.664  0.00  0.00    +0.300 C 
ATOM      4  N   LIG    1       -2.834   2.564   0.526  0.00  0.00    -0.600 N 
ATOM      5  C   LIG    1       -2.824   4.017   0.298  0.00  0.00    +0.280 C 
ATOM      6  C   LIG    1       -1.683   1.869   0.612  0.00  0.00    +0.590 C 
ATOM      7  O   LIG    1       -1.710   0.666   0.793  0.00  0.00    -0.550 OA
ATOM      8  C   LIG    1       -3.757   4.326  -0.884  0.00  0.00    +0.170 C 
ENDROOT
BRANCH   6   9
ATOM      9  C   LIG    1       -0.397   2.563   0.487  0.00  0.00    -0.050 A 
ATOM     10  C   LIG    1       -0.158   3.893   0.760  0.00  0.00    +0.010 A 
ATOM     11  C   LIG    1        1.198   4.127   0.512  0.00  0.00    -0.050 A 
ATOM     12  C   LIG    1        1.751   2.962   0.096  0.00  0.00    +0.190 A 
ATOM     13  N   LIG    1        0.792   2.005   0.073  0.00  0.00    -0.400 N 
BRANCH  13  14
ATOM     14  C   LIG    1        0.988   0.607  -0.321  0.00  0.00    +0.360 C 
BRANCH  14  15
ATOM     15  C   LIG    1        0.663   0.447  -1.783  0.00  0.00    -0.070 A 
ATOM     16  C   LIG    1       -0.635   0.191  -2.198  0.00  0.00    -0.010 A 
ATOM     17  C   LIG    1       -0.896   0.054  -3.548  0.00  0.00    +0.260 A 
ATOM     18  N   LIG    1        0.074   0.155  -4.436  0.00  0.00    -0.480 NA
ATOM     19  C   LIG    1        1.320   0.394  -4.078  0.00  0.00    +0.260 A 
ATOM     20  C   LIG    1        1.656   0.547  -2.746  0.00  0.00    -0.010 A 
ENDBRANCH  14  15
ENDBRANCH  13  14
ENDBRANCH   6   9
BRANCH   1  21
ATOM     21  C   LIG    1       -6.051   4.169  -1.640  0.00  0.00    +0.150 C 
BRANCH  21  23
ATOM     22  C   LIG    1       -7.584   4.763   0.242  0.00  0.00    +0.070 C 
ATOM     23  C   LIG    1       -7.470   4.015  -1.088  0.00  0.00    +0.130 C 
ATOM     24  C   LIG    1       -8.472   4.597  -2.088  0.00  0.00    +0.020 C 
BRANCH  23  25
ATOM     25  O   LIG    1       -7.754   2.630  -0.881  0.00  0.00    -0.550 OA
ATOM     26  H   LIG    1       -7.700   2.093  -1.684  0.00  0.00    +0.370 HD
ENDBRANCH  23  25
ENDBRANCH  21  23
ENDBRANCH   1  21
TORSDOF 6
