REMARK  Name = ZINCrD000007420H.0
REMARK                            x       y       z     vdW  Elec       q    Type
REMARK                         _______ _______ _______ _____ _____    ______ ____
ROOT
ATOM      1  C   LIG    1        2.501   1.108   0.036  0.00  0.00    +0.280 C 
ENDROOT
BRANCH   1   2
ATOM      2  C   LIG    1        3.567   2.189  -0.146  0.00  0.00    -0.030 C 
ATOM      3  C   LIG    1        3.230   3.040  -1.374  0.00  0.00    +0.010 C 
ATOM      4  C   LIG    1        3.263   2.156  -2.623  0.00  0.00    +0.210 C 
ATOM      5  O   LIG    1        4.552   1.550  -2.741  0.00  0.00    -0.380 OA
ATOM      6  C   LIG    1        4.902   0.704  -1.644  0.00  0.00    +0.220 C 
ATOM      7  C   LIG    1        4.934   1.530  -0.355  0.00  0.00    +0.020 C 
BRANCH   2   8
ATOM      8  C   LIG    1        3.612   3.065   1.080  0.00  0.00    -0.060 A 
ATOM      9  C   LIG    1        3.357   4.418   0.972  0.00  0.00    +0.050 A 
ATOM     10  C   LIG    1        3.392   5.221   2.096  0.00  0.00    +0.040 A 
ATOM     11  C   LIG    1        3.695   4.672   3.329  0.00  0.00    -0.030 A 
ATOM     12  C   LIG    1        3.957   3.317   3.437  0.00  0.00    +0.050 A 
ATOM     13 CL   LIG    1        3.746   5.681   4.741  0.00  0.00    -0.050 Cl
ATOM     14  C   LIG    1        3.915   2.514   2.313  0.00  0.00    -0.020 A 
ATOM     15 CL   LIG    1        4.244   0.815   2.447  0.00  0.00    -0.040 Cl
ENDBRANCH   2   8
ENDBRANCH   1   2
BRANCH   1  17
ATOM     16  C   LIG    1        0.102   0.987   0.447  0.00  0.00    +0.520 C 
ATOM     17  N   LIG    1        1.219   1.737   0.365  0.00  0.00    -0.730 N 
ATOM     18  H   LIG    1        1.175   2.692   0.525  0.00  0.00    +0.400 HD
ATOM     19  O   LIG    1        0.157  -0.208   0.248  0.00  0.00    -0.530 OA
BRANCH  16  20
ATOM     20  C   LIG    1       -1.218   1.635   0.779  0.00  0.00    +0.050 C 
BRANCH  20  21
ATOM     21  C   LIG    1       -2.317   0.572   0.802  0.00  0.00    +0.300 C 
BRANCH  21  23
ATOM     22  C   LIG    1       -4.718   0.453   1.201  0.00  0.00    +0.540 C 
ATOM     23  N   LIG    1       -3.600   1.201   1.125  0.00  0.00    -0.730 N 
ATOM     24  H   LIG    1       -3.644   2.157   1.284  0.00  0.00    +0.400 HD
ATOM     25  O   LIG    1       -4.662  -0.742   1.002  0.00  0.00    -0.530 OA
BRANCH  22  29
ATOM     26  C   LIG    1       -7.069  -1.295   1.334  0.00  0.00    +0.070 C 
ATOM     27  C   LIG    1       -7.270   0.197   1.605  0.00  0.00    -0.010 C 
ATOM     28  C   LIG    1       -7.094   1.160   0.428  0.00  0.00    +0.050 C 
ATOM     29  C   LIG    1       -6.037   1.101   1.534  0.00  0.00    -0.080 C 
ENDBRANCH  22  29
ENDBRANCH  21  23
ENDBRANCH  20  21
ENDBRANCH  16  20
ENDBRANCH   1  17
TORSDOF 7
