REMARK  Name = ZINCvU00000008cQ.0
REMARK                            x       y       z     vdW  Elec       q    Type
REMARK                         _______ _______ _______ _____ _____    ______ ____
ROOT
ATOM      1  O   LIG    1       -1.025   1.880   2.437  0.00  0.00    -0.500 OA
ATOM      2  C   LIG    1       -1.643   2.341   1.501  0.00  0.00    +0.510 C 
ATOM      3  N   LIG    1       -2.696   3.153   1.722  0.00  0.00    -0.660 N 
ATOM      4  H   LIG    1       -3.155   3.566   0.974  0.00  0.00    +0.420 HD
ENDROOT
BRANCH   3   5
ATOM      5  C   LIG    1       -3.127   3.400   3.032  0.00  0.00    +0.140 A 
ATOM      6  C   LIG    1       -2.206   3.464   4.067  0.00  0.00    +0.040 A 
ATOM      7  C   LIG    1       -2.634   3.708   5.358  0.00  0.00    +0.030 A 
ATOM      8  C   LIG    1       -3.979   3.888   5.622  0.00  0.00    +0.010 A 
ATOM      9  C   LIG    1       -4.903   3.825   4.596  0.00  0.00    +0.040 A 
ATOM     10  C   LIG    1       -4.482   3.587   3.298  0.00  0.00    +0.050 A 
BRANCH  10  11
ATOM     11  O   LIG    1       -5.389   3.532   2.287  0.00  0.00    -0.260 OA
BRANCH  11  12
ATOM     12  C   LIG    1       -5.889   2.316   1.944  0.00  0.00    +0.120 A 
ATOM     13  C   LIG    1       -5.393   1.167   2.543  0.00  0.00    -0.070 A 
ATOM     14  C   LIG    1       -5.907  -0.068   2.198  0.00  0.00    +0.050 A 
ATOM     15  C   LIG    1       -6.908  -0.161   1.248  0.00  0.00    -0.020 A 
ATOM     16  C   LIG    1       -7.401   0.983   0.646  0.00  0.00    +0.050 A 
ATOM     17  C   LIG    1       -6.894   2.220   0.992  0.00  0.00    -0.020 A 
ENDBRANCH  11  12
ENDBRANCH  10  11
ENDBRANCH   3   5
BRANCH   2  18
ATOM     18  C   LIG    1       -1.233   2.006   0.090  0.00  0.00    +0.370 C 
BRANCH  18  19
ATOM     19  N   LIG    1       -0.071   1.114   0.117  0.00  0.00    -0.460 N 
ATOM     20  C   LIG    1       -0.098  -0.268   0.146  0.00  0.00    +0.060 A 
ATOM     21  C   LIG    1       -1.117  -1.210   0.162  0.00  0.00    +0.010 A 
ATOM     22  C   LIG    1       -0.810  -2.554   0.190  0.00  0.00    +0.030 A 
ATOM     23  C   LIG    1        0.513  -2.973   0.203  0.00  0.00    +0.000 A 
ATOM     24  C   LIG    1        1.537  -2.054   0.189  0.00  0.00    +0.070 A 
ATOM     25  C   LIG    1        1.244  -0.687   0.159  0.00  0.00    +0.050 A 
ATOM     26  N   LIG    1        2.013   0.430   0.139  0.00  0.00    -0.470 NA
ATOM     27  C   LIG    1        1.245   1.493   0.114  0.00  0.00    +0.360 A 
BRANCH  27  28
ATOM     28  C   LIG    1        1.726   2.889   0.087  0.00  0.00    +0.110 A 
ATOM     29  C   LIG    1        3.038   3.215   0.085  0.00  0.00    -0.010 A 
ATOM     30  S   LIG    1        3.157   4.973   0.049  0.00  0.00    +0.170 S 
ATOM     31  C   LIG    1        1.453   5.102   0.040  0.00  0.00    +0.230 A 
ATOM     32  N   LIG    1        0.911   3.935   0.058  0.00  0.00    -0.470 NA
ENDBRANCH  27  28
ENDBRANCH  18  19
ENDBRANCH   2  18
TORSDOF 6
