REMARK  Name = ZINCrH00000No4H9.0
REMARK                            x       y       z     vdW  Elec       q    Type
REMARK                         _______ _______ _______ _____ _____    ______ ____
ROOT
ATOM      1  C   LIG    1       -0.018   5.636   0.031  0.00  0.00    +0.560 C 
ATOM      2  N   LIG    1       -1.192   6.298   0.045  0.00  0.00    -0.620 N 
ATOM      3  H   LIG    1       -2.027   5.805   0.051  0.00  0.00    +0.420 HD
ATOM      4  O   LIG    1        1.030   6.255   0.024  0.00  0.00    -0.520 OA
ENDROOT
BRANCH   2   5
ATOM      5  C   LIG    1       -1.205   7.687   0.052  0.00  0.00    +0.240 A 
ATOM      6  N   LIG    1       -2.275   8.419   0.061  0.00  0.00    -0.500 NA
ATOM      7  C   LIG    1       -2.103   9.728   0.071  0.00  0.00    +0.100 A 
ATOM      8  C   LIG    1       -0.828  10.120   0.060  0.00  0.00    -0.150 A 
ATOM      9  S   LIG    1        0.187   8.680   0.044  0.00  0.00    +0.250 S 
BRANCH   7  10
ATOM     10  C   LIG    1       -3.254  10.700   0.086  0.00  0.00    +0.270 C 
BRANCH  10  11
ATOM     11  N   LIG    1       -3.719  10.930  -1.289  0.00  0.00    -0.530 NA
ATOM     12  C   LIG    1       -2.690  11.610  -2.086  0.00  0.00    +0.160 C 
ATOM     13  C   LIG    1       -3.149  11.702  -3.543  0.00  0.00    +0.020 C 
ATOM     14  C   LIG    1       -4.468  12.477  -3.609  0.00  0.00    +0.000 C 
ATOM     15  C   LIG    1       -5.509  11.774  -2.733  0.00  0.00    +0.020 C 
ATOM     16  C   LIG    1       -4.981  11.680  -1.299  0.00  0.00    +0.170 C 
ENDBRANCH  10  11
ENDBRANCH   7  10
ENDBRANCH   2   5
BRANCH   1  18
ATOM     17  C   LIG    1        1.173   3.554   0.009  0.00  0.00    +0.190 C 
ATOM     18  C   LIG    1       -0.004   4.218   0.024  0.00  0.00    -0.130 C 
BRANCH  17  22
ATOM     19  C   LIG    1        1.213  -0.689  -0.013  0.00  0.00    +0.190 A 
ATOM     20  C   LIG    1        0.002  -0.004   0.002  0.00  0.00    -0.110 A 
ATOM     21  C   LIG    1       -0.017   1.371   0.010  0.00  0.00    +0.130 A 
ATOM     22  C   LIG    1        1.187   2.087   0.002  0.00  0.00    -0.160 A 
ATOM     23  C   LIG    1        2.409   1.392  -0.014  0.00  0.00    +0.200 A 
ATOM     24  C   LIG    1        2.413   0.009  -0.021  0.00  0.00    -0.110 A 
BRANCH  19  26
ATOM     25  C   LIG    1       -0.047  -2.703  -0.012  0.00  0.00    +0.240 C 
ATOM     26  O   LIG    1        1.222  -2.046  -0.021  0.00  0.00    -0.310 OA
ENDBRANCH  19  26
BRANCH  23  27
ATOM     27  O   LIG    1        3.581   2.076  -0.022  0.00  0.00    -0.300 OA
ATOM     28  C   LIG    1        4.783   1.304  -0.039  0.00  0.00    +0.250 C 
ENDBRANCH  23  27
ENDBRANCH  17  22
ENDBRANCH   1  18
TORSDOF 7
