REMARK  Name = ZINCfA000000baP1.1
REMARK                            x       y       z     vdW  Elec       q    Type
REMARK                         _______ _______ _______ _____ _____    ______ ____
ROOT
ATOM      1  N   LIG    1       -0.386  -1.905  -1.719  0.00  0.00    -0.380 N 
ATOM      2  C   LIG    1       -0.107  -1.110  -2.922  0.00  0.00    +0.330 C 
ATOM      3  H   LIG    1        0.462  -2.360  -1.413  0.00  0.00    +0.420 HD
ENDROOT
BRANCH   1   4
ATOM      4  C   LIG    1       -1.402  -2.920  -2.027  0.00  0.00    +0.230 C 
ATOM      5  C   LIG    1       -0.886  -3.838  -3.137  0.00  0.00    +0.100 C 
BRANCH   4   6
ATOM      6  C   LIG    1       -1.688  -3.736  -0.793  0.00  0.00    -0.090 A 
ATOM      7  C   LIG    1       -0.662  -4.124   0.055  0.00  0.00    -0.050 A 
ATOM      8  C   LIG    1       -0.963  -4.867   1.180  0.00  0.00    +0.290 A 
ATOM      9  N   LIG    1       -2.207  -5.216   1.445  0.00  0.00    -0.460 NA
ATOM     10  C   LIG    1       -3.207  -4.869   0.659  0.00  0.00    +0.290 A 
ATOM     11  C   LIG    1       -2.983  -4.121  -0.481  0.00  0.00    +0.000 A 
ENDBRANCH   4   6
ENDBRANCH   1   4
BRANCH   1  12
ATOM     12  C   LIG    1       -0.881  -1.024  -0.653  0.00  0.00    +0.290 C 
BRANCH  12  15
ATOM     13  C   LIG    1        1.752   0.887   1.385  0.00  0.00    +0.100 C 
ATOM     14  C   LIG    1        0.580   0.020   1.002  0.00  0.00    -0.030 C 
ATOM     15  C   LIG    1        0.207  -0.061  -0.251  0.00  0.00    -0.120 C 
ATOM     16  C   LIG    1       -0.167  -0.749   2.061  0.00  0.00    +0.090 C 
ENDBRANCH  12  15
ENDBRANCH   1  12
TORSDOF 4
