REMARK  Name = ZINCfA000000baP1.0
REMARK                            x       y       z     vdW  Elec       q    Type
REMARK                         _______ _______ _______ _____ _____    ______ ____
ROOT
ATOM      1  N   LIG    1        1.919   0.727   1.658  0.00  0.00    -0.380 N 
ATOM      2  C   LIG    1        1.961  -0.733   1.498  0.00  0.00    +0.320 C 
ATOM      3  H   LIG    1        1.280   0.965   2.402  0.00  0.00    +0.420 HD
ENDROOT
BRANCH   1   4
ATOM      4  C   LIG    1        3.262   1.222   1.988  0.00  0.00    +0.230 C 
ATOM      5  C   LIG    1        3.218   2.742   2.155  0.00  0.00    +0.100 C 
BRANCH   4   6
ATOM      6  C   LIG    1        3.729   0.589   3.274  0.00  0.00    -0.090 A 
ATOM      7  C   LIG    1        2.855   0.411   4.335  0.00  0.00    -0.050 A 
ATOM      8  C   LIG    1        3.318  -0.178   5.497  0.00  0.00    +0.290 A 
ATOM      9  N   LIG    1        4.576  -0.559   5.605  0.00  0.00    -0.460 NA
ATOM     10  C   LIG    1        5.436  -0.400   4.618  0.00  0.00    +0.290 A 
ATOM     11  C   LIG    1        5.044   0.176   3.425  0.00  0.00    +0.000 A 
ENDBRANCH   4   6
ENDBRANCH   1   4
BRANCH   1  12
ATOM     12  C   LIG    1        1.464   1.344   0.405  0.00  0.00    +0.290 C 
BRANCH  12  15
ATOM     13  C   LIG    1       -1.655  -0.190  -1.222  0.00  0.00    +0.100 C 
ATOM     14  C   LIG    1       -0.266   0.354  -1.005  0.00  0.00    -0.030 C 
ATOM     15  C   LIG    1        0.041   0.932   0.130  0.00  0.00    -0.120 C 
ATOM     16  C   LIG    1        0.770   0.232  -2.093  0.00  0.00    +0.090 C 
ENDBRANCH  12  15
ENDBRANCH   1  12
TORSDOF 4
