REMARK  Name = ZINCpk00000ki02P.0
REMARK                            x       y       z     vdW  Elec       q    Type
REMARK                         _______ _______ _______ _____ _____    ______ ____
ROOT
ATOM      1  C   LIG    1       -0.944  -2.097   0.154  0.00  0.00    +0.360 A 
ATOM      2  C   LIG    1        0.291  -2.667   0.433  0.00  0.00    -0.060 A 
ATOM      3  C   LIG    1        1.381  -1.835   0.635  0.00  0.00    +0.150 A 
ATOM      4  C   LIG    1        1.194  -0.466   0.550  0.00  0.00    -0.220 A 
ATOM      5  C   LIG    1        2.160   0.684   0.715  0.00  0.00    +0.120 C 
ATOM      6  C   LIG    1        1.302   1.940   0.492  0.00  0.00    +0.290 C 
ATOM      7  N   LIG    1       -0.049   1.440   0.224  0.00  0.00    -0.540 N 
ATOM      8  C   LIG    1       -1.123   2.215  -0.023  0.00  0.00    +0.570 C 
ATOM      9  O   LIG    1       -2.182   1.704  -0.334  0.00  0.00    -0.470 OA
ATOM     10  C   LIG    1       -0.063   0.048   0.268  0.00  0.00    +0.400 A 
ATOM     11  N   LIG    1       -1.086  -0.787   0.081  0.00  0.00    -0.540 NA
ENDROOT
BRANCH   8  12
ATOM     12  C   LIG    1       -1.015   3.683   0.085  0.00  0.00    -0.150 A 
ATOM     13  C   LIG    1        0.236   4.280   0.279  0.00  0.00    +0.080 A 
ATOM     14  C   LIG    1        0.346   5.649   0.378  0.00  0.00    +0.010 A 
ATOM     15  C   LIG    1       -0.785   6.447   0.285  0.00  0.00    +0.160 A 
ATOM     16  O   LIG    1       -0.693   7.796   0.368  0.00  0.00    -0.320 OA
ATOM     17  C   LIG    1       -0.851   8.535  -0.836  0.00  0.00    +0.240 C 
ATOM     18  C   LIG    1       -2.027   8.026  -1.658  0.00  0.00    +0.260 C 
ATOM     19  N   LIG    1       -3.198   7.805  -0.807  0.00  0.00    -0.720 N 
ATOM     20  H   LIG    1       -3.941   8.430  -0.826  0.00  0.00    +0.410 HD
ATOM     21  C   LIG    1       -3.238   6.724   0.007  0.00  0.00    +0.570 C 
ATOM     22  O   LIG    1       -4.236   6.472   0.655  0.00  0.00    -0.520 OA
ATOM     23  C   LIG    1       -2.047   5.856   0.094  0.00  0.00    -0.170 A 
ATOM     24  C   LIG    1       -2.159   4.475  -0.013  0.00  0.00    +0.160 A 
ENDBRANCH   8  12
BRANCH   1  26
ATOM     25  C   LIG    1       -3.237  -2.264  -0.443  0.00  0.00    +0.260 C 
ATOM     26  O   LIG    1       -2.019  -2.899  -0.046  0.00  0.00    -0.300 OA
ENDBRANCH   1  26
TORSDOF 2
