REMARK  Name = ZINCrD00000lbNSZ.0
REMARK                            x       y       z     vdW  Elec       q    Type
REMARK                         _______ _______ _______ _____ _____    ______ ____
ROOT
ATOM      1  N   LIG    1        3.318   8.133  -0.917  0.00  0.00    -0.710 N 
ATOM      2  H   LIG    1        2.401   8.450  -0.905  0.00  0.00    +0.420 HD
ATOM      3  C   LIG    1        4.336   9.010  -0.808  0.00  0.00    +0.600 C 
ATOM      4  O   LIG    1        5.485   8.624  -0.911  0.00  0.00    -0.530 OA
ENDROOT
BRANCH   3   5
ATOM      5  C   LIG    1        4.058  10.430  -0.567  0.00  0.00    -0.090 A 
ATOM      6  C   LIG    1        2.829  11.018  -0.457  0.00  0.00    +0.230 A 
ATOM      7  N   LIG    1        3.017  12.320  -0.239  0.00  0.00    -0.490 NA
ATOM      8  C   LIG    1        4.298  12.582  -0.206  0.00  0.00    +0.450 A 
ATOM      9  N   LIG    1        4.988  11.440  -0.398  0.00  0.00    -0.380 N 
BRANCH   9  10
ATOM     10  C   LIG    1        6.382  11.303  -0.425  0.00  0.00    +0.090 A 
ATOM     11  C   LIG    1        7.006  10.383   0.406  0.00  0.00    +0.100 A 
ATOM     12  C   LIG    1        8.380  10.245   0.374  0.00  0.00    +0.010 A 
ATOM     13  C   LIG    1        9.136  11.031  -0.479  0.00  0.00    +0.120 A 
ATOM     14  C   LIG    1        8.516  11.954  -1.305  0.00  0.00    +0.010 A 
ATOM     15  F   LIG    1       10.480  10.899  -0.505  0.00  0.00    -0.130 F 
ATOM     16  C   LIG    1        7.142  12.091  -1.280  0.00  0.00    +0.060 A 
ENDBRANCH   9  10
ENDBRANCH   3   5
BRANCH   1  17
ATOM     17  C   LIG    1        3.596   6.701  -1.053  0.00  0.00    +0.330 C 
BRANCH  17  20
ATOM     18  N   LIG    1        2.306   4.604  -1.289  0.00  0.00    -0.660 N 
ATOM     19  H   LIG    1        3.145   4.118  -1.246  0.00  0.00    +0.420 HD
ATOM     20  C   LIG    1        2.296   5.945  -1.156  0.00  0.00    +0.510 C 
ATOM     21  O   LIG    1        1.242   6.543  -1.119  0.00  0.00    -0.510 OA
BRANCH  18  29
ATOM     22  C   LIG    1        2.230   1.833  -0.646  0.00  0.00    +0.110 C 
ATOM     23  C   LIG    1        1.026   2.558  -1.189  0.00  0.00    -0.110 A 
ATOM     24  C   LIG    1       -0.161   1.878  -1.388  0.00  0.00    -0.020 A 
ATOM     25  C   LIG    1       -1.265   2.543  -1.891  0.00  0.00    +0.020 A 
ATOM     26  C   LIG    1       -1.188   3.892  -2.186  0.00  0.00    +0.050 A 
ATOM     27  C   LIG    1       -0.005   4.577  -1.989  0.00  0.00    +0.030 A 
ATOM     28 CL   LIG    1       -0.263   0.186  -1.014  0.00  0.00    -0.060 Cl
ATOM     29  C   LIG    1        1.107   3.912  -1.489  0.00  0.00    +0.160 A 
ENDBRANCH  18  29
ENDBRANCH  17  20
ENDBRANCH   1  17
TORSDOF 5
