REMARK  Name = ZINCrH000004uWAF.0
REMARK                            x       y       z     vdW  Elec       q    Type
REMARK                         _______ _______ _______ _____ _____    ______ ____
ROOT
ATOM      1  O   LIG    1        3.921   2.659  -0.022  0.00  0.00    -0.510 OA
ATOM      2  C   LIG    1        3.627   1.478  -0.025  0.00  0.00    +0.600 C 
ATOM      3  N   LIG    1        4.597   0.542  -0.038  0.00  0.00    -0.720 N 
ATOM      4  H   LIG    1        4.362  -0.399  -0.041  0.00  0.00    +0.400 HD
ENDROOT
BRANCH   3   5
ATOM      5  C   LIG    1        6.005   0.946  -0.050  0.00  0.00    +0.260 C 
ATOM      6  C   LIG    1        6.476   1.199   1.385  0.00  0.00    +0.020 C 
ATOM      7  C   LIG    1        7.963   1.562   1.369  0.00  0.00    +0.040 C 
ATOM      8  C   LIG    1        8.752   0.430   0.708  0.00  0.00    +0.190 C 
ATOM      9  N   LIG    1        8.265   0.227  -0.662  0.00  0.00    -0.480 N 
ATOM     10  C   LIG    1        6.851  -0.168  -0.671  0.00  0.00    +0.190 C 
BRANCH   9  11
ATOM     11  C   LIG    1        9.050  -0.708  -1.340  0.00  0.00    +0.140 A 
ATOM     12  C   LIG    1        8.462  -1.836  -1.899  0.00  0.00    -0.050 A 
ATOM     13  C   LIG    1        9.240  -2.757  -2.573  0.00  0.00    +0.070 A 
ATOM     14  C   LIG    1       10.604  -2.564  -2.683  0.00  0.00    -0.040 A 
ATOM     15  C   LIG    1       11.196  -1.444  -2.123  0.00  0.00    +0.130 A 
ATOM     16  F   LIG    1       12.529  -1.259  -2.232  0.00  0.00    -0.140 F 
ATOM     17  C   LIG    1       10.421  -0.515  -1.452  0.00  0.00    -0.040 A 
ENDBRANCH   9  11
ENDBRANCH   3   5
BRANCH   2  18
ATOM     18  C   LIG    1        2.217   1.073  -0.013  0.00  0.00    -0.300 A 
ATOM     19  C   LIG    1        1.136   1.914   0.002  0.00  0.00    +0.330 A 
ATOM     20  N   LIG    1       -0.016   1.299   0.009  0.00  0.00    -0.460 NA
ATOM     21  C   LIG    1        0.002  -0.004   0.002  0.00  0.00    +0.090 A 
ATOM     22  S   LIG    1        1.611  -0.581  -0.016  0.00  0.00    +0.210 S 
BRANCH  21  23
ATOM     23  C   LIG    1       -1.201  -0.863   0.009  0.00  0.00    +0.010 A 
ATOM     24  C   LIG    1       -1.089  -2.258  -0.005  0.00  0.00    -0.010 A 
ATOM     25  C   LIG    1       -2.239  -3.022   0.008  0.00  0.00    +0.280 A 
ATOM     26  N   LIG    1       -3.429  -2.454   0.022  0.00  0.00    -0.470 NA
ATOM     27  C   LIG    1       -3.580  -1.144   0.030  0.00  0.00    +0.270 A 
ATOM     28  C   LIG    1       -2.484  -0.304   0.025  0.00  0.00    +0.030 A 
ENDBRANCH  21  23
ENDBRANCH   2  18
TORSDOF 4
