REMARK  Name = ZINCrD000000CHz4.0
REMARK                            x       y       z     vdW  Elec       q    Type
REMARK                         _______ _______ _______ _____ _____    ______ ____
ROOT
ATOM      1  O   LIG    1        1.066  -0.571   0.153  0.00  0.00    -0.520 OA
ATOM      2  C   LIG    1        0.002  -0.004   0.002  0.00  0.00    +0.580 C 
ATOM      3  N   LIG    1       -0.026   1.315  -0.274  0.00  0.00    -0.590 N 
ATOM      4  C   LIG    1       -1.287   1.979  -0.629  0.00  0.00    +0.310 C 
ATOM      5  C   LIG    1       -1.105   2.718  -1.954  0.00  0.00    +0.020 C 
ATOM      6  C   LIG    1        0.095   3.663  -1.846  0.00  0.00    +0.270 C 
ATOM      7  C   LIG    1        1.361   2.852  -1.565  0.00  0.00    +0.030 C 
ATOM      8  C   LIG    1        1.206   2.115  -0.232  0.00  0.00    +0.300 C 
ENDROOT
BRANCH   2   9
ATOM      9  C   LIG    1       -1.266  -0.763   0.122  0.00  0.00    +0.060 A 
ATOM     10  N   LIG    1       -2.418  -0.117   0.136  0.00  0.00    -0.390 NA
ATOM     11  C   LIG    1       -3.558  -0.801   0.244  0.00  0.00    +0.070 A 
ATOM     12  C   LIG    1       -4.801  -0.141   0.261  0.00  0.00    +0.060 A 
ATOM     13  C   LIG    1       -5.947  -0.865   0.372  0.00  0.00    +0.050 A 
ATOM     14  C   LIG    1       -5.911  -2.256   0.469  0.00  0.00    +0.060 A 
ATOM     15  C   LIG    1       -4.728  -2.929   0.456  0.00  0.00    +0.060 A 
ATOM     16  C   LIG    1       -3.522  -2.217   0.343  0.00  0.00    +0.100 A 
ATOM     17  N   LIG    1       -2.345  -2.854   0.326  0.00  0.00    -0.420 NA
ATOM     18  C   LIG    1       -1.233  -2.166   0.214  0.00  0.00    +0.320 A 
ENDBRANCH   2   9
BRANCH   6  19
ATOM     19  N   LIG    1        0.253   4.395  -3.105  0.00  0.00    -0.350 N 
ATOM     20  C   LIG    1        0.012   3.911  -4.341  0.00  0.00    +0.250 A 
ATOM     21  C   LIG    1        0.275   4.897  -5.230  0.00  0.00    -0.070 A 
ATOM     22  C   LIG    1        0.700   6.020  -4.512  0.00  0.00    -0.020 A 
ATOM     23  N   LIG    1        0.688   5.720  -3.239  0.00  0.00    -0.230 NA
BRANCH  22  24
ATOM     24  C   LIG    1        1.104   7.346  -5.104  0.00  0.00    +0.560 C 
ATOM     25  F   LIG    1       -0.004   7.938  -5.721  0.00  0.00    -0.170 F 
ATOM     26  F   LIG    1        2.114   7.146  -6.052  0.00  0.00    -0.170 F 
ATOM     27  F   LIG    1        1.576   8.185  -4.090  0.00  0.00    -0.170 F 
ENDBRANCH  22  24
ENDBRANCH   6  19
TORSDOF 3
