REMARK  Name = ZINCrH000004t3b6.0
REMARK                            x       y       z     vdW  Elec       q    Type
REMARK                         _______ _______ _______ _____ _____    ______ ____
ROOT
ATOM      1  C   LIG    1       -1.921  -0.507   5.521  0.00  0.00    +0.310 C 
ATOM      2  C   LIG    1       -2.162  -1.995   5.228  0.00  0.00    +0.030 C 
ATOM      3  C   LIG    1       -0.846  -2.760   5.381  0.00  0.00    +0.020 C 
ATOM      4  C   LIG    1        0.175  -2.229   4.371  0.00  0.00    +0.010 C 
ATOM      5  C   LIG    1        0.441  -0.747   4.651  0.00  0.00    +0.250 C 
ATOM      6  N   LIG    1       -0.840  -0.028   4.649  0.00  0.00    -0.630 N 
ATOM      7  C   LIG    1       -1.019   1.054   3.865  0.00  0.00    +0.700 C 
ATOM      8  N   LIG    1       -0.054   1.428   3.002  0.00  0.00    -0.750 N 
ATOM      9  H   LIG    1        0.798   0.965   2.997  0.00  0.00    +0.390 HD
ATOM     10  O   LIG    1       -2.051   1.693   3.938  0.00  0.00    -0.550 OA
ENDROOT
BRANCH   8  11
ATOM     11  C   LIG    1       -0.292   2.534   2.071  0.00  0.00    +0.320 C 
ATOM     12  C   LIG    1        0.610   2.378   0.847  0.00  0.00    +0.020 C 
ATOM     13  C   LIG    1        0.031   3.120  -0.348  0.00  0.00    +0.020 C 
ATOM     14  C   LIG    1        0.037   4.625  -0.183  0.00  0.00    +0.220 C 
ATOM     15  O   LIG    1       -0.835   5.028   0.877  0.00  0.00    -0.320 OA
ATOM     16  C   LIG    1       -0.283   5.036   2.122  0.00  0.00    +0.130 A 
ATOM     17  C   LIG    1       -0.037   6.245   2.759  0.00  0.00    -0.030 A 
ATOM     18  C   LIG    1        0.543   6.251   4.016  0.00  0.00    +0.110 A 
ATOM     19  C   LIG    1        0.878   5.058   4.634  0.00  0.00    -0.020 A 
ATOM     20  C   LIG    1        0.624   3.854   4.000  0.00  0.00    +0.070 A 
ATOM     21  F   LIG    1        0.783   7.424   4.641  0.00  0.00    -0.140 F 
ATOM     22  C   LIG    1        0.036   3.850   2.751  0.00  0.00    -0.130 A 
ENDBRANCH   8  11
BRANCH   1  26
ATOM     23  C   LIG    1       -5.915   2.468   6.085  0.00  0.00    +0.340 C 
ATOM     24  N   LIG    1       -4.916   1.572   5.497  0.00  0.00    -0.380 N 
ATOM     25  C   LIG    1       -3.849   1.045   6.133  0.00  0.00    +0.220 A 
ATOM     26  C   LIG    1       -3.179   0.276   5.244  0.00  0.00    -0.210 A 
ATOM     27  C   LIG    1       -3.855   0.339   4.022  0.00  0.00    +0.270 A 
ATOM     28  N   LIG    1       -4.901   1.112   4.174  0.00  0.00    -0.300 NA
ENDBRANCH   1  26
TORSDOF 2
