REMARK  Name = ZINCrH000004lXxp.0
REMARK                            x       y       z     vdW  Elec       q    Type
REMARK                         _______ _______ _______ _____ _____    ______ ____
ROOT
ATOM      1  C   LIG    1        3.232   4.044   1.030  0.00  0.00    +0.570 C 
ATOM      2  N   LIG    1        2.594   3.618  -0.078  0.00  0.00    -0.590 N 
ATOM      3  C   LIG    1        3.323   3.493  -1.342  0.00  0.00    +0.300 C 
ATOM      4  O   LIG    1        2.610   4.228   2.058  0.00  0.00    -0.520 OA
ENDROOT
BRANCH   1   7
ATOM      5  C   LIG    1        6.824   4.323   2.105  0.00  0.00    +0.190 A 
ATOM      6  C   LIG    1        5.460   4.094   2.142  0.00  0.00    -0.030 A 
ATOM      7  C   LIG    1        4.690   4.289   0.995  0.00  0.00    -0.040 A 
ATOM      8  C   LIG    1        5.300   4.709  -0.188  0.00  0.00    -0.070 A 
ATOM      9  C   LIG    1        6.665   4.941  -0.215  0.00  0.00    +0.190 A 
ATOM     10  C   LIG    1        7.427   4.746   0.928  0.00  0.00    -0.150 A 
ATOM     11 BR   LIG    1        9.292   5.058   0.883  0.00  0.00    -0.010 Br
BRANCH   5  13
ATOM     12  C   LIG    1        6.890   3.698   4.398  0.00  0.00    +0.250 C 
ATOM     13  O   LIG    1        7.575   4.134   3.222  0.00  0.00    -0.290 OA
ENDBRANCH   5  13
BRANCH   9  14
ATOM     14  O   LIG    1        7.260   5.354  -1.365  0.00  0.00    -0.290 OA
ATOM     15  C   LIG    1        6.416   5.534  -2.504  0.00  0.00    +0.250 C 
ENDBRANCH   9  14
ENDBRANCH   1   7
BRANCH   2  16
ATOM     16  C   LIG    1        1.169   3.280  -0.018  0.00  0.00    +0.340 C 
BRANCH  16  17
ATOM     17  C   LIG    1        1.014   1.821   0.328  0.00  0.00    +0.500 C 
ATOM     18  N   LIG    1       -0.217   1.282   0.439  0.00  0.00    -0.670 N 
ATOM     19  H   LIG    1       -0.999   1.811   0.219  0.00  0.00    +0.410 HD
ATOM     20  O   LIG    1        1.996   1.132   0.506  0.00  0.00    -0.510 OA
BRANCH  18  21
ATOM     21  C   LIG    1       -0.365  -0.043   0.865  0.00  0.00    +0.150 A 
ATOM     22  C   LIG    1        0.623  -0.978   0.585  0.00  0.00    +0.010 A 
ATOM     23  C   LIG    1        0.476  -2.283   1.012  0.00  0.00    +0.030 A 
ATOM     24  C   LIG    1       -0.657  -2.662   1.707  0.00  0.00    -0.010 A 
ATOM     25  C   LIG    1       -1.645  -1.734   1.983  0.00  0.00    -0.070 A 
ATOM     26  C   LIG    1       -2.879  -2.151   2.741  0.00  0.00    +0.090 C 
ATOM     27  C   LIG    1       -1.502  -0.426   1.564  0.00  0.00    -0.110 A 
ATOM     28  C   LIG    1       -2.579   0.585   1.865  0.00  0.00    +0.090 C 
ENDBRANCH  18  21
ENDBRANCH  16  17
ENDBRANCH   2  16
TORSDOF 6
