REMARK  Name = ZINCqH0000000Cw3.0
REMARK                            x       y       z     vdW  Elec       q    Type
REMARK                         _______ _______ _______ _____ _____    ______ ____
ROOT
ATOM      1  N   LIG    1       -1.235   2.068   0.019  0.00  0.00    -0.730 N 
ATOM      2  H   LIG    1       -2.069   1.573   0.020  0.00  0.00    +0.420 HD
ENDROOT
BRANCH   1   3
ATOM      3  C   LIG    1       -0.017   1.385   0.010  0.00  0.00    +0.220 A 
ATOM      4  C   LIG    1        1.179   2.093   0.002  0.00  0.00    +0.020 A 
ATOM      5  C   LIG    1        2.381   1.414  -0.013  0.00  0.00    -0.130 A 
ATOM      6  C   LIG    1        2.396   0.031  -0.021  0.00  0.00    +0.070 A 
ATOM      7  C   LIG    1        1.208  -0.677  -0.013  0.00  0.00    -0.130 A 
ATOM      8  C   LIG    1        0.002  -0.004   0.002  0.00  0.00    +0.040 A 
BRANCH   7   9
ATOM      9  C   LIG    1        1.230  -2.183  -0.021  0.00  0.00    +0.510 C 
ATOM     10  F   LIG    1        0.101  -2.669   0.647  0.00  0.00    -0.170 F 
ATOM     11  F   LIG    1        2.385  -2.637   0.625  0.00  0.00    -0.170 F 
ATOM     12  F   LIG    1        1.223  -2.643  -1.342  0.00  0.00    -0.170 F 
ENDBRANCH   7   9
BRANCH   5  13
ATOM     13  C   LIG    1        3.678   2.181  -0.021  0.00  0.00    +0.510 C 
ATOM     14  F   LIG    1        3.755   2.980   1.125  0.00  0.00    -0.170 F 
ATOM     15  F   LIG    1        3.734   2.992  -1.159  0.00  0.00    -0.170 F 
ATOM     16  F   LIG    1        4.751   1.283  -0.035  0.00  0.00    -0.170 F 
ENDBRANCH   5  13
ENDBRANCH   1   3
BRANCH   1  17
ATOM     17  C   LIG    1       -1.253   3.533   0.027  0.00  0.00    +0.300 C 
BRANCH  17  23
ATOM     18  N   LIG    1       -4.481   7.096   0.062  0.00  0.00    -0.730 N 
ATOM     19  H   LIG    1       -3.751   7.735   0.062  0.00  0.00    +0.400 HD
ATOM     20  C   LIG    1       -4.218   5.774   0.053  0.00  0.00    +0.700 C 
ATOM     21  N   LIG    1       -2.942   5.340   0.045  0.00  0.00    -0.690 N 
ATOM     22  H   LIG    1       -2.213   5.979   0.045  0.00  0.00    +0.410 HD
ATOM     23  C   LIG    1       -2.680   4.018   0.037  0.00  0.00    +0.520 C 
ATOM     24  O   LIG    1       -3.591   3.219   0.037  0.00  0.00    -0.460 OA
ATOM     25  O   LIG    1       -5.132   4.973   0.053  0.00  0.00    -0.520 OA
BRANCH  18  27
ATOM     26  C   LIG    1       -6.577   7.041   1.321  0.00  0.00    +0.030 C 
ATOM     27  C   LIG    1       -5.868   7.567   0.071  0.00  0.00    +0.180 C 
ATOM     28  C   LIG    1       -6.589   7.055  -1.178  0.00  0.00    +0.030 C 
ATOM     29  C   LIG    1       -5.887   9.097   0.079  0.00  0.00    +0.040 C 
ENDBRANCH  18  27
ENDBRANCH  17  23
ENDBRANCH   1  17
TORSDOF 6
