REMARK  Name = ZINCrD000000C51P.0
REMARK                            x       y       z     vdW  Elec       q    Type
REMARK                         _______ _______ _______ _____ _____    ______ ____
ROOT
ATOM      1  N   LIG    1       -0.746   9.891   0.061  0.00  0.00    -0.660 N 
ATOM      2  H   LIG    1        0.221   9.908   0.127  0.00  0.00    +0.420 HD
ATOM      3  C   LIG    1       -1.401   8.713   0.059  0.00  0.00    +0.600 C 
ATOM      4  O   LIG    1       -2.616   8.693   0.061  0.00  0.00    -0.490 OA
ENDROOT
BRANCH   1   7
ATOM      5  C   LIG    1       -3.415  12.397   0.476  0.00  0.00    -0.020 A 
ATOM      6  C   LIG    1       -2.706  11.203   0.571  0.00  0.00    +0.060 A 
ATOM      7  C   LIG    1       -1.462  11.089  -0.032  0.00  0.00    +0.140 A 
ATOM      8  C   LIG    1       -0.925  12.168  -0.724  0.00  0.00    +0.000 A 
ATOM      9  C   LIG    1       -1.632  13.352  -0.822  0.00  0.00    +0.040 A 
ATOM     10  C   LIG    1       -2.870  13.472  -0.225  0.00  0.00    +0.020 A 
BRANCH   5  15
ATOM     11  O   LIG    1       -8.244  12.709   2.864  0.00  0.00    -0.530 OA
ATOM     12  C   LIG    1       -7.157  12.684   2.309  0.00  0.00    +0.480 A 
ATOM     13  C   LIG    1       -6.683  13.822   1.621  0.00  0.00    -0.010 A 
ATOM     14  C   LIG    1       -5.462  13.741   1.018  0.00  0.00    +0.100 A 
ATOM     15  C   LIG    1       -4.746  12.525   1.118  0.00  0.00    +0.100 A 
ATOM     16  N   LIG    1       -5.257  11.509   1.772  0.00  0.00    -0.210 NA
ATOM     17  N   LIG    1       -6.402  11.570   2.349  0.00  0.00    -0.440 N 
ATOM     18  H   LIG    1       -6.734  10.791   2.823  0.00  0.00    +0.440 HD
ENDBRANCH   5  15
ENDBRANCH   1   7
BRANCH   3  19
ATOM     19  C   LIG    1       -0.638   7.441   0.054  0.00  0.00    -0.020 A 
ATOM     20  N   LIG    1        0.666   7.306   0.051  0.00  0.00    -0.330 NA
ATOM     21  O   LIG    1        0.996   6.144   0.047  0.00  0.00    +0.130 OA
ATOM     22  C   LIG    1       -0.070   5.323   0.048  0.00  0.00    +0.020 A 
ATOM     23  C   LIG    1       -1.175   6.127   0.047  0.00  0.00    +0.020 A 
BRANCH  22  24
ATOM     24  C   LIG    1       -0.049   3.845   0.043  0.00  0.00    -0.030 A 
ATOM     25  C   LIG    1        1.167   3.160   0.038  0.00  0.00    +0.040 A 
ATOM     26  C   LIG    1        1.179   1.781   0.034  0.00  0.00    +0.010 A 
ATOM     27  C   LIG    1       -0.011   1.076   0.034  0.00  0.00    +0.030 A 
ATOM     28  C   LIG    1       -1.220   1.748   0.033  0.00  0.00    +0.010 A 
ATOM     29  C   LIG    1       -1.246   3.127   0.043  0.00  0.00    +0.040 A 
ENDBRANCH  22  24
ENDBRANCH   3  19
TORSDOF 4
