REMARK  Name = ZINCrH00000No4LA.0
REMARK                            x       y       z     vdW  Elec       q    Type
REMARK                         _______ _______ _______ _____ _____    ______ ____
ROOT
ATOM      1  C   LIG    1       -0.894   6.908  -1.044  0.00  0.00    +0.520 C 
ATOM      2  N   LIG    1       -0.613   7.822  -1.994  0.00  0.00    -0.730 N 
ATOM      3  H   LIG    1        0.298   7.928  -2.310  0.00  0.00    +0.400 HD
ATOM      4  O   LIG    1       -2.033   6.776  -0.648  0.00  0.00    -0.520 OA
ENDROOT
BRANCH   1   5
ATOM      5  C   LIG    1        0.206   6.051  -0.474  0.00  0.00    +0.040 C 
ATOM      6  C   LIG    1        1.265   6.944   0.175  0.00  0.00    +0.060 C 
BRANCH   5  10
ATOM      7  C   LIG    1       -1.427   3.412   2.469  0.00  0.00    +0.100 A 
ATOM      8  C   LIG    1       -1.532   4.783   2.630  0.00  0.00    -0.030 A 
ATOM      9  C   LIG    1       -1.003   5.634   1.677  0.00  0.00    +0.040 A 
ATOM     10  C   LIG    1       -0.368   5.119   0.562  0.00  0.00    -0.070 A 
ATOM     11  C   LIG    1       -0.254   3.751   0.398  0.00  0.00    -0.030 A 
ATOM     12  C   LIG    1       -0.787   2.893   1.346  0.00  0.00    +0.100 A 
BRANCH   7  14
ATOM     13  C   LIG    1       -2.589   3.177   4.530  0.00  0.00    +0.240 C 
ATOM     14  O   LIG    1       -1.947   2.574   3.405  0.00  0.00    -0.310 OA
ENDBRANCH   7  14
BRANCH  12  15
ATOM     15  O   LIG    1       -0.682   1.547   1.184  0.00  0.00    -0.310 OA
ATOM     16  C   LIG    1       -0.013   1.086   0.008  0.00  0.00    +0.230 C 
ENDBRANCH  12  15
ENDBRANCH   5  10
ENDBRANCH   1   5
BRANCH   2  17
ATOM     17  C   LIG    1       -1.682   8.656  -2.548  0.00  0.00    +0.330 C 
ATOM     18  C   LIG    1       -1.898   9.873  -1.647  0.00  0.00    +0.060 C 
BRANCH  17  19
ATOM     19  C   LIG    1       -1.296   9.115  -3.930  0.00  0.00    +0.090 A 
ATOM     20  C   LIG    1       -0.184   8.706  -4.541  0.00  0.00    -0.110 A 
ATOM     21  S   LIG    1       -0.116   9.473  -6.125  0.00  0.00    +0.100 S 
ATOM     22  C   LIG    1       -1.589  10.280  -5.810  0.00  0.00    +0.230 A 
ATOM     23  N   LIG    1       -2.029   9.961  -4.632  0.00  0.00    -0.480 NA
BRANCH  22  24
ATOM     24  N   LIG    1       -2.222  11.149  -6.685  0.00  0.00    -0.430 N 
ATOM     25  C   LIG    1       -2.311  12.515  -6.107  0.00  0.00    +0.210 C 
ATOM     26  C   LIG    1       -2.529  13.412  -7.351  0.00  0.00    +0.030 C 
ATOM     27  C   LIG    1       -1.639  12.742  -8.422  0.00  0.00    +0.030 C 
ATOM     28  C   LIG    1       -1.452  11.291  -7.940  0.00  0.00    +0.190 C 
ENDBRANCH  22  24
ENDBRANCH  17  19
ENDBRANCH   2  17
TORSDOF 7
