REMARK  Name = ZINCpk00000KeViw.0
REMARK                            x       y       z     vdW  Elec       q    Type
REMARK                         _______ _______ _______ _____ _____    ______ ____
ROOT
ATOM      1  C   LIG    1        0.002  -0.004   0.002  0.00  0.00    +0.500 C 
ATOM      2  N   LIG    1       -0.016   1.344   0.009  0.00  0.00    -0.610 N 
ATOM      3  C   LIG    1       -1.290   2.075   0.019  0.00  0.00    +0.270 C 
ATOM      4  C   LIG    1       -1.301   3.072  -1.137  0.00  0.00    +0.030 C 
ATOM      5  C   LIG    1       -0.062   3.966  -1.048  0.00  0.00    +0.030 C 
ATOM      6  C   LIG    1        1.199   3.107  -1.161  0.00  0.00    +0.220 C 
ATOM      7  C   LIG    1        1.238   2.109   0.002  0.00  0.00    +0.290 C 
ATOM      8  O   LIG    1        1.060  -0.596  -0.011  0.00  0.00    -0.520 OA
ENDROOT
BRANCH   6   9
ATOM      9  N   LIG    1        2.384   3.966  -1.107  0.00  0.00    -0.460 N 
ATOM     10  C   LIG    1        3.344   4.088  -2.076  0.00  0.00    +0.120 A 
ATOM     11  C   LIG    1        4.246   4.978  -1.620  0.00  0.00    +0.140 A 
ATOM     12  N   LIG    1        3.849   5.387  -0.406  0.00  0.00    -0.490 NA
ATOM     13  C   LIG    1        2.732   4.790  -0.095  0.00  0.00    +0.380 A 
ENDBRANCH   6   9
BRANCH   1  14
ATOM     14  C   LIG    1       -1.293  -0.775   0.010  0.00  0.00    +0.340 C 
BRANCH  14  25
ATOM     15  O   LIG    1       -0.969  -2.303   2.239  0.00  0.00    -0.510 OA
ATOM     16  C   LIG    1       -0.863  -2.876   1.171  0.00  0.00    +0.560 A 
ATOM     17  C   LIG    1       -0.575  -4.316   1.101  0.00  0.00    -0.190 A 
ATOM     18  C   LIG    1       -0.411  -5.091   2.247  0.00  0.00    +0.100 A 
ATOM     19  C   LIG    1       -0.144  -6.437   2.124  0.00  0.00    +0.000 A 
ATOM     20  C   LIG    1       -0.037  -7.024   0.871  0.00  0.00    +0.070 A 
ATOM     21  C   LIG    1       -0.196  -6.276  -0.275  0.00  0.00    +0.030 A 
ATOM     22  C   LIG    1       -0.467  -4.910  -0.176  0.00  0.00    +0.150 A 
ATOM     23  N   LIG    1       -0.632  -4.136  -1.278  0.00  0.00    -0.520 NA
ATOM     24  C   LIG    1       -0.890  -2.866  -1.185  0.00  0.00    +0.580 A 
ATOM     25  N   LIG    1       -1.005  -2.212  -0.000  0.00  0.00    -0.540 N 
ENDBRANCH  14  25
ENDBRANCH   1  14
TORSDOF 3
