REMARK  Name = ZINCrg000000oHOO.0
REMARK                            x       y       z     vdW  Elec       q    Type
REMARK                         _______ _______ _______ _____ _____    ______ ____
ROOT
ATOM      1  C   LIG    1       -1.011  -0.043  -2.316  0.00  0.00    +0.300 C 
ATOM      2  N   LIG    1       -1.059  -0.478  -0.918  0.00  0.00    -0.580 N 
ATOM      3  C   LIG    1       -2.039  -1.305  -0.503  0.00  0.00    +0.500 C 
ATOM      4  O   LIG    1       -2.042  -1.717   0.639  0.00  0.00    -0.520 OA
ENDROOT
BRANCH   2   5
ATOM      5  C   LIG    1       -0.042  -0.013   0.029  0.00  0.00    +0.290 C 
ATOM      6  C   LIG    1        1.333  -0.484  -0.439  0.00  0.00    +0.010 C 
ATOM      7  C   LIG    1        2.398   0.189   0.435  0.00  0.00    +0.030 C 
ATOM      8  C   LIG    1        2.434   1.677   0.092  0.00  0.00    +0.080 C 
ATOM      9  C   LIG    1        1.049   2.266   0.143  0.00  0.00    -0.060 A 
ATOM     10  C   LIG    1        0.936   3.648   0.224  0.00  0.00    +0.000 A 
ATOM     11  C   LIG    1       -0.305   4.249   0.268  0.00  0.00    +0.010 A 
ATOM     12  C   LIG    1       -1.446   3.470   0.232  0.00  0.00    +0.000 A 
ATOM     13  C   LIG    1       -1.337   2.097   0.159  0.00  0.00    +0.010 A 
ATOM     14  C   LIG    1       -0.089   1.490   0.110  0.00  0.00    -0.100 A 
ENDBRANCH   2   5
BRANCH   3  15
ATOM     15  C   LIG    1       -3.121  -1.715  -1.448  0.00  0.00    +0.510 C 
ATOM     16  N   LIG    1       -4.164  -2.444  -1.004  0.00  0.00    -0.700 N 
ATOM     17  H   LIG    1       -4.212  -2.702  -0.070  0.00  0.00    +0.410 HD
ATOM     18  O   LIG    1       -3.061  -1.391  -2.616  0.00  0.00    -0.510 OA
BRANCH  16  19
ATOM     19  C   LIG    1       -5.225  -2.845  -1.930  0.00  0.00    +0.240 C 
ATOM     20  C   LIG    1       -6.253  -1.717  -2.049  0.00  0.00    +0.000 C 
ATOM     21  C   LIG    1       -7.342  -2.126  -3.045  0.00  0.00    +0.300 C 
ATOM     22  N   LIG    1       -7.907  -3.415  -2.624  0.00  0.00    -1.000 NA
ATOM     23  C   LIG    1       -6.997  -4.545  -2.392  0.00  0.00    +0.310 C 
ATOM     24  C   LIG    1       -5.911  -4.108  -1.404  0.00  0.00    +0.020 C 
BRANCH  22  25
ATOM     25  S   LIG    1       -9.541  -3.592  -2.414  0.00  0.00    +2.610 S 
ATOM     26  O   LIG    1       -9.774  -4.977  -2.630  0.00  0.00    -0.950 OA
ATOM     27  O   LIG    1      -10.112  -2.610  -3.269  0.00  0.00    -0.950 OA
ATOM     28  C   LIG    1       -9.823  -3.163  -0.674  0.00  0.00    -0.280 C 
ENDBRANCH  22  25
ENDBRANCH  16  19
ENDBRANCH   3  15
TORSDOF 4
