REMARK  Name = ZINCrg00000b7e3N.0
REMARK                            x       y       z     vdW  Elec       q    Type
REMARK                         _______ _______ _______ _____ _____    ______ ____
ROOT
ATOM      1  C   LIG    1        1.220  -0.378  -0.192  0.00  0.00    +0.360 A 
ATOM      2  N   LIG    1       -0.012   0.075  -0.104  0.00  0.00    -0.300 NA
ATOM      3  N   LIG    1       -0.001   1.340   0.122  0.00  0.00    -0.260 NA
ATOM      4  C   LIG    1        1.237   1.771   0.193  0.00  0.00    +0.230 A 
ATOM      5  N   LIG    1        2.055   0.683  -0.007  0.00  0.00    -0.440 N 
ENDROOT
BRANCH   1   9
ATOM      6  N   LIG    1        1.394  -4.432  -0.867  0.00  0.00    -1.000 NA
ATOM      7  C   LIG    1        1.786  -3.958   0.469  0.00  0.00    +0.320 C 
ATOM      8  C   LIG    1        1.195  -2.560   0.682  0.00  0.00    +0.200 C 
ATOM      9  N   LIG    1        1.597  -1.687  -0.429  0.00  0.00    -0.460 N 
ATOM     10  C   LIG    1        1.056  -2.168  -1.707  0.00  0.00    +0.200 C 
ATOM     11  C   LIG    1        1.641  -3.550  -2.018  0.00  0.00    +0.320 C 
BRANCH   6  13
ATOM     12  C   LIG    1       -1.086  -5.605  -0.915  0.00  0.00    -0.280 C 
ATOM     13  S   LIG    1        0.694  -5.918  -1.070  0.00  0.00    +2.610 S 
ATOM     14  O   LIG    1        1.164  -6.681   0.034  0.00  0.00    -0.950 OA
ATOM     15  O   LIG    1        1.022  -6.281  -2.404  0.00  0.00    -0.950 OA
ENDBRANCH   6  13
ENDBRANCH   1   9
BRANCH   4  16
ATOM     16  C   LIG    1        1.669   3.163   0.439  0.00  0.00    +0.200 A 
ATOM     17  C   LIG    1        0.714   4.164   0.617  0.00  0.00    +0.030 A 
ATOM     18  C   LIG    1        1.135   5.460   0.852  0.00  0.00    +0.070 A 
ATOM     19  C   LIG    1        2.498   5.718   0.890  0.00  0.00    -0.020 A 
ATOM     20  C   LIG    1        3.391   4.680   0.700  0.00  0.00    +0.280 A 
ATOM     21  N   LIG    1        2.965   3.452   0.483  0.00  0.00    -0.480 NA
ENDBRANCH   4  16
BRANCH   5  22
ATOM     22  C   LIG    1        3.520   0.668  -0.018  0.00  0.00    +0.460 C 
BRANCH  22  23
ATOM     23  C   LIG    1        4.013   0.806  -1.435  0.00  0.00    -0.040 A 
ATOM     24  C   LIG    1        4.351   1.958  -2.042  0.00  0.00    -0.020 A 
ATOM     25  C   LIG    1        4.755   1.627  -3.356  0.00  0.00    -0.070 A 
ATOM     26  C   LIG    1        4.639   0.292  -3.473  0.00  0.00    +0.190 A 
ATOM     27  O   LIG    1        4.195  -0.200  -2.305  0.00  0.00    -0.160 OA
ENDBRANCH  22  23
ENDBRANCH   5  22
TORSDOF 5
