REMARK  Name = ZINCpe00000FUgre.0
REMARK                            x       y       z     vdW  Elec       q    Type
REMARK                         _______ _______ _______ _____ _____    ______ ____
ROOT
ATOM      1  N   LIG    1        3.595   1.704  -0.405  0.00  0.00    -0.170 NA
ATOM      2  N   LIG    1        4.649   1.141  -0.737  0.00  0.00    -0.140 NA
ENDROOT
BRANCH   1   3
ATOM      3  C   LIG    1        2.437   1.016  -0.395  0.00  0.00    +0.510 C 
ATOM      4  O   LIG    1        2.425  -0.158  -0.713  0.00  0.00    -0.420 OA
BRANCH   3   9
ATOM      5  C   LIG    1       -2.466   0.954  -0.344  0.00  0.00    +0.330 C 
ATOM      6  N   LIG    1       -1.231   1.654   0.017  0.00  0.00    -0.410 N 
ATOM      7  N   LIG    1       -0.011   0.966   0.007  0.00  0.00    -0.540 N 
ATOM      8  H   LIG    1        0.002  -0.004   0.002  0.00  0.00    +0.430 HD
ATOM      9  C   LIG    1        1.186   1.685  -0.000  0.00  0.00    +0.100 C 
ATOM     10  C   LIG    1        1.206   2.975   0.347  0.00  0.00    +0.010 C 
ATOM     11  C   LIG    1       -0.037   3.705   0.764  0.00  0.00    +0.140 C 
ATOM     12  C   LIG    1       -1.272   2.954   0.360  0.00  0.00    +0.520 C 
ATOM     13  O   LIG    1       -2.336   3.536   0.339  0.00  0.00    -0.530 OA
ENDBRANCH   3   9
ENDBRANCH   1   3
BRANCH   2  14
ATOM     14  C   LIG    1        5.807   1.830  -0.747  0.00  0.00    +0.540 C 
ATOM     15  O   LIG    1        5.820   3.004  -0.429  0.00  0.00    -0.420 OA
BRANCH  14  16
ATOM     16  C   LIG    1        7.054   1.163  -1.140  0.00  0.00    +0.030 A 
ATOM     17  C   LIG    1        8.260   1.808  -1.169  0.00  0.00    -0.010 A 
ATOM     18  S   LIG    1        9.468   0.709  -1.674  0.00  0.00    +0.170 S 
ATOM     19  C   LIG    1        8.274  -0.575  -1.822  0.00  0.00    +0.240 A 
ATOM     20  N   LIG    1        7.104  -0.125  -1.494  0.00  0.00    -0.440 NA
BRANCH  19  21
ATOM     21  N   LIG    1        8.544  -1.870  -2.221  0.00  0.00    -0.430 N 
ATOM     22  C   LIG    1        8.097  -2.837  -1.209  0.00  0.00    +0.190 C 
ATOM     23  C   LIG    1        8.361  -4.258  -1.716  0.00  0.00    +0.240 C 
ATOM     24  O   LIG    1        9.751  -4.398  -2.024  0.00  0.00    -0.380 OA
ATOM     25  C   LIG    1       10.220  -3.472  -3.007  0.00  0.00    +0.250 C 
ATOM     26  C   LIG    1        9.975  -2.044  -2.512  0.00  0.00    +0.170 C 
ENDBRANCH  19  21
ENDBRANCH  14  16
ENDBRANCH   2  14
TORSDOF 5
