REMARK  Name = ZINCkj000005eOxa.0
REMARK                            x       y       z     vdW  Elec       q    Type
REMARK                         _______ _______ _______ _____ _____    ______ ____
ROOT
ATOM      1  C   LIG    1       -3.802   1.592   0.118  0.00  0.00    +0.140 A 
ATOM      2  C   LIG    1       -2.536   1.028   0.104  0.00  0.00    +0.100 A 
ATOM      3  C   LIG    1       -1.415   1.845  -0.038  0.00  0.00    -0.130 A 
ATOM      4  C   LIG    1       -1.576   3.225  -0.175  0.00  0.00    +0.020 A 
ATOM      5  C   LIG    1       -2.841   3.777  -0.164  0.00  0.00    +0.030 A 
ATOM      6  C   LIG    1       -3.952   2.967  -0.018  0.00  0.00    -0.080 A 
ATOM      7  C   LIG    1       -5.330   3.577  -0.008  0.00  0.00    +0.100 C 
ENDROOT
BRANCH   3   8
ATOM      8  C   LIG    1       -0.061   1.252  -0.050  0.00  0.00    +0.600 C 
ATOM      9  N   LIG    1        1.008   2.019  -0.342  0.00  0.00    -0.640 N 
ATOM     10  C   LIG    1        1.229   3.404  -0.784  0.00  0.00    +0.320 C 
ATOM     11  C   LIG    1        2.533   2.933  -1.436  0.00  0.00    +0.150 C 
ATOM     12  C   LIG    1        2.467   1.836  -0.364  0.00  0.00    +0.320 C 
ATOM     13  O   LIG    1        0.087   0.071   0.199  0.00  0.00    -0.500 OA
BRANCH  11  14
ATOM     14  N   LIG    1        3.659   3.863  -1.278  0.00  0.00    -0.380 N 
ATOM     15  C   LIG    1        3.623   4.864  -2.352  0.00  0.00    +0.320 C 
ATOM     16  C   LIG    1        4.923   3.118  -1.346  0.00  0.00    +0.330 C 
ATOM     17  H   LIG    1        3.590   4.327  -0.384  0.00  0.00    +0.430 HD
ENDBRANCH  11  14
ENDBRANCH   3   8
BRANCH   1  20
ATOM     18  C   LIG    1       -6.101  -1.163   1.257  0.00  0.00    +0.120 C 
ATOM     19  C   LIG    1       -4.864  -0.336   1.023  0.00  0.00    +0.510 C 
ATOM     20  N   LIG    1       -4.930   0.777   0.265  0.00  0.00    -0.680 N 
ATOM     21  H   LIG    1       -5.760   1.012  -0.179  0.00  0.00    +0.420 HD
ATOM     22  O   LIG    1       -3.808  -0.671   1.516  0.00  0.00    -0.520 OA
ENDBRANCH   1  20
TORSDOF 3
