REMARK  Name = ZINCvU00000006OM.0
REMARK                            x       y       z     vdW  Elec       q    Type
REMARK                         _______ _______ _______ _____ _____    ______ ____
ROOT
ATOM      1  C   LIG    1       -1.546   6.775  -0.448  0.00  0.00    +0.370 A 
ATOM      2  N   LIG    1       -2.544   5.925  -0.464  0.00  0.00    -0.510 NA
ATOM      3  C   LIG    1       -3.757   6.252   0.029  0.00  0.00    +0.090 A 
ATOM      4  C   LIG    1       -3.966   7.519   0.558  0.00  0.00    -0.230 A 
ATOM      5  C   LIG    1       -5.329   7.711   1.042  0.00  0.00    -0.030 A 
ATOM      6  C   LIG    1       -6.112   6.643   0.886  0.00  0.00    -0.200 A 
ATOM      7  C   LIG    1       -7.571   6.581   1.304  0.00  0.00    +0.120 C 
ATOM      8  C   LIG    1       -7.855   7.731   2.273  0.00  0.00    +0.020 C 
ATOM      9  C   LIG    1       -7.335   9.036   1.662  0.00  0.00    +0.020 C 
ATOM     10  C   LIG    1       -5.805   9.016   1.667  0.00  0.00    +0.110 C 
ATOM     11  C   LIG    1       -2.872   8.436   0.564  0.00  0.00    +0.570 A 
ATOM     12  O   LIG    1       -3.006   9.560   1.017  0.00  0.00    -0.500 OA
ATOM     13  S   LIG    1       -5.240   5.317   0.135  0.00  0.00    +0.200 S 
ATOM     14  N   LIG    1       -1.688   8.037   0.059  0.00  0.00    -0.470 N 
ENDROOT
BRANCH  14  15
ATOM     15  C   LIG    1       -0.600   8.919   0.052  0.00  0.00    +0.090 A 
ATOM     16  C   LIG    1        0.268   8.960   1.135  0.00  0.00    +0.040 A 
ATOM     17  C   LIG    1        1.344   9.826   1.123  0.00  0.00    +0.030 A 
ATOM     18  C   LIG    1        1.551  10.659   0.039  0.00  0.00    +0.030 A 
ATOM     19  C   LIG    1        0.685  10.625  -1.038  0.00  0.00    +0.030 A 
ATOM     20  C   LIG    1       -0.389   9.757  -1.035  0.00  0.00    +0.040 A 
ENDBRANCH  14  15
BRANCH   1  21
ATOM     21  S   LIG    1        0.014   6.282  -1.101  0.00  0.00    +0.090 S 
BRANCH  21  22
ATOM     22  C   LIG    1       -0.377   4.588  -1.604  0.00  0.00    +0.100 C 
BRANCH  22  24
ATOM     23  O   LIG    1        1.880   4.576  -2.292  0.00  0.00    -0.420 OA
ATOM     24  C   LIG    1        0.846   3.948  -2.209  0.00  0.00    +0.410 C 
BRANCH  24  25
ATOM     25  C   LIG    1        0.785   2.564  -2.699  0.00  0.00    -0.200 A 
ATOM     26  C   LIG    1       -0.406   1.836  -2.606  0.00  0.00    +0.100 A 
ATOM     27  C   LIG    1       -0.456   0.539  -3.068  0.00  0.00    +0.000 A 
ATOM     28  C   LIG    1        0.669  -0.047  -3.623  0.00  0.00    +0.090 A 
ATOM     29  C   LIG    1        1.852   0.662  -3.720  0.00  0.00    -0.020 A 
ATOM     30  C   LIG    1        1.920   1.965  -3.262  0.00  0.00    +0.160 A 
ATOM     31  F   LIG    1        3.076   2.658  -3.357  0.00  0.00    -0.110 F 
ENDBRANCH  24  25
ENDBRANCH  22  24
ENDBRANCH  21  22
ENDBRANCH   1  21
TORSDOF 5
