REMARK  Name = ZINCrH00000tj15W.0
REMARK                            x       y       z     vdW  Elec       q    Type
REMARK                         _______ _______ _______ _____ _____    ______ ____
ROOT
ATOM      1  C   LIG    1       -5.803   5.028  -0.350  0.00  0.00    +0.150 C 
ATOM      2  C   LIG    1       -5.219   3.639  -0.311  0.00  0.00    -0.190 A 
ATOM      3  C   LIG    1       -3.931   3.378  -0.203  0.00  0.00    -0.050 A 
ATOM      4  C   LIG    1       -3.595   1.967  -0.186  0.00  0.00    -0.170 A 
ATOM      5  C   LIG    1       -2.338   1.322  -0.084  0.00  0.00    +0.440 A 
ATOM      6  N   LIG    1       -2.293  -0.000  -0.096  0.00  0.00    -0.570 NA
ATOM      7  C   LIG    1       -3.396  -0.722  -0.191  0.00  0.00    +0.370 A 
ATOM      8  N   LIG    1       -4.584  -0.173  -0.288  0.00  0.00    -0.490 NA
ATOM      9  C   LIG    1       -4.731   1.157  -0.290  0.00  0.00    +0.110 A 
ATOM     10  C   LIG    1       -2.888   4.462  -0.105  0.00  0.00    +0.130 C 
ATOM     11  S   LIG    1       -6.165   2.166  -0.404  0.00  0.00    +0.180 S 
ENDROOT
BRANCH   7  12
ATOM     12  C   LIG    1       -3.285  -2.225  -0.194  0.00  0.00    +0.300 C 
BRANCH  12  13
ATOM     13  N   LIG    1       -3.131  -2.701  -1.575  0.00  0.00    -0.510 NA
ATOM     14  C   LIG    1       -2.014  -1.999  -2.259  0.00  0.00    +0.160 C 
ATOM     15  C   LIG    1       -1.665  -2.948  -3.433  0.00  0.00    +0.020 C 
ATOM     16  C   LIG    1       -1.845  -4.351  -2.808  0.00  0.00    +0.010 C 
ATOM     17  C   LIG    1       -2.781  -4.138  -1.604  0.00  0.00    +0.170 C 
ENDBRANCH  12  13
ENDBRANCH   7  12
BRANCH   5  18
ATOM     18  O   LIG    1       -1.199   2.048   0.019  0.00  0.00    -0.220 OA
BRANCH  18  19
ATOM     19  C   LIG    1       -0.017   1.383   0.005  0.00  0.00    +0.150 A 
ATOM     20  C   LIG    1        0.579   0.997   1.197  0.00  0.00    +0.020 A 
ATOM     21  C   LIG    1        1.780   0.315   1.182  0.00  0.00    +0.060 A 
ATOM     22  C   LIG    1        2.398   0.012  -0.020  0.00  0.00    +0.020 A 
ATOM     23  C   LIG    1        1.820   0.388  -1.214  0.00  0.00    +0.050 A 
ATOM     24  C   LIG    1        0.606   1.077  -1.213  0.00  0.00    -0.140 A 
BRANCH  24  25
ATOM     25  C   LIG    1       -0.018   1.482  -2.487  0.00  0.00    +0.560 C 
ATOM     26  O   LIG    1       -1.076   2.083  -2.482  0.00  0.00    -0.520 OA
ATOM     27  N   LIG    1        0.583   1.187  -3.656  0.00  0.00    -0.850 N 
ATOM     28  H   LIG    1        0.173   1.453  -4.494  0.00  0.00    +0.410 HD
ATOM     29  H   LIG    1        1.427   0.708  -3.660  0.00  0.00    +0.400 HD
ENDBRANCH  24  25
ENDBRANCH  18  19
ENDBRANCH   5  18
TORSDOF 5
