REMARK  Name = ZINCtV000002DmI8.0
REMARK                            x       y       z     vdW  Elec       q    Type
REMARK                         _______ _______ _______ _____ _____    ______ ____
ROOT
ATOM      1  C   LIG    1       -6.174   7.221   0.514  0.00  0.00    +0.190 A 
ATOM      2  C   LIG    1       -6.158   5.833   0.402  0.00  0.00    -0.010 A 
ATOM      3  C   LIG    1       -4.961   5.165   0.280  0.00  0.00    +0.110 A 
ATOM      4  C   LIG    1       -3.760   5.881   0.278  0.00  0.00    -0.140 A 
ATOM      5  C   LIG    1       -3.780   7.274   0.391  0.00  0.00    +0.180 A 
ATOM      6  C   LIG    1       -4.980   7.937   0.508  0.00  0.00    -0.030 A 
ENDROOT
BRANCH   1  12
ATOM      7  C   LIG    1      -10.047   7.998   3.336  0.00  0.00    +0.020 C 
ATOM      8  C   LIG    1       -9.322   8.392   2.047  0.00  0.00    +0.000 C 
ATOM      9  C   LIG    1      -10.252   8.170   0.851  0.00  0.00    +0.020 C 
ATOM     10  C   LIG    1       -9.500   8.510  -0.439  0.00  0.00    -0.010 C 
ATOM     11  C   LIG    1       -8.242   7.644  -0.534  0.00  0.00    +0.190 C 
ATOM     12  N   LIG    1       -7.386   7.893   0.633  0.00  0.00    -0.500 N 
ATOM     13  C   LIG    1       -9.103   9.988  -0.426  0.00  0.00    +0.030 C 
ATOM     14  C   LIG    1       -8.070   7.529   1.881  0.00  0.00    +0.190 C 
ENDBRANCH   1  12
BRANCH   4  15
ATOM     15  C   LIG    1       -2.475   5.168   0.152  0.00  0.00    +0.570 C 
ATOM     16  N   LIG    1       -2.457   3.825   0.044  0.00  0.00    -0.660 N 
ATOM     17  H   LIG    1       -3.290   3.333  -0.032  0.00  0.00    +0.420 HD
ATOM     18  O   LIG    1       -1.431   5.792   0.145  0.00  0.00    -0.490 OA
BRANCH  16  19
ATOM     19  C   LIG    1       -1.238   3.139   0.041  0.00  0.00    +0.180 A 
ATOM     20  C   LIG    1       -0.121   3.704   0.641  0.00  0.00    +0.080 A 
ATOM     21  C   LIG    1        1.083   3.024   0.637  0.00  0.00    -0.000 A 
ATOM     22  C   LIG    1        1.176   1.781   0.033  0.00  0.00    -0.040 A 
ATOM     23  C   LIG    1        0.064   1.216  -0.566  0.00  0.00    +0.100 A 
ATOM     24 CL   LIG    1        2.689   0.931   0.028  0.00  0.00    -0.030 Cl
ATOM     25 CL   LIG    1        2.480   3.729   1.388  0.00  0.00    -0.030 Cl
ATOM     26  C   LIG    1       -1.141   1.893  -0.569  0.00  0.00    -0.060 A 
ATOM     27 CL   LIG    1       -2.533   1.186  -1.327  0.00  0.00    -0.040 Cl
ENDBRANCH  16  19
ENDBRANCH   4  15
BRANCH   6  28
ATOM     28  N   LIG    1       -5.002   9.412   0.626  0.00  0.00    +0.030 N 
ATOM     29  O   LIG    1       -6.064   9.999   0.730  0.00  0.00    -0.090 OA
ATOM     30  O   LIG    1       -3.958  10.039   0.620  0.00  0.00    -0.190 OA
ENDBRANCH   6  28
TORSDOF 4
