REMARK  Name = ZINCrg00000fSFIa.0
REMARK                            x       y       z     vdW  Elec       q    Type
REMARK                         _______ _______ _______ _____ _____    ______ ____
ROOT
ATOM      1  O   LIG    1        0.067  -2.247   3.516  0.00  0.00    -0.510 OA
ATOM      2  C   LIG    1        0.064  -2.845   2.458  0.00  0.00    +0.560 C 
ATOM      3  N   LIG    1        0.082  -4.193   2.445  0.00  0.00    -0.720 N 
ATOM      4  H   LIG    1        0.080  -4.670   1.600  0.00  0.00    +0.400 HD
ENDROOT
BRANCH   2   5
ATOM      5  C   LIG    1        0.041  -2.094   1.184  0.00  0.00    -0.140 A 
ATOM      6  C   LIG    1        0.039  -2.778  -0.033  0.00  0.00    +0.060 A 
ATOM      7  C   LIG    1        0.018  -2.071  -1.217  0.00  0.00    +0.000 A 
ATOM      8  C   LIG    1       -0.006  -0.688  -1.201  0.00  0.00    +0.060 A 
ATOM      9  C   LIG    1        0.002  -0.004   0.002  0.00  0.00    -0.130 A 
ATOM     10  C   LIG    1        0.023  -0.699   1.194  0.00  0.00    +0.120 A 
BRANCH   9  11
ATOM     11  C   LIG    1       -0.018   1.503   0.010  0.00  0.00    +0.390 C 
BRANCH  11  12
ATOM     12  N   LIG    1        1.356   2.010  -0.000  0.00  0.00    -0.290 N 
ATOM     13  C   LIG    1        1.874   2.879  -0.899  0.00  0.00    +0.140 A 
ATOM     14  C   LIG    1        3.163   3.073  -0.536  0.00  0.00    +0.140 A 
ATOM     15  N   LIG    1        3.369   2.322   0.552  0.00  0.00    -0.270 NA
ATOM     16  N   LIG    1        2.277   1.709   0.847  0.00  0.00    -0.080 NA
ENDBRANCH  11  12
ENDBRANCH   9  11
ENDBRANCH   2   5
BRANCH   3  17
ATOM     17  C   LIG    1        0.104  -4.937   3.707  0.00  0.00    +0.260 C 
ATOM     18  C   LIG    1        0.718  -6.335   3.485  0.00  0.00    +0.050 C 
ATOM     19  C   LIG    1       -0.110  -7.263   4.410  0.00  0.00    +0.000 C 
ATOM     20  C   LIG    1       -1.542  -6.687   4.280  0.00  0.00    +0.000 C 
ATOM     21  C   LIG    1       -1.331  -5.161   4.213  0.00  0.00    +0.150 C 
BRANCH  21  22
ATOM     22  O   LIG    1       -1.488  -4.587   5.512  0.00  0.00    -0.550 OA
ATOM     23  H   LIG    1       -2.373  -4.695   5.886  0.00  0.00    +0.380 HD
ENDBRANCH  21  22
BRANCH  19  24
ATOM     24  C   LIG    1       -0.061  -8.711   3.917  0.00  0.00    +0.330 C 
BRANCH  24  25
ATOM     25  N   LIG    1       -0.853  -9.558   4.811  0.00  0.00    -0.370 N 
ATOM     26  C   LIG    1       -1.866 -10.371   4.444  0.00  0.00    +0.220 A 
ATOM     27  C   LIG    1       -2.334 -10.977   5.560  0.00  0.00    -0.120 A 
ATOM     28  C   LIG    1       -1.581 -10.519   6.646  0.00  0.00    +0.220 A 
ATOM     29  N   LIG    1       -0.690  -9.672   6.198  0.00  0.00    -0.290 NA
ENDBRANCH  24  25
ENDBRANCH  19  24
ENDBRANCH   3  17
TORSDOF 7
