REMARK  Name = ZINCvU0000000AjL.0
REMARK                            x       y       z     vdW  Elec       q    Type
REMARK                         _______ _______ _______ _____ _____    ______ ____
ROOT
ATOM      1  O   LIG    1        7.577   2.066   0.267  0.00  0.00    -0.500 OA
ATOM      2  C   LIG    1        7.548   0.864   0.104  0.00  0.00    +0.540 C 
ATOM      3  N   LIG    1        8.695   0.181  -0.082  0.00  0.00    -0.660 N 
ATOM      4  H   LIG    1        8.680  -0.787  -0.136  0.00  0.00    +0.420 HD
ENDROOT
BRANCH   3   5
ATOM      5  C   LIG    1        9.905   0.867  -0.195  0.00  0.00    +0.180 A 
ATOM      6  C   LIG    1        9.939   2.119  -0.802  0.00  0.00    +0.010 A 
ATOM      7  C   LIG    1       11.130   2.801  -0.912  0.00  0.00    +0.070 A 
ATOM      8  C   LIG    1       12.309   2.229  -0.422  0.00  0.00    +0.030 A 
ATOM      9  C   LIG    1       12.272   0.968   0.182  0.00  0.00    +0.110 A 
ATOM     10  C   LIG    1       11.076   0.295   0.293  0.00  0.00    -0.010 A 
BRANCH   8  11
ATOM     11  N   LIG    1       13.492   2.899  -0.535  0.00  0.00    -0.210 NA
ATOM     12  N   LIG    1       13.525   4.062  -1.093  0.00  0.00    -0.210 NA
BRANCH  12  13
ATOM     13  C   LIG    1       14.710   4.733  -1.206  0.00  0.00    +0.040 A 
ATOM     14  C   LIG    1       15.888   4.166  -0.712  0.00  0.00    +0.040 A 
ATOM     15  C   LIG    1       17.081   4.847  -0.833  0.00  0.00    +0.000 A 
ATOM     16  C   LIG    1       17.112   6.094  -1.433  0.00  0.00    +0.040 A 
ATOM     17  C   LIG    1       15.949   6.665  -1.919  0.00  0.00    +0.000 A 
ATOM     18  C   LIG    1       14.749   5.993  -1.809  0.00  0.00    +0.080 A 
ENDBRANCH  12  13
ENDBRANCH   8  11
ENDBRANCH   3   5
BRANCH   2  19
ATOM     19  C   LIG    1        6.229   0.135   0.108  0.00  0.00    +0.110 C 
BRANCH  19  20
ATOM     20  S   LIG    1        4.883   1.321   0.378  0.00  0.00    +0.090 S 
BRANCH  20  21
ATOM     21  C   LIG    1        3.446   0.302   0.352  0.00  0.00    +0.190 A 
ATOM     22  N   LIG    1        3.425  -0.996   0.173  0.00  0.00    -0.280 NA
ATOM     23  N   LIG    1        2.091  -1.419   0.220  0.00  0.00    -0.320 NA
ATOM     24  C   LIG    1        1.337  -0.363   0.426  0.00  0.00    +0.440 A 
ATOM     25  N   LIG    1        0.026   0.054   0.587  0.00  0.00    -0.600 N 
ATOM     26  H   LIG    1       -0.758  -0.516   0.570  0.00  0.00    +0.450 HD
ATOM     27  C   LIG    1        0.032   1.432   0.777  0.00  0.00    +0.140 A 
ATOM     28  C   LIG    1       -0.982   2.358   0.981  0.00  0.00    +0.020 A 
ATOM     29  C   LIG    1       -0.671   3.693   1.147  0.00  0.00    +0.060 A 
ATOM     30  C   LIG    1        0.646   4.113   1.101  0.00  0.00    +0.020 A 
ATOM     31  C   LIG    1        1.662   3.200   0.894  0.00  0.00    +0.070 A 
ATOM     32  C   LIG    1        1.360   1.856   0.731  0.00  0.00    +0.060 A 
ATOM     33  N   LIG    1        2.155   0.728   0.512  0.00  0.00    -0.440 N 
ENDBRANCH  20  21
ENDBRANCH  19  20
ENDBRANCH   2  19
TORSDOF 6
