REMARK  Name = ZINCvU0000000DfE.0
REMARK                            x       y       z     vdW  Elec       q    Type
REMARK                         _______ _______ _______ _____ _____    ______ ____
ROOT
ATOM      1  C   LIG    1       -2.647  -6.852   0.084  0.00  0.00    +0.510 C 
ATOM      2  O   LIG    1       -1.562  -7.390  -0.010  0.00  0.00    -0.500 OA
ENDROOT
BRANCH   1   3
ATOM      3  C   LIG    1       -2.731  -5.396   0.318  0.00  0.00    -0.110 A 
ATOM      4  C   LIG    1       -3.977  -4.774   0.425  0.00  0.00    +0.070 A 
ATOM      5  C   LIG    1       -4.052  -3.413   0.644  0.00  0.00    +0.030 A 
ATOM      6  C   LIG    1       -2.898  -2.662   0.763  0.00  0.00    +0.030 A 
ATOM      7  C   LIG    1       -1.653  -3.271   0.652  0.00  0.00    +0.140 A 
ATOM      8  C   LIG    1       -1.566  -4.636   0.433  0.00  0.00    +0.090 A 
BRANCH   7   9
ATOM      9  N   LIG    1       -0.488  -2.505   0.768  0.00  0.00    -0.670 N 
ATOM     10  H   LIG    1       -0.472  -1.593   0.436  0.00  0.00    +0.410 HD
ATOM     11  C   LIG    1        0.612  -3.034   1.339  0.00  0.00    +0.590 C 
ATOM     12  O   LIG    1        0.565  -4.142   1.840  0.00  0.00    -0.500 OA
BRANCH  11  13
ATOM     13  C   LIG    1        1.865  -2.274   1.358  0.00  0.00    -0.280 A 
ATOM     14  C   LIG    1        3.043  -2.701   1.905  0.00  0.00    +0.120 A 
ATOM     15  C   LIG    1        4.062  -1.786   1.783  0.00  0.00    +0.000 A 
ATOM     16  C   LIG    1        3.733  -0.650   1.158  0.00  0.00    -0.050 A 
ATOM     17  S   LIG    1        2.095  -0.668   0.681  0.00  0.00    +0.200 S 
ENDBRANCH  11  13
ENDBRANCH   7   9
ENDBRANCH   1   3
BRANCH   1  18
ATOM     18  O   LIG    1       -3.773  -7.582  -0.026  0.00  0.00    -0.330 OA
BRANCH  18  20
ATOM     19  C   LIG    1       -3.568  -9.279  -1.761  0.00  0.00    +0.070 C 
ATOM     20  C   LIG    1       -3.615  -9.007  -0.256  0.00  0.00    +0.150 C 
BRANCH  20  21
ATOM     21  C   LIG    1       -4.779  -9.747   0.352  0.00  0.00    +0.370 C 
ATOM     22  O   LIG    1       -5.832  -9.181   0.519  0.00  0.00    -0.420 OA
BRANCH  21  23
ATOM     23  C   LIG    1       -4.628 -11.192   0.751  0.00  0.00    -0.090 C 
ATOM     24  C   LIG    1       -3.604 -11.304   1.883  0.00  0.00    +0.040 C 
ATOM     25  C   LIG    1       -3.450 -12.771   2.289  0.00  0.00    +0.000 C 
ATOM     26  C   LIG    1       -2.971 -13.585   1.085  0.00  0.00    +0.020 C 
ATOM     27  C   LIG    1       -3.995 -13.473  -0.046  0.00  0.00    +0.000 C 
ATOM     28  C   LIG    1       -5.344 -14.014   0.431  0.00  0.00    +0.020 C 
ATOM     29  C   LIG    1       -5.823 -13.200   1.635  0.00  0.00    -0.010 C 
ATOM     30  C   LIG    1       -4.800 -13.312   2.766  0.00  0.00    +0.020 C 
ATOM     31  C   LIG    1       -4.148 -12.006  -0.452  0.00  0.00    +0.040 C 
ATOM     32  C   LIG    1       -5.977 -11.733   1.229  0.00  0.00    +0.050 C 
ENDBRANCH  21  23
ENDBRANCH  20  21
ENDBRANCH  18  20
ENDBRANCH   1  18
TORSDOF 7
