REMARK  Name = ZINCvU00000004xe.0
REMARK                            x       y       z     vdW  Elec       q    Type
REMARK                         _______ _______ _______ _____ _____    ______ ____
ROOT
ATOM      1  C   LIG    1       -3.362  -3.536  -0.063  0.00  0.00    +0.160 A 
ATOM      2  N   LIG    1       -3.936  -2.357  -0.145  0.00  0.00    -0.290 NA
ATOM      3  N   LIG    1       -3.059  -1.456  -0.414  0.00  0.00    -0.240 NA
ATOM      4  C   LIG    1       -1.872  -2.005  -0.521  0.00  0.00    +0.220 A 
ATOM      5  N   LIG    1       -2.030  -3.355  -0.306  0.00  0.00    -0.450 N 
ENDROOT
BRANCH   4   6
ATOM      6  C   LIG    1       -0.605  -1.306  -0.823  0.00  0.00    -0.010 A 
ATOM      7  C   LIG    1        0.595  -2.018  -0.867  0.00  0.00    +0.030 A 
ATOM      8  C   LIG    1        1.774  -1.359  -1.149  0.00  0.00    +0.020 A 
ATOM      9  C   LIG    1        1.770   0.003  -1.389  0.00  0.00    +0.050 A 
ATOM     10  C   LIG    1        0.584   0.715  -1.347  0.00  0.00    +0.030 A 
ATOM     11  C   LIG    1       -0.603   0.069  -1.066  0.00  0.00    -0.000 A 
ATOM     12 CL   LIG    1       -2.091   0.963  -1.021  0.00  0.00    -0.030 Cl
ENDBRANCH   4   6
BRANCH   1  13
ATOM     13  S   LIG    1       -4.162  -5.066   0.286  0.00  0.00    +0.040 S 
BRANCH  13  14
ATOM     14  C   LIG    1       -5.869  -4.493   0.471  0.00  0.00    +0.130 C 
BRANCH  14  23
ATOM     15  C   LIG    1       -8.152  -7.911   1.289  0.00  0.00    +0.060 C 
ATOM     16  C   LIG    1       -8.987  -6.671   0.964  0.00  0.00    +0.210 C 
ATOM     17  C   LIG    1       -9.951  -6.380   2.119  0.00  0.00    +0.020 C 
ATOM     18  C   LIG    1      -10.683  -5.064   1.847  0.00  0.00    +0.020 C 
ATOM     19  C   LIG    1       -9.669  -3.921   1.764  0.00  0.00    +0.020 C 
ATOM     20  C   LIG    1       -8.702  -4.183   0.611  0.00  0.00    +0.220 C 
ATOM     21  C   LIG    1       -7.603  -3.119   0.613  0.00  0.00    +0.050 C 
ATOM     22  N   LIG    1       -8.101  -5.513   0.784  0.00  0.00    -0.600 N 
ATOM     23  C   LIG    1       -6.762  -5.667   0.782  0.00  0.00    +0.540 C 
ATOM     24  O   LIG    1       -6.276  -6.749   1.032  0.00  0.00    -0.520 OA
ENDBRANCH  14  23
ENDBRANCH  13  14
ENDBRANCH   1  13
BRANCH   5  25
ATOM     25  C   LIG    1       -0.987  -4.383  -0.328  0.00  0.00    +0.360 C 
BRANCH  25  26
ATOM     26  C   LIG    1       -0.688  -4.765  -1.755  0.00  0.00    -0.130 A 
ATOM     27  C   LIG    1       -1.486  -5.687  -2.405  0.00  0.00    +0.040 A 
ATOM     28  C   LIG    1       -1.215  -6.033  -3.716  0.00  0.00    +0.010 A 
ATOM     29  C   LIG    1       -0.139  -5.466  -4.372  0.00  0.00    +0.030 A 
ATOM     30  C   LIG    1        0.663  -4.548  -3.720  0.00  0.00    +0.010 A 
ATOM     31  C   LIG    1        0.388  -4.197  -2.411  0.00  0.00    +0.020 A 
ENDBRANCH  25  26
ENDBRANCH   5  25
TORSDOF 6
