REMARK  Name = ZINCrH000004nzzy.0
REMARK                            x       y       z     vdW  Elec       q    Type
REMARK                         _______ _______ _______ _____ _____    ______ ____
ROOT
ATOM      1  N   LIG    1       -2.328  -0.069   0.695  0.00  0.00    -0.710 N 
ATOM      2  H   LIG    1       -3.154  -0.536   0.493  0.00  0.00    +0.400 HD
ATOM      3  C   LIG    1       -1.153  -0.726   0.645  0.00  0.00    +0.580 C 
ATOM      4  O   LIG    1       -0.110  -0.121   0.808  0.00  0.00    -0.520 OA
ENDROOT
BRANCH   3   5
ATOM      5  C   LIG    1       -1.131  -2.175   0.392  0.00  0.00    +0.040 A 
ATOM      6  C   LIG    1       -2.227  -3.010   0.303  0.00  0.00    -0.050 A 
ATOM      7  C   LIG    1       -1.759  -4.298   0.053  0.00  0.00    +0.100 A 
ATOM      8  N   LIG    1       -0.450  -4.269  -0.002  0.00  0.00    -0.250 NA
ATOM      9  N   LIG    1       -0.018  -2.953   0.207  0.00  0.00    -0.290 N 
BRANCH   9  10
ATOM     10  C   LIG    1        1.310  -2.511   0.223  0.00  0.00    +0.130 A 
ATOM     11  C   LIG    1        1.667  -1.352  -0.453  0.00  0.00    +0.060 A 
ATOM     12  C   LIG    1        2.977  -0.916  -0.431  0.00  0.00    +0.020 A 
ATOM     13  C   LIG    1        3.936  -1.640   0.254  0.00  0.00    +0.020 A 
ATOM     14  C   LIG    1        3.586  -2.798   0.924  0.00  0.00    +0.020 A 
ATOM     15  C   LIG    1        2.276  -3.236   0.910  0.00  0.00    +0.030 A 
ENDBRANCH   9  10
BRANCH   7  16
ATOM     16  C   LIG    1       -2.617  -5.524  -0.121  0.00  0.00    +0.030 C 
ATOM     17  C   LIG    1       -4.071  -5.441   0.348  0.00  0.00    +0.040 C 
ATOM     18  C   LIG    1       -3.056  -6.264   1.144  0.00  0.00    +0.040 C 
ENDBRANCH   7  16
ENDBRANCH   3   5
BRANCH   1  19
ATOM     19  C   LIG    1       -2.359   1.351   1.055  0.00  0.00    +0.280 C 
BRANCH  19  20
ATOM     20  C   LIG    1       -3.805   1.850   1.038  0.00  0.00    +0.080 C 
BRANCH  20  26
ATOM     21  C   LIG    1       -3.626   4.278   0.437  0.00  0.00    +0.130 A 
ATOM     22  C   LIG    1       -3.661   5.622   0.780  0.00  0.00    -0.080 A 
ATOM     23  C   LIG    1       -3.894   5.993   2.090  0.00  0.00    +0.050 A 
ATOM     24  C   LIG    1       -4.098   5.027   3.058  0.00  0.00    -0.030 A 
ATOM     25  C   LIG    1       -4.069   3.687   2.717  0.00  0.00    +0.060 A 
ATOM     26  C   LIG    1       -3.836   3.311   1.409  0.00  0.00    -0.120 A 
BRANCH  21  28
ATOM     27  C   LIG    1       -3.182   4.960  -1.797  0.00  0.00    +0.250 C 
ATOM     28  O   LIG    1       -3.390   3.910  -0.850  0.00  0.00    -0.310 OA
ENDBRANCH  21  28
ENDBRANCH  20  26
ENDBRANCH  19  20
ENDBRANCH   1  19
TORSDOF 7
