REMARK  Name = ZINCpk000000nEjQ.0
REMARK                            x       y       z     vdW  Elec       q    Type
REMARK                         _______ _______ _______ _____ _____    ______ ____
ROOT
ATOM      1  N   LIG    1        0.761  11.421  -1.578  0.00  0.00    -0.750 N 
ATOM      2  H   LIG    1        0.343  11.784  -0.781  0.00  0.00    +0.400 HD
ATOM      3  C   LIG    1        0.859  10.087  -1.740  0.00  0.00    +0.710 C 
ATOM      4  N   LIG    1        0.374   9.256  -0.795  0.00  0.00    -0.630 N 
ATOM      5  C   LIG    1       -0.258   9.804   0.407  0.00  0.00    +0.280 C 
ATOM      6  O   LIG    1        1.383   9.633  -2.738  0.00  0.00    -0.580 OA
ENDROOT
BRANCH   4   7
ATOM      7  C   LIG    1        0.480   7.806  -0.972  0.00  0.00    +0.250 C 
ATOM      8  C   LIG    1        1.296   7.209   0.178  0.00  0.00    +0.030 C 
ATOM      9  C   LIG    1        1.351   5.687   0.022  0.00  0.00    +0.220 C 
ATOM     10  N   LIG    1       -0.012   5.143   0.031  0.00  0.00    -0.470 N 
ATOM     11  C   LIG    1       -0.800   5.666  -1.092  0.00  0.00    +0.200 C 
ATOM     12  C   LIG    1       -0.920   7.186  -0.969  0.00  0.00    +0.030 C 
BRANCH  10  13
ATOM     13  C   LIG    1        0.006   3.753   0.023  0.00  0.00    +0.270 A 
ATOM     14  C   LIG    1       -1.190   3.039   0.030  0.00  0.00    +0.210 A 
ATOM     15  N   LIG    1       -1.168   1.720   0.017  0.00  0.00    -0.420 NA
ATOM     16  C   LIG    1       -0.013   1.076   0.008  0.00  0.00    +0.180 A 
ATOM     17  C   LIG    1        1.176   1.781   0.000  0.00  0.00    +0.250 A 
ATOM     18  N   LIG    1        1.163   3.103   0.008  0.00  0.00    -0.480 NA
ENDBRANCH  10  13
ENDBRANCH   4   7
BRANCH   1  19
ATOM     19  C   LIG    1        1.288  12.324  -2.604  0.00  0.00    +0.310 C 
BRANCH  19  20
ATOM     20  C   LIG    1        1.051  13.775  -2.178  0.00  0.00    +0.090 C 
BRANCH  20  21
ATOM     21  C   LIG    1        1.593  14.703  -3.234  0.00  0.00    +0.470 C 
ATOM     22  O   LIG    1        2.114  14.252  -4.226  0.00  0.00    -0.500 OA
BRANCH  21  23
ATOM     23  O   LIG    1        1.496  16.032  -3.072  0.00  0.00    -0.350 OA
BRANCH  23  25
ATOM     24  C   LIG    1        0.951  17.147  -5.168  0.00  0.00    +0.040 C 
ATOM     25  C   LIG    1        2.039  16.866  -4.130  0.00  0.00    +0.170 C 
ATOM     26  C   LIG    1        2.530  18.188  -3.535  0.00  0.00    +0.070 C 
ENDBRANCH  23  25
ENDBRANCH  21  23
ENDBRANCH  20  21
ENDBRANCH  19  20
ENDBRANCH   1  19
TORSDOF 7
