REMARK  Name = ZINCvU00000008Tj.1
REMARK                            x       y       z     vdW  Elec       q    Type
REMARK                         _______ _______ _______ _____ _____    ______ ____
ROOT
ATOM      1  N   LIG    1       -2.974  -2.870   0.496  0.00  0.00    -0.520 NA
ATOM      2  C   LIG    1       -2.223  -3.027  -0.757  0.00  0.00    +0.190 C 
ATOM      3  C   LIG    1       -2.087  -4.516  -1.085  0.00  0.00    +0.200 C 
ATOM      4  N   LIG    1       -3.425  -5.114  -1.198  0.00  0.00    -0.530 NA
ATOM      5  C   LIG    1       -4.176  -4.956   0.056  0.00  0.00    +0.190 C 
ATOM      6  C   LIG    1       -4.312  -3.467   0.383  0.00  0.00    +0.190 C 
ENDROOT
BRANCH   1   7
ATOM      7  C   LIG    1       -3.060  -1.456   0.884  0.00  0.00    +0.220 C 
BRANCH   7   9
ATOM      8  O   LIG    1       -0.727  -1.685   1.157  0.00  0.00    -0.490 OA
ATOM      9  C   LIG    1       -1.685  -0.945   1.228  0.00  0.00    +0.520 C 
ATOM     10  N   LIG    1       -1.519   0.336   1.615  0.00  0.00    -0.670 N 
ATOM     11  H   LIG    1       -2.292   0.906   1.748  0.00  0.00    +0.410 HD
BRANCH  10  12
ATOM     12  C   LIG    1       -0.231   0.842   1.826  0.00  0.00    +0.180 A 
ATOM     13  C   LIG    1        0.866   0.211   1.256  0.00  0.00    +0.040 A 
ATOM     14  C   LIG    1        2.136   0.716   1.460  0.00  0.00    +0.060 A 
ATOM     15  C   LIG    1        2.316   1.846   2.236  0.00  0.00    +0.020 A 
ATOM     16  C   LIG    1        1.226   2.475   2.811  0.00  0.00    -0.010 A 
ATOM     17 CL   LIG    1        1.456   3.894   3.784  0.00  0.00    -0.040 Cl
ATOM     18  C   LIG    1       -0.048   1.974   2.610  0.00  0.00    -0.070 A 
ATOM     19 CL   LIG    1       -1.416   2.763   3.332  0.00  0.00    -0.040 Cl
ENDBRANCH  10  12
ENDBRANCH   7   9
ENDBRANCH   1   7
BRANCH   4  20
ATOM     20  C   LIG    1       -3.339  -6.528  -1.586  0.00  0.00    +0.230 C 
BRANCH  20  21
ATOM     21  C   LIG    1       -2.467  -6.661  -2.808  0.00  0.00    -0.080 A 
ATOM     22  C   LIG    1       -2.606  -5.770  -3.856  0.00  0.00    +0.040 A 
ATOM     23  C   LIG    1       -1.804  -5.890  -4.975  0.00  0.00    +0.000 A 
ATOM     24  C   LIG    1       -0.869  -6.905  -5.050  0.00  0.00    +0.000 A 
ATOM     25  C   LIG    1       -0.734  -7.799  -4.004  0.00  0.00    +0.000 A 
ATOM     26  C   LIG    1       -1.533  -7.677  -2.883  0.00  0.00    +0.010 A 
ENDBRANCH  20  21
BRANCH  20  27
ATOM     27  C   LIG    1       -4.719  -7.049  -1.894  0.00  0.00    -0.080 A 
ATOM     28  C   LIG    1       -5.606  -6.273  -2.617  0.00  0.00    +0.040 A 
ATOM     29  C   LIG    1       -6.870  -6.753  -2.903  0.00  0.00    +0.000 A 
ATOM     30  C   LIG    1       -7.251  -8.005  -2.458  0.00  0.00    +0.000 A 
ATOM     31  C   LIG    1       -6.366  -8.779  -1.731  0.00  0.00    +0.000 A 
ATOM     32  C   LIG    1       -5.100  -8.301  -1.448  0.00  0.00    +0.010 A 
ENDBRANCH  20  27
ENDBRANCH   4  20
TORSDOF 6
