REMARK  Name = ZINCvU0000000HHa.0
REMARK                            x       y       z     vdW  Elec       q    Type
REMARK                         _______ _______ _______ _____ _____    ______ ____
ROOT
ATOM      1  C   LIG    1       -0.658   1.411   3.855  0.00  0.00    +0.210 A 
ATOM      2  N   LIG    1       -1.824   1.038   4.301  0.00  0.00    -0.270 NA
ATOM      3  N   LIG    1       -2.069   1.609   5.426  0.00  0.00    -0.290 NA
ATOM      4  C   LIG    1       -1.068   2.390   5.758  0.00  0.00    +0.150 A 
ATOM      5  N   LIG    1       -0.136   2.288   4.765  0.00  0.00    -0.450 N 
ENDROOT
BRANCH   1   6
ATOM      6  C   LIG    1       -0.008   0.962   2.572  0.00  0.00    +0.260 C 
BRANCH   6   7
ATOM      7  N   LIG    1       -0.148  -0.494   2.434  0.00  0.00    -0.530 NA
ATOM      8  C   LIG    1        0.872  -1.038   1.529  0.00  0.00    +0.200 C 
ATOM      9  C   LIG    1       -1.499  -0.852   1.982  0.00  0.00    +0.210 C 
ENDBRANCH   6   7
BRANCH   6  11
ATOM     10  C   LIG    1        0.061   1.308   0.098  0.00  0.00    +0.030 C 
ATOM     11  C   LIG    1       -0.686   1.654   1.388  0.00  0.00    +0.000 C 
ENDBRANCH   6  11
ENDBRANCH   1   6
BRANCH   4  12
ATOM     12  S   LIG    1       -0.948   3.383   7.208  0.00  0.00    +0.060 S 
BRANCH  12  13
ATOM     13  C   LIG    1       -2.530   2.983   7.993  0.00  0.00    +0.160 C 
ATOM     14  C   LIG    1       -2.546   1.504   8.385  0.00  0.00    +0.110 C 
BRANCH  13  15
ATOM     15  C   LIG    1       -2.707   3.832   9.226  0.00  0.00    +0.180 A 
ATOM     16  N   LIG    1       -1.805   4.058  10.140  0.00  0.00    -0.250 NA
ATOM     17  N   LIG    1       -2.295   4.826  11.049  0.00  0.00    -0.260 NA
ATOM     18  C   LIG    1       -3.543   5.112  10.747  0.00  0.00    +0.250 A 
ATOM     19  O   LIG    1       -3.826   4.487   9.585  0.00  0.00    -0.210 OA
BRANCH  18  20
ATOM     20  C   LIG    1       -4.458   5.957  11.529  0.00  0.00    -0.160 A 
ATOM     21  C   LIG    1       -4.149   6.579  12.700  0.00  0.00    +0.110 A 
ATOM     22  C   LIG    1       -5.178   7.316  13.243  0.00  0.00    +0.020 A 
ATOM     23  C   LIG    1       -6.316   7.307  12.541  0.00  0.00    -0.010 A 
ATOM     24  S   LIG    1       -6.122   6.327  11.095  0.00  0.00    +0.180 S 
ENDBRANCH  18  20
ENDBRANCH  13  15
ENDBRANCH  12  13
ENDBRANCH   4  12
BRANCH   5  25
ATOM     25  C   LIG    1        1.156   2.975   4.690  0.00  0.00    +0.360 C 
BRANCH  25  26
ATOM     26  C   LIG    1        0.984   4.291   3.976  0.00  0.00    -0.120 A 
ATOM     27  C   LIG    1        1.137   4.357   2.603  0.00  0.00    +0.020 A 
ATOM     28  C   LIG    1        0.974   5.564   1.948  0.00  0.00    +0.010 A 
ATOM     29  C   LIG    1        0.670   6.705   2.665  0.00  0.00    +0.030 A 
ATOM     30  C   LIG    1        0.522   6.640   4.038  0.00  0.00    +0.010 A 
ATOM     31  C   LIG    1        0.680   5.433   4.693  0.00  0.00    +0.040 A 
ENDBRANCH  25  26
ENDBRANCH   5  25
TORSDOF 9
