REMARK  Name = ZINCrH000004v3iH.0
REMARK                            x       y       z     vdW  Elec       q    Type
REMARK                         _______ _______ _______ _____ _____    ______ ____
ROOT
ATOM      1  O   LIG    1        4.779   1.291  -0.171  0.00  0.00    -0.570 OA
ATOM      2  C   LIG    1        4.786   0.076  -0.148  0.00  0.00    +0.700 C 
ATOM      3  N   LIG    1        5.951  -0.594  -0.257  0.00  0.00    -0.730 N 
ATOM      4  H   LIG    1        5.957  -1.563  -0.239  0.00  0.00    +0.400 HD
ATOM      5  N   LIG    1        3.630  -0.603  -0.013  0.00  0.00    -0.690 N 
ATOM      6  H   LIG    1        3.642  -1.568   0.081  0.00  0.00    +0.410 HD
ENDROOT
BRANCH   5   7
ATOM      7  C   LIG    1        2.413   0.085  -0.008  0.00  0.00    +0.190 A 
ATOM      8  C   LIG    1        1.356  -0.382   0.765  0.00  0.00    -0.020 A 
ATOM      9  C   LIG    1        0.155   0.293   0.771  0.00  0.00    +0.080 A 
ATOM     10  C   LIG    1        0.000   1.447   0.000  0.00  0.00    -0.040 A 
ATOM     11  C   LIG    1        1.064   1.913  -0.775  0.00  0.00    +0.090 A 
ATOM     12  C   LIG    1        2.262   1.233  -0.777  0.00  0.00    +0.030 A 
BRANCH  10  13
ATOM     13  C   LIG    1       -1.288   2.171   0.000  0.00  0.00    +0.240 A 
ATOM     14  N   LIG    1       -1.555   3.261  -0.680  0.00  0.00    -0.480 NA
ATOM     15  C   LIG    1       -2.822   3.624  -0.428  0.00  0.00    +0.150 A 
ATOM     16  C   LIG    1       -3.345   2.730   0.429  0.00  0.00    +0.150 A 
ATOM     17  O   LIG    1       -2.386   1.819   0.692  0.00  0.00    -0.200 OA
ENDBRANCH  10  13
ENDBRANCH   5   7
BRANCH   3  18
ATOM     18  C   LIG    1        7.209   0.144  -0.404  0.00  0.00    +0.260 C 
ATOM     19  C   LIG    1        7.490   0.433  -1.893  0.00  0.00    +0.030 C 
ATOM     20  C   LIG    1        8.823  -0.283  -2.196  0.00  0.00    +0.200 C 
ATOM     21  N   LIG    1        8.913  -1.356  -1.172  0.00  0.00    -0.460 N 
ATOM     22  C   LIG    1        8.396  -0.721   0.070  0.00  0.00    +0.190 C 
BRANCH  21  23
ATOM     23  C   LIG    1       10.228  -1.778  -1.006  0.00  0.00    +0.300 A 
ATOM     24  N   LIG    1       11.214  -0.899  -1.086  0.00  0.00    -0.500 NA
ATOM     25  C   LIG    1       12.475  -1.256  -0.928  0.00  0.00    +0.290 A 
ATOM     26  C   LIG    1       12.813  -2.572  -0.685  0.00  0.00    -0.010 A 
ATOM     27  C   LIG    1       11.809  -3.528  -0.600  0.00  0.00    +0.090 A 
ATOM     28  C   LIG    1       10.496  -3.123  -0.763  0.00  0.00    -0.070 A 
ATOM     29 CL   LIG    1        9.201  -4.275  -0.667  0.00  0.00    -0.040 Cl
ENDBRANCH  21  23
ENDBRANCH   3  18
TORSDOF 4
