REMARK  Name = ZINCrD00000e0Cpw.2
REMARK                            x       y       z     vdW  Elec       q    Type
REMARK                         _______ _______ _______ _____ _____    ______ ____
ROOT
ATOM      1  C   LIG    1       -3.571  -1.055   0.466  0.00  0.00    +0.160 A 
ATOM      2  C   LIG    1       -3.567  -1.415   1.807  0.00  0.00    -0.030 A 
ATOM      3  C   LIG    1       -4.735  -1.838   2.413  0.00  0.00    +0.050 A 
ATOM      4  C   LIG    1       -5.906  -1.914   1.685  0.00  0.00    +0.010 A 
ATOM      5  C   LIG    1       -5.915  -1.559   0.342  0.00  0.00    +0.160 A 
ATOM      6  C   LIG    1       -4.746  -1.129  -0.268  0.00  0.00    -0.010 A 
ENDROOT
BRANCH   1   8
ATOM      7  C   LIG    1       -2.433   0.331  -1.098  0.00  0.00    +0.520 C 
ATOM      8  N   LIG    1       -2.389  -0.622  -0.146  0.00  0.00    -0.680 N 
ATOM      9  H   LIG    1       -1.538  -1.008   0.115  0.00  0.00    +0.410 HD
ATOM     10  O   LIG    1       -3.502   0.754  -1.484  0.00  0.00    -0.490 OA
BRANCH   7  16
ATOM     11  C   LIG    1       -1.171   3.298  -1.554  0.00  0.00    +0.200 C 
ATOM     12  N   LIG    1       -1.413   2.131  -2.413  0.00  0.00    -0.510 NA
ATOM     13  C   LIG    1       -0.550   2.166  -3.608  0.00  0.00    +0.180 C 
ATOM     14  C   LIG    1        0.261   0.854  -3.625  0.00  0.00    +0.010 C 
ATOM     15  C   LIG    1       -0.597  -0.099  -2.753  0.00  0.00    +0.040 C 
ATOM     16  C   LIG    1       -1.153   0.872  -1.683  0.00  0.00    +0.130 C 
ENDBRANCH   7  16
ENDBRANCH   1   8
BRANCH   5  17
ATOM     17  N   LIG    1       -7.102  -1.636  -0.395  0.00  0.00    -0.670 N 
ATOM     18  H   LIG    1       -7.077  -1.894  -1.330  0.00  0.00    +0.410 HD
ATOM     19  C   LIG    1       -8.280  -1.351   0.194  0.00  0.00    +0.530 C 
ATOM     20  O   LIG    1       -8.322  -1.108   1.382  0.00  0.00    -0.510 OA
BRANCH  19  21
ATOM     21  C   LIG    1       -9.547  -1.335  -0.622  0.00  0.00    +0.050 C 
ATOM     22  C   LIG    1      -10.761  -1.019   0.277  0.00  0.00    +0.080 C 
ATOM     23  C   LIG    1      -11.878  -1.869  -0.363  0.00  0.00    +0.080 C 
ATOM     24  C   LIG    1      -11.163  -3.017  -1.042  0.00  0.00    -0.080 A 
ATOM     25  C   LIG    1      -11.645  -4.234  -1.493  0.00  0.00    +0.010 A 
ATOM     26  C   LIG    1      -10.792  -5.142  -2.091  0.00  0.00    +0.020 A 
ATOM     27  C   LIG    1       -9.453  -4.835  -2.240  0.00  0.00    +0.010 A 
ATOM     28  C   LIG    1       -8.970  -3.621  -1.791  0.00  0.00    +0.020 A 
ATOM     29  C   LIG    1       -9.822  -2.710  -1.193  0.00  0.00    -0.100 A 
ENDBRANCH  19  21
ENDBRANCH   5  17
TORSDOF 4
