REMARK  Name = ZINCvU00000009rN.0
REMARK                            x       y       z     vdW  Elec       q    Type
REMARK                         _______ _______ _______ _____ _____    ______ ____
ROOT
ATOM      1  C   LIG    1       -1.437   5.197   1.112  0.00  0.00    +0.060 C 
ATOM      2  S   LIG    1        0.341   5.483   0.822  0.00  0.00    -0.060 S 
ATOM      3  C   LIG    1        0.748   3.760   0.747  0.00  0.00    +0.390 C 
ATOM      4  N   LIG    1       -0.411   3.056   0.932  0.00  0.00    -0.530 N 
ATOM      5  N   LIG    1        1.941   3.252   0.549  0.00  0.00    -0.470 NA
ATOM      6  C   LIG    1       -1.556   3.691   1.118  0.00  0.00    +0.540 C 
ATOM      7  O   LIG    1       -2.610   3.114   1.282  0.00  0.00    -0.470 OA
ENDROOT
BRANCH   5   8
ATOM      8  C   LIG    1        3.018   4.080   0.377  0.00  0.00    +0.100 A 
ATOM      9  C   LIG    1        2.925   5.185  -0.471  0.00  0.00    +0.000 A 
ATOM     10  C   LIG    1        4.011   6.019  -0.637  0.00  0.00    +0.050 A 
ATOM     11  C   LIG    1        5.196   5.756   0.028  0.00  0.00    -0.080 A 
ATOM     12  C   LIG    1        5.298   4.659   0.867  0.00  0.00    -0.020 A 
ATOM     13 CL   LIG    1        6.789   4.338   1.696  0.00  0.00    -0.060 Cl
ATOM     14  C   LIG    1        6.381   6.668  -0.163  0.00  0.00    +0.110 C 
ATOM     15  C   LIG    1        4.216   3.820   1.045  0.00  0.00    +0.050 A 
ENDBRANCH   5   8
BRANCH   4  16
ATOM     16  C   LIG    1       -0.384   1.591   0.919  0.00  0.00    +0.240 C 
ATOM     17  C   LIG    1        0.539   1.089   2.032  0.00  0.00    +0.050 C 
ATOM     18  C   LIG    1        0.136   1.103  -0.434  0.00  0.00    +0.050 C 
ENDBRANCH   4  16
BRANCH   1  19
ATOM     19  C   LIG    1       -2.271   5.798  -0.022  0.00  0.00    +0.120 C 
BRANCH  19  22
ATOM     20  N   LIG    1       -2.797   8.046  -0.910  0.00  0.00    -0.670 N 
ATOM     21  H   LIG    1       -3.286   7.615  -1.629  0.00  0.00    +0.420 HD
ATOM     22  C   LIG    1       -2.145   7.299   0.003  0.00  0.00    +0.520 C 
ATOM     23  O   LIG    1       -1.456   7.836   0.844  0.00  0.00    -0.500 OA
BRANCH  20  27
ATOM     24  C   LIG    1       -2.716  12.197  -0.646  0.00  0.00    -0.190 A 
ATOM     25  C   LIG    1       -2.705  11.418   0.519  0.00  0.00    +0.100 A 
ATOM     26  C   LIG    1       -2.732  10.051   0.427  0.00  0.00    +0.010 A 
ATOM     27  C   LIG    1       -2.771   9.436  -0.822  0.00  0.00    +0.180 A 
ATOM     28  C   LIG    1       -2.776  10.205  -1.982  0.00  0.00    -0.030 A 
ATOM     29  C   LIG    1       -2.755  11.573  -1.899  0.00  0.00    +0.090 A 
BRANCH  24  31
ATOM     30  C   LIG    1       -2.700  14.497  -1.806  0.00  0.00    +0.070 C 
ATOM     31  C   LIG    1       -2.688  13.662  -0.552  0.00  0.00    +0.390 C 
ATOM     32  O   LIG    1       -2.655  14.200   0.534  0.00  0.00    -0.460 OA
ENDBRANCH  24  31
ENDBRANCH  20  27
ENDBRANCH  19  22
ENDBRANCH   1  19
TORSDOF 6
