REMARK  Name = ZINCkj000005ivrr.0
REMARK                            x       y       z     vdW  Elec       q    Type
REMARK                         _______ _______ _______ _____ _____    ______ ____
ROOT
ATOM      1  C   LIG    1       -0.022   1.080   0.046  0.00  0.00    +0.520 C 
ATOM      2  N   LIG    1       -1.228   1.671   0.166  0.00  0.00    -0.610 N 
ATOM      3  C   LIG    1       -1.317   3.118   0.375  0.00  0.00    +0.280 C 
ATOM      4  O   LIG    1        0.052  -0.118  -0.127  0.00  0.00    -0.530 OA
ENDROOT
BRANCH   2   5
ATOM      5  C   LIG    1       -2.449   0.865   0.085  0.00  0.00    +0.250 C 
ATOM      6  C   LIG    1       -3.313   1.353  -1.084  0.00  0.00    +0.020 C 
ATOM      7  C   LIG    1       -4.450   0.354  -1.292  0.00  0.00    +0.080 C 
ATOM      8  C   LIG    1       -5.163   0.085   0.007  0.00  0.00    -0.080 A 
ATOM      9  C   LIG    1       -6.427  -0.488  -0.056  0.00  0.00    +0.000 A 
ATOM     10  C   LIG    1       -7.130  -0.764   1.099  0.00  0.00    +0.010 A 
ATOM     11  C   LIG    1       -6.573  -0.469   2.329  0.00  0.00    +0.000 A 
ATOM     12  C   LIG    1       -5.318   0.103   2.393  0.00  0.00    +0.000 A 
ATOM     13  C   LIG    1       -4.611   0.384   1.232  0.00  0.00    -0.080 A 
ATOM     14  C   LIG    1       -3.252   1.020   1.375  0.00  0.00    +0.070 C 
ENDBRANCH   2   5
BRANCH   1  15
ATOM     15  C   LIG    1        1.234   1.909   0.123  0.00  0.00    +0.100 C 
BRANCH  15  16
ATOM     16  C   LIG    1        2.455   1.002  -0.048  0.00  0.00    +0.170 C 
BRANCH  16  18
ATOM     17  C   LIG    1        2.939  -1.225   0.693  0.00  0.00    +0.220 C 
ATOM     18  O   LIG    1        2.532   0.096   1.054  0.00  0.00    -0.370 OA
ENDBRANCH  16  18
BRANCH  16  19
ATOM     19  C   LIG    1        3.722   1.858  -0.095  0.00  0.00    +0.270 C 
BRANCH  19  20
ATOM     20  N   LIG    1        4.888   0.993  -0.322  0.00  0.00    -0.640 N 
ATOM     21  H   LIG    1        5.021   0.392   0.477  0.00  0.00    +0.440 HD
ATOM     22  H   LIG    1        5.710   1.564  -0.454  0.00  0.00    +0.440 HD
ATOM     23  H   LIG    1        4.734   0.430  -1.145  0.00  0.00    +0.430 HD
ENDBRANCH  19  20
ENDBRANCH  16  19
ENDBRANCH  15  16
ENDBRANCH   1  15
TORSDOF 6
