REMARK  Name = ZINCtV000002FitP.0
REMARK                            x       y       z     vdW  Elec       q    Type
REMARK                         _______ _______ _______ _____ _____    ______ ____
ROOT
ATOM      1  C   LIG    1       -4.666   5.603   0.679  0.00  0.00    +0.120 C 
ATOM      2  C   LIG    1       -3.321   6.229   0.417  0.00  0.00    -0.210 A 
ATOM      3  C   LIG    1       -2.140   5.566   0.285  0.00  0.00    +0.320 A 
ATOM      4  N   LIG    1       -1.173   6.495   0.053  0.00  0.00    -0.320 N 
ATOM      5  N   LIG    1       -1.784   7.756   0.049  0.00  0.00    -0.260 NA
ATOM      6  C   LIG    1       -3.064   7.596   0.269  0.00  0.00    +0.110 A 
ENDROOT
BRANCH   4   7
ATOM      7  C   LIG    1        0.190   6.238  -0.146  0.00  0.00    +0.170 A 
ATOM      8  C   LIG    1        0.805   5.191   0.526  0.00  0.00    -0.010 A 
ATOM      9  C   LIG    1        2.148   4.935   0.323  0.00  0.00    +0.030 A 
ATOM     10  C   LIG    1        2.881   5.729  -0.540  0.00  0.00    +0.010 A 
ATOM     11  C   LIG    1        2.272   6.776  -1.206  0.00  0.00    +0.030 A 
ATOM     12  C   LIG    1        0.929   7.033  -1.012  0.00  0.00    +0.020 A 
ENDBRANCH   4   7
BRANCH   3  13
ATOM     13  N   LIG    1       -1.955   4.186   0.367  0.00  0.00    -0.670 N 
ATOM     14  H   LIG    1       -2.194   3.712   1.179  0.00  0.00    +0.420 HD
ATOM     15  C   LIG    1       -1.443   3.511  -0.681  0.00  0.00    +0.710 C 
ATOM     16  N   LIG    1       -1.333   2.169  -0.630  0.00  0.00    -0.670 N 
ATOM     17  H   LIG    1       -1.657   1.685   0.146  0.00  0.00    +0.410 HD
ATOM     18  O   LIG    1       -1.080   4.113  -1.673  0.00  0.00    -0.540 OA
BRANCH  16  19
ATOM     19  C   LIG    1       -0.753   1.472  -1.697  0.00  0.00    +0.200 A 
ATOM     20  C   LIG    1       -0.185   0.207  -1.482  0.00  0.00    -0.170 A 
ATOM     21  S   LIG    1       -0.045  -0.749  -0.013  0.00  0.00    +0.070 S 
ATOM     22  C   LIG    1        0.773  -2.050  -0.857  0.00  0.00    -0.020 A 
ATOM     23  C   LIG    1        0.921  -1.773  -2.138  0.00  0.00    +0.040 A 
ATOM     24  C   LIG    1        0.387  -0.486  -2.551  0.00  0.00    -0.060 A 
ATOM     25  C   LIG    1        0.380   0.110  -3.832  0.00  0.00    +0.030 A 
ATOM     26  C   LIG    1       -0.175   1.339  -4.021  0.00  0.00    +0.040 A 
ATOM     27  C   LIG    1       -0.745   2.029  -2.961  0.00  0.00    +0.040 A 
ENDBRANCH  16  19
ENDBRANCH   3  13
BRANCH   6  28
ATOM     28  C   LIG    1       -4.090   8.697   0.344  0.00  0.00    +0.010 C 
ATOM     29  C   LIG    1       -4.922   8.533   1.618  0.00  0.00    +0.050 C 
ATOM     30  C   LIG    1       -5.008   8.625  -0.877  0.00  0.00    +0.050 C 
ATOM     31  C   LIG    1       -3.381  10.053   0.370  0.00  0.00    +0.040 C 
ENDBRANCH   6  28
TORSDOF 4
