REMARK  Name = ZINCqH0000000tqv.0
REMARK                            x       y       z     vdW  Elec       q    Type
REMARK                         _______ _______ _______ _____ _____    ______ ____
ROOT
ATOM      1  N   LIG    1        2.316   1.248  -0.026  0.00  0.00    -0.660 N 
ATOM      2  H   LIG    1        2.380   0.282   0.046  0.00  0.00    +0.410 HD
ATOM      3  C   LIG    1        3.434   1.989  -0.150  0.00  0.00    +0.530 C 
ATOM      4  O   LIG    1        3.362   3.200  -0.147  0.00  0.00    -0.500 OA
ENDROOT
BRANCH   1   8
ATOM      5  C   LIG    1       -1.419   3.101   0.046  0.00  0.00    +0.130 A 
ATOM      6  C   LIG    1       -1.202   1.946   0.786  0.00  0.00    +0.010 A 
ATOM      7  C   LIG    1        0.035   1.335   0.766  0.00  0.00    +0.010 A 
ATOM      8  C   LIG    1        1.061   1.870  -0.002  0.00  0.00    +0.130 A 
ATOM      9  C   LIG    1        0.844   3.023  -0.746  0.00  0.00    +0.040 A 
ATOM     10  C   LIG    1       -0.393   3.636  -0.722  0.00  0.00    +0.040 A 
BRANCH   5  13
ATOM     11  C   LIG    1       -4.547   4.890  -1.048  0.00  0.00    +0.110 C 
ATOM     12  C   LIG    1       -3.155   4.311  -1.043  0.00  0.00    +0.510 C 
ATOM     13  N   LIG    1       -2.674   3.723   0.070  0.00  0.00    -0.670 N 
ATOM     14  H   LIG    1       -3.196   3.731   0.887  0.00  0.00    +0.410 HD
ATOM     15  O   LIG    1       -2.469   4.375  -2.041  0.00  0.00    -0.530 OA
ENDBRANCH   5  13
ENDBRANCH   1   8
BRANCH   3  16
ATOM     16  C   LIG    1        4.774   1.315  -0.291  0.00  0.00    +0.020 C 
ATOM     17  C   LIG    1        5.269   0.868   1.086  0.00  0.00    +0.090 C 
BRANCH  16  18
ATOM     18  S   LIG    1        5.961   2.476  -1.011  0.00  0.00    +0.060 S 
BRANCH  18  19
ATOM     19  C   LIG    1        7.353   1.412  -1.201  0.00  0.00    +0.180 A 
ATOM     20  N   LIG    1        7.292   0.138  -0.836  0.00  0.00    -0.540 NA
ATOM     21  C   LIG    1        8.330  -0.671  -0.974  0.00  0.00    +0.510 A 
ATOM     22  N   LIG    1        9.479  -0.281  -1.474  0.00  0.00    -0.510 NA
ATOM     23  C   LIG    1        9.650   0.989  -1.875  0.00  0.00    +0.170 A 
ATOM     24  C   LIG    1       10.863   1.440  -2.412  0.00  0.00    +0.040 A 
ATOM     25  C   LIG    1       10.983   2.740  -2.804  0.00  0.00    +0.070 A 
ATOM     26  C   LIG    1        9.919   3.628  -2.679  0.00  0.00    +0.030 A 
ATOM     27  C   LIG    1        8.725   3.222  -2.159  0.00  0.00    +0.060 A 
ATOM     28  C   LIG    1        8.567   1.893  -1.753  0.00  0.00    -0.140 A 
ENDBRANCH  18  19
ENDBRANCH  16  18
ENDBRANCH   3  16
TORSDOF 5
