REMARK  Name = ZINCpk00000eaVoj.0
REMARK                            x       y       z     vdW  Elec       q    Type
REMARK                         _______ _______ _______ _____ _____    ______ ____
ROOT
ATOM      1  C   LIG    1       -1.012   1.425  -3.608  0.00  0.00    +0.150 C 
ATOM      2  C   LIG    1       -0.206   0.935  -2.402  0.00  0.00    +0.160 C 
ATOM      3  N   LIG    1       -0.723   1.572  -1.182  0.00  0.00    -0.510 NA
ATOM      4  C   LIG    1       -0.640   3.037  -1.284  0.00  0.00    +0.170 C 
ATOM      5  C   LIG    1       -1.441   3.505  -2.501  0.00  0.00    +0.230 C 
ATOM      6  O   LIG    1       -0.945   2.852  -3.672  0.00  0.00    -0.370 OA
ENDROOT
BRANCH   3   7
ATOM      7  C   LIG    1       -0.013   1.086   0.008  0.00  0.00    +0.180 C 
ATOM      8  C   LIG    1        1.423   1.615  -0.003  0.00  0.00    +0.020 C 
BRANCH   7   9
ATOM      9  C   LIG    1       -0.718   1.572   1.248  0.00  0.00    +0.520 C 
ATOM     10  N   LIG    1       -0.242   1.246   2.466  0.00  0.00    -0.730 N 
ATOM     11  H   LIG    1        0.555   0.699   2.544  0.00  0.00    +0.400 HD
ATOM     12  O   LIG    1       -1.714   2.256   1.150  0.00  0.00    -0.520 OA
BRANCH  10  13
ATOM     13  C   LIG    1       -0.927   1.718   3.671  0.00  0.00    +0.400 C 
BRANCH  13  14
ATOM     14  C   LIG    1       -0.198   1.219   4.892  0.00  0.00    -0.040 A 
ATOM     15  C   LIG    1        0.803   1.855   5.525  0.00  0.00    -0.030 A 
ATOM     16  C   LIG    1        1.187   1.036   6.612  0.00  0.00    -0.070 A 
ATOM     17  C   LIG    1        0.402  -0.055   6.573  0.00  0.00    +0.180 A 
ATOM     18  O   LIG    1       -0.435   0.061   5.529  0.00  0.00    -0.170 OA
ENDBRANCH  13  14
ENDBRANCH  10  13
ENDBRANCH   7   9
ENDBRANCH   3   7
BRANCH   1  19
ATOM     19  C   LIG    1       -0.428   0.828  -4.890  0.00  0.00    +0.350 C 
BRANCH  19  26
ATOM     20  C   LIG    1       -2.840  -0.799  -5.960  0.00  0.00    +0.150 C 
ATOM     21  C   LIG    1       -2.319   0.505  -6.506  0.00  0.00    +0.080 A 
ATOM     22  C   LIG    1       -2.825   1.188  -7.559  0.00  0.00    -0.130 A 
ATOM     23  C   LIG    1       -2.050   2.338  -7.739  0.00  0.00    +0.070 A 
ATOM     24  N   LIG    1       -1.116   2.349  -6.823  0.00  0.00    -0.280 NA
ATOM     25  C   LIG    1       -2.256   3.385  -8.803  0.00  0.00    +0.150 C 
ATOM     26  N   LIG    1       -1.267   1.204  -6.030  0.00  0.00    -0.360 N 
ENDBRANCH  19  26
ENDBRANCH   1  19
TORSDOF 6
