REMARK  Name = ZINCpe00000MJKzn.0
REMARK                            x       y       z     vdW  Elec       q    Type
REMARK                         _______ _______ _______ _____ _____    ______ ____
ROOT
ATOM      1  O   LIG    1       -5.035   5.996   0.980  0.00  0.00    -0.520 OA
ATOM      2  C   LIG    1       -6.188   6.376   0.936  0.00  0.00    +0.580 C 
ATOM      3  N   LIG    1       -6.488   7.654   1.240  0.00  0.00    -0.610 N 
ATOM      4  C   LIG    1       -5.513   8.716   1.547  0.00  0.00    +0.280 C 
ATOM      5  C   LIG    1       -6.250  10.039   1.209  0.00  0.00    +0.090 C 
ATOM      6  C   LIG    1       -7.694   9.715   1.676  0.00  0.00    +0.110 C 
ATOM      7  C   LIG    1       -7.843   8.219   1.327  0.00  0.00    +0.260 C 
ENDROOT
BRANCH   2   8
ATOM      8  C   LIG    1       -7.265   5.435   0.548  0.00  0.00    -0.060 A 
ATOM      9  C   LIG    1       -8.611   5.805   0.641  0.00  0.00    -0.050 A 
ATOM     10  C   LIG    1       -9.584   4.899   0.269  0.00  0.00    +0.320 A 
ATOM     11  N   LIG    1       -9.261   3.700  -0.174  0.00  0.00    -0.530 NA
ATOM     12  C   LIG    1       -8.003   3.305  -0.274  0.00  0.00    +0.320 A 
ATOM     13  C   LIG    1       -6.963   4.155   0.079  0.00  0.00    +0.010 A 
BRANCH  12  14
ATOM     14  O   LIG    1       -7.725   2.059  -0.731  0.00  0.00    -0.290 OA
BRANCH  14  15
ATOM     15  C   LIG    1       -8.838   1.232  -1.078  0.00  0.00    +0.180 C 
ATOM     16  C   LIG    1       -8.575  -0.270  -0.879  0.00  0.00    +0.030 C 
ATOM     17  C   LIG    1       -9.342  -0.498  -2.193  0.00  0.00    +0.030 C 
ATOM     18  C   LIG    1       -8.943   0.935  -2.585  0.00  0.00    +0.010 C 
ENDBRANCH  14  15
ENDBRANCH  12  14
ENDBRANCH   2   8
BRANCH   6  19
ATOM     19  O   LIG    1       -7.829   9.922   3.083  0.00  0.00    -0.540 OA
ATOM     20  H   LIG    1       -8.690   9.662   3.438  0.00  0.00    +0.380 HD
ENDBRANCH   6  19
BRANCH   6  21
ATOM     21  C   LIG    1       -8.713  10.555   0.903  0.00  0.00    +0.340 C 
BRANCH  21  22
ATOM     22  N   LIG    1      -10.069  10.144   1.278  0.00  0.00    -0.300 N 
ATOM     23  C   LIG    1      -11.041  10.956   1.754  0.00  0.00    +0.150 A 
ATOM     24  C   LIG    1      -12.121  10.169   1.964  0.00  0.00    +0.140 A 
ATOM     25  N   LIG    1      -11.760   8.928   1.618  0.00  0.00    -0.260 NA
ATOM     26  N   LIG    1      -10.538   8.947   1.216  0.00  0.00    -0.100 NA
ENDBRANCH  21  22
ENDBRANCH   6  21
TORSDOF 6
