REMARK  Name = ZINCrH00000tj0u9.0
REMARK                            x       y       z     vdW  Elec       q    Type
REMARK                         _______ _______ _______ _____ _____    ______ ____
ROOT
ATOM      1  N   LIG    1        3.632  -0.644  -0.038  0.00  0.00    -0.420 N 
ATOM      2  C   LIG    1        4.332  -1.032   1.045  0.00  0.00    +0.510 A 
ATOM      3  N   LIG    1        5.460  -1.657   0.656  0.00  0.00    -0.570 N 
ATOM      4  H   LIG    1        6.134  -2.031   1.245  0.00  0.00    +0.450 HD
ATOM      5  C   LIG    1        5.494  -1.674  -0.736  0.00  0.00    +0.060 A 
ATOM      6  C   LIG    1        6.399  -2.174  -1.660  0.00  0.00    +0.170 A 
ATOM      7  C   LIG    1        6.142  -2.050  -3.011  0.00  0.00    -0.660 A 
ATOM      8  C   LIG    1        4.992  -1.416  -3.448  0.00  0.00    +0.150 A 
ATOM      9  C   LIG    1        4.087  -0.909  -2.535  0.00  0.00    +0.040 A 
ATOM     10  S   LIG    1        3.860  -0.773   2.670  0.00  0.00    -0.560 S 
ATOM     11  C   LIG    1        4.332  -1.037  -1.177  0.00  0.00    +0.140 A 
ENDROOT
BRANCH   1  17
ATOM     12  C   LIG    1        1.211  -0.680  -0.014  0.00  0.00    +0.170 A 
ATOM     13  C   LIG    1        0.002  -0.004   0.002  0.00  0.00    -0.060 A 
ATOM     14  C   LIG    1       -0.017   1.379   0.010  0.00  0.00    +0.090 A 
ATOM     15  C   LIG    1        1.169   2.090   0.002  0.00  0.00    -0.010 A 
ATOM     16  C   LIG    1        2.379   1.422  -0.013  0.00  0.00    +0.090 A 
ATOM     17  C   LIG    1        2.406   0.036  -0.021  0.00  0.00    +0.070 A 
BRANCH  12  18
ATOM     18  O   LIG    1        1.231  -2.040  -0.021  0.00  0.00    -0.310 OA
BRANCH  18  20
ATOM     19  C   LIG    1        0.190  -4.221  -0.022  0.00  0.00    +0.070 C 
ATOM     20  C   LIG    1       -0.033  -2.708  -0.012  0.00  0.00    +0.190 C 
ENDBRANCH  18  20
ENDBRANCH  12  18
ENDBRANCH   1  17
BRANCH   7  21
ATOM     21  S   LIG    1        7.289  -2.691  -4.185  0.00  0.00    +2.690 S 
ATOM     22  O   LIG    1        6.556  -2.914  -5.382  0.00  0.00    -0.950 OA
ATOM     23  O   LIG    1        8.017  -3.713  -3.518  0.00  0.00    -0.950 OA
BRANCH  21  24
ATOM     24  N   LIG    1        8.374  -1.486  -4.519  0.00  0.00    -0.990 NA
BRANCH  24  25
ATOM     25  C   LIG    1        8.113  -0.547  -5.613  0.00  0.00    +0.300 C 
ATOM     26  C   LIG    1        7.442   0.711  -5.056  0.00  0.00    +0.010 C 
ENDBRANCH  24  25
BRANCH  24  27
ATOM     27  C   LIG    1        9.596  -1.358  -3.720  0.00  0.00    +0.280 C 
ATOM     28  C   LIG    1       10.743  -2.085  -4.424  0.00  0.00    +0.010 C 
ENDBRANCH  24  27
ENDBRANCH  21  24
ENDBRANCH   7  21
TORSDOF 7
