REMARK  Name = ZINCnE000001HY6t.0
REMARK                            x       y       z     vdW  Elec       q    Type
REMARK                         _______ _______ _______ _____ _____    ______ ____
ROOT
ATOM      1  C   LIG    1       -0.807   7.332   1.299  0.00  0.00    +0.030 A 
ATOM      2  C   LIG    1        0.145   8.138   1.854  0.00  0.00    -0.040 A 
ATOM      3  C   LIG    1       -0.258   9.460   1.638  0.00  0.00    +0.020 A 
ATOM      4  C   LIG    1       -1.456   9.404   0.961  0.00  0.00    -0.040 A 
ATOM      5  O   LIG    1       -1.768   8.105   0.767  0.00  0.00    -0.160 OA
ENDROOT
BRANCH   1   9
ATOM      6  C   LIG    1       -0.749   3.086   1.275  0.00  0.00    -0.080 A 
ATOM      7  C   LIG    1        0.283   3.785   1.874  0.00  0.00    +0.010 A 
ATOM      8  C   LIG    1        0.274   5.165   1.881  0.00  0.00    +0.040 A 
ATOM      9  C   LIG    1       -0.787   5.855   1.291  0.00  0.00    -0.020 A 
ATOM     10  C   LIG    1       -1.829   5.143   0.693  0.00  0.00    +0.030 A 
ATOM     11  C   LIG    1       -1.804   3.764   0.689  0.00  0.00    +0.020 A 
BRANCH   6  13
ATOM     12  C   LIG    1       -0.013   1.086   0.008  0.00  0.00    +0.030 C 
ATOM     13  C   LIG    1       -0.729   1.579   1.267  0.00  0.00    +0.050 C 
ENDBRANCH   6  13
ENDBRANCH   1   9
BRANCH   4  14
ATOM     14  C   LIG    1       -2.253  10.554   0.525  0.00  0.00    +0.600 C 
ATOM     15  N   LIG    1       -3.413  10.361  -0.133  0.00  0.00    -0.690 N 
ATOM     16  H   LIG    1       -3.721   9.459  -0.319  0.00  0.00    +0.390 HD
ATOM     17  O   LIG    1       -1.867  11.685   0.758  0.00  0.00    -0.500 OA
BRANCH  15  18
ATOM     18  C   LIG    1       -4.209  11.511  -0.568  0.00  0.00    +0.100 C 
ATOM     19  C   LIG    1       -3.381  12.372  -1.524  0.00  0.00    +0.040 C 
BRANCH  18  20
ATOM     20  C   LIG    1       -4.605  12.331   0.633  0.00  0.00    +0.500 C 
ATOM     21  O   LIG    1       -5.276  13.339   0.488  0.00  0.00    -0.690 OA
ATOM     22  O   LIG    1       -4.254  11.987   1.748  0.00  0.00    -0.680 OA
ENDBRANCH  18  20
BRANCH  18  23
ATOM     23  C   LIG    1       -5.467  11.018  -1.286  0.00  0.00    +0.010 C 
ATOM     24  C   LIG    1       -6.299  12.219  -1.740  0.00  0.00    +0.020 C 
ENDBRANCH  18  23
ENDBRANCH  15  18
ENDBRANCH   4  14
TORSDOF 6
