REMARK  Name = ZINCvU00000009ki.0
REMARK                            x       y       z     vdW  Elec       q    Type
REMARK                         _______ _______ _______ _____ _____    ______ ____
ROOT
ATOM      1  C   LIG    1        1.763   3.130   0.103  0.00  0.00    +0.600 C 
ATOM      2  N   LIG    1        3.072   3.449   0.090  0.00  0.00    -0.590 N 
ATOM      3  C   LIG    1        4.082   2.396  -0.038  0.00  0.00    +0.290 C 
ATOM      4  O   LIG    1        0.923   4.008   0.124  0.00  0.00    -0.540 OA
ENDROOT
BRANCH   1   7
ATOM      5  C   LIG    1       -0.724   1.921   1.609  0.00  0.00    +0.170 C 
ATOM      6  C   LIG    1        0.263   1.173   0.750  0.00  0.00    +0.160 A 
ATOM      7  C   LIG    1        1.349   1.715   0.092  0.00  0.00    -0.280 A 
ATOM      8  C   LIG    1        1.990   0.659  -0.594  0.00  0.00    +0.290 A 
ATOM      9  N   LIG    1        1.326  -0.440  -0.358  0.00  0.00    -0.290 NA
ATOM     10  N   LIG    1        0.244  -0.144   0.478  0.00  0.00    -0.320 N 
BRANCH  10  11
ATOM     11  C   LIG    1       -0.700  -1.065   0.952  0.00  0.00    +0.160 A 
ATOM     12  C   LIG    1       -1.102  -2.124   0.150  0.00  0.00    +0.040 A 
ATOM     13  C   LIG    1       -2.033  -3.031   0.619  0.00  0.00    +0.060 A 
ATOM     14  C   LIG    1       -2.565  -2.885   1.887  0.00  0.00    +0.030 A 
ATOM     15  C   LIG    1       -2.166  -1.830   2.690  0.00  0.00    -0.020 A 
ATOM     16 CL   LIG    1       -2.836  -1.649   4.281  0.00  0.00    -0.050 Cl
ATOM     17  C   LIG    1       -1.231  -0.923   2.227  0.00  0.00    +0.020 A 
ENDBRANCH  10  11
ENDBRANCH   1   7
BRANCH   2  18
ATOM     18  C   LIG    1        3.485   4.850   0.203  0.00  0.00    +0.370 C 
BRANCH  18  19
ATOM     19  C   LIG    1        4.276   5.241  -1.019  0.00  0.00    -0.070 A 
ATOM     20  C   LIG    1        3.884   6.329  -1.776  0.00  0.00    +0.020 A 
ATOM     21  C   LIG    1        4.611   6.692  -2.895  0.00  0.00    +0.050 A 
ATOM     22  C   LIG    1        5.724   5.961  -3.263  0.00  0.00    -0.010 A 
ATOM     23  C   LIG    1        6.115   4.868  -2.508  0.00  0.00    +0.100 A 
ATOM     24  F   LIG    1        7.203   4.152  -2.867  0.00  0.00    -0.140 F 
ATOM     25  C   LIG    1        5.389   4.508  -1.385  0.00  0.00    +0.010 A 
ENDBRANCH  18  19
BRANCH  18  26
ATOM     26  C   LIG    1        4.341   5.024   1.432  0.00  0.00    +0.120 A 
ATOM     27  C   LIG    1        4.425   6.263   2.036  0.00  0.00    -0.020 A 
ATOM     28  C   LIG    1        5.212   6.411   3.168  0.00  0.00    +0.070 A 
ATOM     29  C   LIG    1        5.894   5.304   3.647  0.00  0.00    -0.030 A 
ATOM     30  C   LIG    1        5.765   4.096   2.987  0.00  0.00    +0.260 A 
ATOM     31  N   LIG    1        5.005   3.991   1.915  0.00  0.00    -0.470 NA
ENDBRANCH  18  26
ENDBRANCH   2  18
TORSDOF 5
