REMARK  Name = ZINCvU00000003OE.0
REMARK                            x       y       z     vdW  Elec       q    Type
REMARK                         _______ _______ _______ _____ _____    ______ ____
ROOT
ATOM      1  C   LIG    1       -5.104   4.628   2.550  0.00  0.00    +0.280 C 
ENDROOT
BRANCH   1   2
ATOM      2  N   LIG    1       -5.249   3.180   2.722  0.00  0.00    -0.720 N 
ATOM      3  H   LIG    1       -4.900   2.575   2.049  0.00  0.00    +0.400 HD
ATOM      4  C   LIG    1       -5.866   2.690   3.815  0.00  0.00    +0.540 C 
ATOM      5  O   LIG    1       -6.302   3.447   4.656  0.00  0.00    -0.510 OA
BRANCH   4   6
ATOM      6  C   LIG    1       -6.014   1.201   3.992  0.00  0.00    -0.020 C 
ATOM      7  C   LIG    1       -4.746   0.635   4.634  0.00  0.00    +0.090 C 
BRANCH   6   8
ATOM      8  S   LIG    1       -7.436   0.858   5.059  0.00  0.00    +0.110 S 
BRANCH   8   9
ATOM      9  C   LIG    1       -7.466  -0.901   4.973  0.00  0.00    +0.070 A 
ATOM     10  N   LIG    1       -8.320  -1.653   5.580  0.00  0.00    -0.440 NA
ATOM     11  C   LIG    1       -8.214  -2.987   5.415  0.00  0.00    +0.090 A 
ATOM     12  C   LIG    1       -9.015  -4.011   5.964  0.00  0.00    +0.080 A 
ATOM     13  C   LIG    1       -8.752  -5.327   5.679  0.00  0.00    +0.040 A 
ATOM     14  C   LIG    1       -7.697  -5.672   4.848  0.00  0.00    +0.040 A 
ATOM     15  C   LIG    1       -6.901  -4.689   4.301  0.00  0.00    +0.060 A 
ATOM     16  C   LIG    1       -7.153  -3.349   4.580  0.00  0.00    -0.170 A 
ATOM     17  S   LIG    1       -6.342  -1.880   4.041  0.00  0.00    +0.060 S 
ENDBRANCH   8   9
ENDBRANCH   6   8
ENDBRANCH   4   6
ENDBRANCH   1   2
BRANCH   1  18
ATOM     18  C   LIG    1       -4.373   4.915   1.237  0.00  0.00    +0.230 C 
BRANCH  18  19
ATOM     19  N   LIG    1       -3.098   4.195   1.221  0.00  0.00    -0.720 N 
ATOM     20  H   LIG    1       -2.667   3.952   2.056  0.00  0.00    +0.400 HD
ATOM     21  C   LIG    1       -2.522   3.870   0.046  0.00  0.00    +0.570 C 
ATOM     22  O   LIG    1       -3.061   4.175  -1.000  0.00  0.00    -0.500 OA
BRANCH  21  23
ATOM     23  C   LIG    1       -1.236   3.145   0.030  0.00  0.00    -0.140 A 
ATOM     24  C   LIG    1       -1.218   1.748   0.017  0.00  0.00    -0.050 A 
ATOM     25  C   LIG    1       -0.013   1.076   0.008  0.00  0.00    +0.060 A 
ATOM     26  C   LIG    1        1.177   1.782   0.000  0.00  0.00    +0.080 A 
ATOM     27  C   LIG    1        1.170   3.164   0.008  0.00  0.00    -0.100 A 
ATOM     28  C   LIG    1        2.472   3.924  -0.001  0.00  0.00    +0.120 C 
ATOM     29 BR   LIG    1       -2.843   0.779   0.019  0.00  0.00    -0.020 Br
ATOM     30  C   LIG    1       -0.029   3.852   0.023  0.00  0.00    +0.140 A 
ATOM     31  F   LIG    1       -0.036   5.203   0.030  0.00  0.00    -0.120 F 
ENDBRANCH  21  23
ENDBRANCH  18  19
BRANCH  18  33
ATOM     32  C   LIG    1       -3.494   6.721  -0.249  0.00  0.00    +0.020 C 
ATOM     33  C   LIG    1       -4.112   6.418   1.117  0.00  0.00    +0.020 C 
ENDBRANCH  18  33
ENDBRANCH   1  18
TORSDOF 8
