REMARK  Name = ZINCvU0000000FCM.0
REMARK                            x       y       z     vdW  Elec       q    Type
REMARK                         _______ _______ _______ _____ _____    ______ ____
ROOT
ATOM      1  N   LIG    1       -5.356   1.748  -0.955  0.00  0.00    -0.450 N 
ATOM      2  C   LIG    1       -4.092   2.071  -0.549  0.00  0.00    +0.150 A 
ATOM      3  N   LIG    1       -4.100   3.345  -0.226  0.00  0.00    -0.290 NA
ATOM      4  N   LIG    1       -5.272   3.839  -0.409  0.00  0.00    -0.270 NA
ATOM      5  C   LIG    1       -6.087   2.909  -0.851  0.00  0.00    +0.230 A 
ENDROOT
BRANCH   5   6
ATOM      6  C   LIG    1       -7.519   3.078  -1.177  0.00  0.00    -0.020 A 
ATOM      7  C   LIG    1       -8.358   1.965  -1.244  0.00  0.00    +0.010 A 
ATOM      8  C   LIG    1       -9.695   2.130  -1.542  0.00  0.00    +0.010 A 
ATOM      9  C   LIG    1      -10.201   3.394  -1.787  0.00  0.00    -0.050 A 
ATOM     10  C   LIG    1       -9.373   4.501  -1.728  0.00  0.00    +0.020 A 
ATOM     11  C   LIG    1       -8.036   4.351  -1.424  0.00  0.00    +0.070 A 
BRANCH   9  12
ATOM     12  C   LIG    1      -11.661   3.566  -2.119  0.00  0.00    -0.030 C 
ATOM     13  C   LIG    1      -12.320   4.467  -1.072  0.00  0.00    +0.040 C 
ATOM     14  C   LIG    1      -12.348   2.199  -2.120  0.00  0.00    +0.030 C 
ATOM     15  C   LIG    1      -11.798   4.207  -3.501  0.00  0.00    +0.040 C 
ENDBRANCH   9  12
ENDBRANCH   5   6
BRANCH   1  16
ATOM     16  C   LIG    1       -5.833   0.439  -1.406  0.00  0.00    +0.340 C 
BRANCH  16  18
ATOM     17  C   LIG    1       -7.385  -0.959  -0.142  0.00  0.00    +0.060 C 
ATOM     18  C   LIG    1       -6.202  -0.401  -0.211  0.00  0.00    -0.060 C 
ENDBRANCH  16  18
ENDBRANCH   1  16
BRANCH   2  19
ATOM     19  S   LIG    1       -2.711   0.980  -0.467  0.00  0.00    +0.080 S 
BRANCH  19  20
ATOM     20  C   LIG    1       -1.446   2.121   0.145  0.00  0.00    +0.020 C 
ATOM     21  C   LIG    1       -1.816   2.585   1.555  0.00  0.00    +0.080 C 
BRANCH  20  22
ATOM     22  C   LIG    1       -0.112   1.421   0.181  0.00  0.00    +0.540 C 
ATOM     23  N   LIG    1        1.027   2.140   0.201  0.00  0.00    -0.720 N 
ATOM     24  H   LIG    1        0.989   3.110   0.197  0.00  0.00    +0.410 HD
ATOM     25  O   LIG    1       -0.064   0.209   0.186  0.00  0.00    -0.520 OA
BRANCH  23  26
ATOM     26  C   LIG    1        2.324   1.459   0.230  0.00  0.00    +0.270 C 
BRANCH  26  27
ATOM     27  C   LIG    1        3.446   2.499   0.249  0.00  0.00    +0.110 C 
BRANCH  27  28
ATOM     28  C   LIG    1        4.780   1.798   0.279  0.00  0.00    -0.180 A 
ATOM     29  C   LIG    1        5.482   1.436  -0.796  0.00  0.00    +0.010 A 
ATOM     30  C   LIG    1        6.683   0.804  -0.522  0.00  0.00    +0.000 A 
ATOM     31  C   LIG    1        6.955   0.652   0.775  0.00  0.00    -0.040 A 
ATOM     32  S   LIG    1        5.652   1.338   1.736  0.00  0.00    +0.100 S 
ENDBRANCH  27  28
ENDBRANCH  26  27
ENDBRANCH  23  26
ENDBRANCH  20  22
ENDBRANCH  19  20
ENDBRANCH   2  19
TORSDOF 10
