REMARK  Name = ZINCpe00000VVGLe.0
REMARK                            x       y       z     vdW  Elec       q    Type
REMARK                         _______ _______ _______ _____ _____    ______ ____
ROOT
ATOM      1  C   LIG    1       -0.756   1.608  -1.239  0.00  0.00    +0.130 C 
ATOM      2  C   LIG    1       -1.905   2.510  -0.731  0.00  0.00    +0.040 C 
ATOM      3  C   LIG    1       -1.439   2.894   0.695  0.00  0.00    +0.180 C 
ATOM      4  N   LIG    1       -0.789   1.651   1.191  0.00  0.00    -0.480 NA
ATOM      5  C   LIG    1       -0.057   1.093   0.034  0.00  0.00    +0.190 C 
ENDROOT
BRANCH   1   6
ATOM      6  N   LIG    1       -1.294   0.483  -2.016  0.00  0.00    -0.520 NA
ATOM      7  C   LIG    1       -2.128   0.961  -3.126  0.00  0.00    +0.200 C 
BRANCH   6   8
ATOM      8  C   LIG    1       -0.213  -0.384  -2.504  0.00  0.00    +0.300 C 
BRANCH   8  13
ATOM      9  C   LIG    1       -2.187  -3.805  -5.653  0.00  0.00    +0.200 C 
ATOM     10  C   LIG    1       -1.648  -3.112  -4.428  0.00  0.00    +0.170 A 
ATOM     11  N   LIG    1       -1.548  -3.623  -3.232  0.00  0.00    -0.290 NA
ATOM     12  N   LIG    1       -1.040  -2.754  -2.431  0.00  0.00    -0.270 NA
ATOM     13  C   LIG    1       -0.802  -1.646  -3.079  0.00  0.00    +0.180 A 
ATOM     14  N   LIG    1       -1.178  -1.843  -4.366  0.00  0.00    -0.470 N 
ATOM     15  C   LIG    1       -1.093  -0.879  -5.466  0.00  0.00    +0.320 C 
ENDBRANCH   8  13
ENDBRANCH   6   8
ENDBRANCH   1   6
BRANCH   4  16
ATOM     16  C   LIG    1        0.126   1.938   2.304  0.00  0.00    +0.170 C 
BRANCH  16  17
ATOM     17  C   LIG    1       -0.632   2.616   3.416  0.00  0.00    -0.090 A 
ATOM     18  C   LIG    1       -1.912   2.201   3.734  0.00  0.00    +0.060 A 
ATOM     19  C   LIG    1       -2.605   2.820   4.757  0.00  0.00    +0.000 A 
ATOM     20  C   LIG    1       -2.023   3.860   5.456  0.00  0.00    +0.010 A 
ATOM     21  C   LIG    1       -0.745   4.279   5.135  0.00  0.00    +0.000 A 
ATOM     22  C   LIG    1       -0.050   3.657   4.114  0.00  0.00    +0.000 A 
ENDBRANCH  16  17
BRANCH  16  23
ATOM     23  C   LIG    1        0.718   0.649   2.813  0.00  0.00    +0.520 C 
ATOM     24  O   LIG    1        0.407  -0.405   2.299  0.00  0.00    -0.510 OA
ATOM     25  N   LIG    1        1.592   0.667   3.839  0.00  0.00    -0.850 N 
ATOM     26  H   LIG    1        1.972  -0.163   4.166  0.00  0.00    +0.400 HD
ATOM     27  H   LIG    1        1.840   1.510   4.250  0.00  0.00    +0.400 HD
ENDBRANCH  16  23
ENDBRANCH   4  16
TORSDOF 6
