REMARK  Name = ZINCkj00000dE6um.0
REMARK                            x       y       z     vdW  Elec       q    Type
REMARK                         _______ _______ _______ _____ _____    ______ ____
ROOT
ATOM      1  N   LIG    1       -2.424   2.791   5.454  0.00  0.00    -0.610 N 
ATOM      2  H   LIG    1       -2.652   1.982   4.970  0.00  0.00    +0.420 HD
ATOM      3  C   LIG    1       -1.423   3.579   5.013  0.00  0.00    +0.500 C 
ATOM      4  O   LIG    1       -1.136   4.591   5.617  0.00  0.00    -0.520 OA
ENDROOT
BRANCH   1   7
ATOM      5  C   LIG    1       -4.604   3.116   8.303  0.00  0.00    -0.030 A 
ATOM      6  C   LIG    1       -4.197   2.422   7.184  0.00  0.00    +0.050 A 
ATOM      7  C   LIG    1       -3.137   3.143   6.614  0.00  0.00    +0.020 A 
ATOM      8  C   LIG    1       -2.920   4.240   7.387  0.00  0.00    +0.230 A 
ATOM      9  N   LIG    1       -3.810   4.235   8.413  0.00  0.00    -0.530 N 
ATOM     10  H   LIG    1       -3.873   4.907   9.110  0.00  0.00    +0.430 HD
BRANCH   5  14
ATOM     11  N   LIG    1       -5.982   3.507  10.276  0.00  0.00    -0.850 N 
ATOM     12  H   LIG    1       -6.699   3.253  10.878  0.00  0.00    +0.410 HD
ATOM     13  H   LIG    1       -5.477   4.319  10.439  0.00  0.00    +0.400 HD
ATOM     14  C   LIG    1       -5.688   2.732   9.213  0.00  0.00    +0.590 C 
ATOM     15  O   LIG    1       -6.322   1.714   9.009  0.00  0.00    -0.520 OA
ENDBRANCH   5  14
ENDBRANCH   1   7
BRANCH   3  16
ATOM     16  C   LIG    1       -0.658   3.202   3.770  0.00  0.00    +0.180 C 
BRANCH  16  17
ATOM     17  N   LIG    1        0.634   3.901   3.759  0.00  0.00    -0.620 N 
ATOM     18  H   LIG    1        1.166   3.637   4.574  0.00  0.00    +0.440 HD
ATOM     19  H   LIG    1        0.477   4.897   3.768  0.00  0.00    +0.440 HD
ATOM     20  H   LIG    1        1.145   3.648   2.927  0.00  0.00    +0.440 HD
ENDBRANCH  16  17
BRANCH  16  21
ATOM     21  C   LIG    1       -1.466   3.603   2.534  0.00  0.00    +0.080 C 
BRANCH  21  22
ATOM     22  C   LIG    1       -0.750   3.109   1.275  0.00  0.00    -0.030 C 
ATOM     23  C   LIG    1       -0.729   1.579   1.267  0.00  0.00    +0.010 C 
ATOM     24  C   LIG    1       -0.013   1.086   0.008  0.00  0.00    +0.010 C 
ATOM     25  C   LIG    1       -0.753   1.593  -1.232  0.00  0.00    +0.010 C 
ATOM     26  C   LIG    1       -0.773   3.123  -1.223  0.00  0.00    +0.010 C 
ATOM     27  C   LIG    1       -1.490   3.616   0.036  0.00  0.00    +0.020 C 
ENDBRANCH  21  22
ENDBRANCH  16  21
ENDBRANCH   3  16
TORSDOF 6
