REMARK  Name = ZINCrH00000No51O.0
REMARK                            x       y       z     vdW  Elec       q    Type
REMARK                         _______ _______ _______ _____ _____    ______ ____
ROOT
ATOM      1  O   LIG    1       -2.611   8.215  -0.244  0.00  0.00    -0.320 OA
ENDROOT
BRANCH   1   2
ATOM      2  C   LIG    1       -2.800   9.547  -0.344  0.00  0.00    +0.500 C 
ATOM      3  O   LIG    1       -1.843  10.297  -0.363  0.00  0.00    -0.510 OA
BRANCH   2   4
ATOM      4  C   LIG    1       -4.156  10.089  -0.431  0.00  0.00    -0.040 C 
ATOM      5  C   LIG    1       -4.345  11.421  -0.531  0.00  0.00    +0.140 C 
BRANCH   5   6
ATOM      6  C   LIG    1       -5.709  11.966  -0.618  0.00  0.00    -0.080 A 
ATOM      7  C   LIG    1       -6.812  11.107  -0.597  0.00  0.00    +0.080 A 
ATOM      8  C   LIG    1       -8.088  11.625  -0.678  0.00  0.00    +0.020 A 
ATOM      9  C   LIG    1       -8.277  12.992  -0.781  0.00  0.00    +0.080 A 
ATOM     10  C   LIG    1       -7.191  13.849  -0.803  0.00  0.00    -0.180 A 
ATOM     11  C   LIG    1       -5.910  13.347  -0.716  0.00  0.00    +0.100 A 
BRANCH  10  12
ATOM     12  C   LIG    1       -7.409  15.336  -0.915  0.00  0.00    +0.510 C 
ATOM     13  F   LIG    1       -6.784  15.813  -2.072  0.00  0.00    -0.170 F 
ATOM     14  F   LIG    1       -6.864  15.973   0.205  0.00  0.00    -0.170 F 
ATOM     15  F   LIG    1       -8.780  15.603  -0.982  0.00  0.00    -0.170 F 
ENDBRANCH  10  12
ENDBRANCH   5   6
ENDBRANCH   2   4
ENDBRANCH   1   2
BRANCH   1  16
ATOM     16  C   LIG    1       -1.260   7.756  -0.164  0.00  0.00    +0.270 C 
BRANCH  16  19
ATOM     17  N   LIG    1       -0.074   5.594   0.030  0.00  0.00    -0.670 N 
ATOM     18  H   LIG    1        0.757   6.090   0.092  0.00  0.00    +0.420 HD
ATOM     19  C   LIG    1       -1.246   6.253  -0.058  0.00  0.00    +0.520 C 
ATOM     20  O   LIG    1       -2.291   5.635  -0.051  0.00  0.00    -0.490 OA
BRANCH  17  24
ATOM     21  C   LIG    1       -0.020   1.428   0.036  0.00  0.00    -0.040 A 
ATOM     22  C   LIG    1       -1.069   2.115   0.651  0.00  0.00    +0.090 A 
ATOM     23  C   LIG    1       -1.081   3.492   0.652  0.00  0.00    +0.030 A 
ATOM     24  C   LIG    1       -0.056   4.199   0.032  0.00  0.00    +0.170 A 
ATOM     25  C   LIG    1        0.988   3.518  -0.585  0.00  0.00    +0.000 A 
ATOM     26  C   LIG    1        1.009   2.141  -0.586  0.00  0.00    +0.090 A 
BRANCH  21  28
ATOM     27  N   LIG    1        0.013  -1.140   0.038  0.00  0.00    -0.410 NA
ATOM     28  C   LIG    1       -0.001  -0.004   0.037  0.00  0.00    +0.250 C 
ENDBRANCH  21  28
ENDBRANCH  17  24
ENDBRANCH  16  19
ENDBRANCH   1  16
TORSDOF 8
