REMARK  Name = ZINCpe000027pHl8.0
REMARK                            x       y       z     vdW  Elec       q    Type
REMARK                         _______ _______ _______ _____ _____    ______ ____
ROOT
ATOM      1  C   LIG    1       -2.553   9.597   1.997  0.00  0.00    +0.250 C 
ATOM      2  C   LIG    1       -1.731   8.756   2.674  0.00  0.00    -0.240 C 
ATOM      3  S   LIG    1       -0.153   9.121   3.401  0.00  0.00    -0.010 S 
ATOM      4  C   LIG    1        0.102   7.479   4.017  0.00  0.00    +0.540 C 
ATOM      5  N   LIG    1       -0.965   6.758   3.656  0.00  0.00    -0.550 N 
ATOM      6  O   LIG    1        1.065   7.083   4.646  0.00  0.00    -0.430 OA
ATOM      7  C   LIG    1       -1.941   7.335   2.975  0.00  0.00    +0.560 C 
ATOM      8  O   LIG    1       -2.939   6.733   2.623  0.00  0.00    -0.450 OA
ENDROOT
BRANCH   1  12
ATOM      9  C   LIG    1       -5.979   8.068   0.014  0.00  0.00    +0.130 A 
ATOM     10  C   LIG    1       -4.782   7.366  -0.029  0.00  0.00    -0.040 A 
ATOM     11  C   LIG    1       -3.666   7.860   0.610  0.00  0.00    +0.100 A 
ATOM     12  C   LIG    1       -3.740   9.069   1.312  0.00  0.00    -0.100 A 
ATOM     13  C   LIG    1       -4.947   9.777   1.353  0.00  0.00    +0.000 A 
ATOM     14  C   LIG    1       -6.059   9.276   0.707  0.00  0.00    +0.090 A 
BRANCH   9  16
ATOM     15  C   LIG    1       -6.923   6.336  -1.312  0.00  0.00    +0.240 C 
ATOM     16  O   LIG    1       -7.075   7.578  -0.621  0.00  0.00    -0.300 OA
ENDBRANCH   9  16
BRANCH  14  17
ATOM     17  O   LIG    1       -7.234   9.961   0.745  0.00  0.00    -0.310 OA
ATOM     18  C   LIG    1       -7.245  11.190   1.473  0.00  0.00    +0.240 C 
ENDBRANCH  14  17
ENDBRANCH   1  12
BRANCH   5  19
ATOM     19  C   LIG    1       -1.056   5.342   4.019  0.00  0.00    +0.340 C 
BRANCH  19  20
ATOM     20  C   LIG    1       -0.445   4.504   2.925  0.00  0.00    +0.500 C 
ATOM     21  N   LIG    1       -0.415   3.161   3.042  0.00  0.00    -0.720 N 
ATOM     22  H   LIG    1       -0.787   2.735   3.829  0.00  0.00    +0.410 HD
ATOM     23  O   LIG    1        0.021   5.037   1.940  0.00  0.00    -0.530 OA
BRANCH  21  24
ATOM     24  C   LIG    1        0.179   2.346   1.979  0.00  0.00    +0.290 C 
BRANCH  24  25
ATOM     25  C   LIG    1        0.085   0.867   2.357  0.00  0.00    +0.190 C 
BRANCH  25  26
ATOM     26  O   LIG    1       -1.288   0.476   2.411  0.00  0.00    -0.570 OA
ATOM     27  H   LIG    1       -1.424  -0.453   2.646  0.00  0.00    +0.390 HD
ENDBRANCH  25  26
ENDBRANCH  24  25
ENDBRANCH  21  24
ENDBRANCH  19  20
ENDBRANCH   5  19
TORSDOF 8
