REMARK  Name = ZINCnE000001Ogt2.0
REMARK                            x       y       z     vdW  Elec       q    Type
REMARK                         _______ _______ _______ _____ _____    ______ ____
ROOT
ATOM      1  C   LIG    1       -2.557   1.039   0.074  0.00  0.00    +0.030 C 
ATOM      2  C   LIG    1       -1.330   1.951   0.018  0.00  0.00    -0.100 C 
ENDROOT
BRANCH   2   3
ATOM      3  C   LIG    1       -0.082   1.110  -0.043  0.00  0.00    +0.000 A 
ATOM      4  C   LIG    1        0.877   1.222   0.947  0.00  0.00    +0.010 A 
ATOM      5  C   LIG    1        2.020   0.447   0.893  0.00  0.00    +0.010 A 
ATOM      6  C   LIG    1        2.210  -0.433  -0.157  0.00  0.00    -0.050 A 
ATOM      7  C   LIG    1        1.253  -0.541  -1.150  0.00  0.00    +0.010 A 
ATOM      8 CL   LIG    1        3.648  -1.403  -0.228  0.00  0.00    -0.100 Cl
ATOM      9  C   LIG    1        0.108   0.231  -1.093  0.00  0.00    +0.060 A 
ENDBRANCH   2   3
BRANCH   2  10
ATOM     10  C   LIG    1       -1.409   2.825  -1.207  0.00  0.00    +0.520 C 
ATOM     11  O   LIG    1       -2.393   3.518  -1.400  0.00  0.00    -0.710 OA
ATOM     12  O   LIG    1       -0.490   2.834  -2.009  0.00  0.00    -0.660 OA
ENDBRANCH   2  10
BRANCH   2  13
ATOM     13  C   LIG    1       -1.291   2.831   1.270  0.00  0.00    +0.060 C 
BRANCH  13  14
ATOM     14  C   LIG    1       -0.166   3.826   1.149  0.00  0.00    +0.510 C 
ATOM     15  N   LIG    1        0.125   4.643   2.181  0.00  0.00    -0.620 N 
ATOM     16  C   LIG    1       -0.560   4.698   3.507  0.00  0.00    +0.250 C 
ATOM     17  C   LIG    1        0.033   5.929   4.263  0.00  0.00    +0.040 C 
ATOM     18  C   LIG    1        0.526   6.785   3.097  0.00  0.00    -0.040 C 
ATOM     19  C   LIG    1        1.764   7.658   3.280  0.00  0.00    +0.030 C 
ATOM     20  C   LIG    1        2.385   7.665   1.849  0.00  0.00    +0.020 C 
ATOM     21  C   LIG    1        1.897   6.353   1.165  0.00  0.00    +0.030 C 
ATOM     22  C   LIG    1        1.147   5.624   2.234  0.00  0.00    +0.170 C 
ATOM     23  O   LIG    1        0.479   3.892   0.124  0.00  0.00    -0.470 OA
ENDBRANCH  13  14
ENDBRANCH   2  13
TORSDOF 4
