REMARK  Name = ZINCvU0000000Ebv.0
REMARK                            x       y       z     vdW  Elec       q    Type
REMARK                         _______ _______ _______ _____ _____    ______ ____
ROOT
ATOM      1  C   LIG    1        0.185  -2.943  -0.016  0.00  0.00    +0.100 C 
ENDROOT
BRANCH   1   2
ATOM      2  C   LIG    1        0.405  -4.434  -0.027  0.00  0.00    +0.450 C 
ATOM      3  O   LIG    1        1.533  -4.882  -0.041  0.00  0.00    -0.460 OA
BRANCH   2   7
ATOM      4  C   LIG    1       -4.359  -6.242   0.008  0.00  0.00    +0.130 C 
ATOM      5  C   LIG    1       -2.857  -6.125  -0.006  0.00  0.00    +0.020 A 
ATOM      6  C   LIG    1       -2.165  -4.973  -0.006  0.00  0.00    +0.000 A 
ATOM      7  C   LIG    1       -0.743  -5.343  -0.021  0.00  0.00    -0.260 A 
ATOM      8  C   LIG    1       -0.711  -6.725  -0.035  0.00  0.00    +0.130 A 
ATOM      9  C   LIG    1        0.529  -7.581  -0.060  0.00  0.00    +0.150 C 
ATOM     10  N   LIG    1       -1.981  -7.175  -0.020  0.00  0.00    -0.390 N 
BRANCH  10  11
ATOM     11  C   LIG    1       -2.352  -8.526  -0.024  0.00  0.00    +0.100 A 
ATOM     12  C   LIG    1       -2.030  -9.339   1.055  0.00  0.00    +0.020 A 
ATOM     13  C   LIG    1       -2.402 -10.669   1.051  0.00  0.00    +0.020 A 
ATOM     14  C   LIG    1       -3.084 -11.194  -0.031  0.00  0.00    +0.020 A 
ATOM     15  C   LIG    1       -3.400 -10.389  -1.110  0.00  0.00    +0.020 A 
ATOM     16  C   LIG    1       -3.036  -9.057  -1.109  0.00  0.00    +0.020 A 
ENDBRANCH  10  11
ENDBRANCH   2   7
ENDBRANCH   1   2
BRANCH   1  17
ATOM     17  S   LIG    1        1.785  -2.098  -0.027  0.00  0.00    +0.130 S 
BRANCH  17  18
ATOM     18  C   LIG    1        1.245  -0.421  -0.012  0.00  0.00    +0.140 A 
ATOM     19  N   LIG    1        0.002  -0.004   0.002  0.00  0.00    -0.290 NA
ATOM     20  N   LIG    1       -0.015   1.282   0.009  0.00  0.00    -0.240 NA
ATOM     21  C   LIG    1        1.204   1.734  -0.000  0.00  0.00    +0.160 A 
ATOM     22  O   LIG    1        2.032   0.671  -0.014  0.00  0.00    -0.200 OA
BRANCH  21  23
ATOM     23  C   LIG    1        1.616   3.184   0.003  0.00  0.00    +0.380 C 
BRANCH  23  24
ATOM     24  O   LIG    1        1.760   3.636   1.351  0.00  0.00    -0.300 OA
BRANCH  24  25
ATOM     25  C   LIG    1        2.130   4.931   1.532  0.00  0.00    +0.140 A 
ATOM     26  C   LIG    1        2.350   5.750   0.435  0.00  0.00    -0.060 A 
ATOM     27  C   LIG    1        2.727   7.067   0.621  0.00  0.00    +0.070 A 
ATOM     28  C   LIG    1        2.884   7.568   1.900  0.00  0.00    +0.000 A 
ATOM     29  C   LIG    1        2.665   6.754   2.996  0.00  0.00    +0.070 A 
ATOM     30  C   LIG    1        2.282   5.438   2.816  0.00  0.00    -0.060 A 
ATOM     31 CL   LIG    1        2.000   4.418   4.192  0.00  0.00    -0.050 Cl
ENDBRANCH  24  25
ENDBRANCH  23  24
ENDBRANCH  21  23
ENDBRANCH  17  18
ENDBRANCH   1  17
TORSDOF 8
