REMARK  Name = ZINCrg000000thx6.0
REMARK                            x       y       z     vdW  Elec       q    Type
REMARK                         _______ _______ _______ _____ _____    ______ ____
ROOT
ATOM      1  O   LIG    1       -1.797  -2.118  -3.138  0.00  0.00    -0.520 OA
ATOM      2  C   LIG    1       -1.340  -2.701  -2.178  0.00  0.00    +0.510 C 
ATOM      3  N   LIG    1       -0.765  -2.004  -1.178  0.00  0.00    -0.720 N 
ATOM      4  H   LIG    1       -0.400  -2.471  -0.409  0.00  0.00    +0.410 HD
ENDROOT
BRANCH   3   5
ATOM      5  C   LIG    1       -0.692  -0.543  -1.250  0.00  0.00    +0.300 C 
BRANCH   5   6
ATOM      6  C   LIG    1        0.002  -0.004   0.002  0.00  0.00    +0.190 C 
ATOM      7  C   LIG    1       -0.019   1.537   0.011  0.00  0.00    +0.280 C 
ATOM      8  N   LIG    1        1.405   1.906  -0.001  0.00  0.00    -0.600 N 
ATOM      9  C   LIG    1        2.143   0.788  -0.014  0.00  0.00    +0.640 C 
ATOM     10  O   LIG    1        3.358   0.796  -0.026  0.00  0.00    -0.510 OA
ATOM     11  O   LIG    1        1.420  -0.338  -0.013  0.00  0.00    -0.320 OA
BRANCH   8  12
ATOM     12  C   LIG    1        1.930   3.274   0.000  0.00  0.00    +0.230 C 
ATOM     13  C   LIG    1        3.433   3.454  -0.219  0.00  0.00    +0.040 C 
ATOM     14  C   LIG    1        2.829   3.684   1.168  0.00  0.00    +0.020 C 
ENDBRANCH   8  12
ENDBRANCH   5   6
ENDBRANCH   3   5
BRANCH   2  15
ATOM     15  C   LIG    1       -1.415  -4.204  -2.103  0.00  0.00    +0.360 C 
BRANCH  15  16
ATOM     16  N   LIG    1       -2.080  -4.720  -3.302  0.00  0.00    -0.330 N 
ATOM     17  N   LIG    1       -3.355  -4.865  -3.296  0.00  0.00    -0.210 NA
ATOM     18  C   LIG    1       -4.014  -5.322  -4.335  0.00  0.00    +0.110 A 
ATOM     19  C   LIG    1       -3.324  -5.675  -5.518  0.00  0.00    +0.100 A 
ATOM     20  C   LIG    1       -1.969  -5.528  -5.542  0.00  0.00    -0.010 A 
ATOM     21  C   LIG    1       -1.337  -5.025  -4.383  0.00  0.00    +0.480 A 
ATOM     22  O   LIG    1       -0.127  -4.872  -4.360  0.00  0.00    -0.530 OA
BRANCH  18  23
ATOM     23  C   LIG    1       -5.489  -5.467  -4.268  0.00  0.00    -0.030 A 
ATOM     24  C   LIG    1       -6.195  -5.946  -5.370  0.00  0.00    +0.030 A 
ATOM     25  C   LIG    1       -7.567  -6.085  -5.301  0.00  0.00    +0.010 A 
ATOM     26  C   LIG    1       -8.242  -5.739  -4.144  0.00  0.00    +0.020 A 
ATOM     27  C   LIG    1       -7.547  -5.258  -3.049  0.00  0.00    +0.010 A 
ATOM     28  C   LIG    1       -6.175  -5.120  -3.106  0.00  0.00    +0.040 A 
ENDBRANCH  18  23
ENDBRANCH  15  16
ENDBRANCH   2  15
TORSDOF 6
