REMARK  Name = ZINCvU0000000C9k.0
REMARK                            x       y       z     vdW  Elec       q    Type
REMARK                         _______ _______ _______ _____ _____    ______ ____
ROOT
ATOM      1  N   LIG    1        0.981   0.248   2.342  0.00  0.00    -0.590 N 
ATOM      2  C   LIG    1        1.763   1.039   1.580  0.00  0.00    +0.590 C 
ATOM      3  O   LIG    1        2.969   1.041   1.744  0.00  0.00    -0.520 OA
ENDROOT
BRANCH   2   4
ATOM      4  C   LIG    1        1.159   1.899   0.552  0.00  0.00    +0.030 A 
ATOM      5  C   LIG    1        0.061   2.681   0.725  0.00  0.00    +0.000 A 
ATOM      6  C   LIG    1       -0.190   3.348  -0.499  0.00  0.00    -0.110 A 
ATOM      7  C   LIG    1       -1.164   4.265  -0.913  0.00  0.00    +0.070 A 
ATOM      8  C   LIG    1       -1.151   4.739  -2.192  0.00  0.00    -0.030 A 
ATOM      9  C   LIG    1       -0.178   4.321  -3.091  0.00  0.00    +0.040 A 
ATOM     10  C   LIG    1        0.791   3.421  -2.708  0.00  0.00    -0.010 A 
ATOM     11  C   LIG    1        0.798   2.923  -1.409  0.00  0.00    +0.110 A 
ATOM     12  N   LIG    1        1.614   2.036  -0.745  0.00  0.00    -0.450 N 
ATOM     13  C   LIG    1        2.773   1.350  -1.320  0.00  0.00    +0.330 C 
ENDBRANCH   2   4
BRANCH   1  14
ATOM     14  C   LIG    1        1.589  -0.669   3.309  0.00  0.00    +0.270 C 
BRANCH  14  15
ATOM     15  C   LIG    1        1.744   0.039   4.656  0.00  0.00    +0.250 C 
BRANCH  15  19
ATOM     16  C   LIG    1        3.515  -2.637   7.476  0.00  0.00    -0.080 A 
ATOM     17  C   LIG    1        2.140  -2.505   7.417  0.00  0.00    +0.000 A 
ATOM     18  C   LIG    1        1.567  -1.639   6.504  0.00  0.00    +0.020 A 
ATOM     19  C   LIG    1        2.369  -0.904   5.651  0.00  0.00    -0.120 A 
ATOM     20  C   LIG    1        3.744  -1.040   5.707  0.00  0.00    +0.010 A 
ATOM     21  C   LIG    1        4.317  -1.902   6.622  0.00  0.00    +0.010 A 
BRANCH  16  23
ATOM     22  C   LIG    1        4.291  -4.964   7.836  0.00  0.00    +0.030 C 
ATOM     23  C   LIG    1        4.140  -3.580   8.471  0.00  0.00    +0.050 C 
ENDBRANCH  16  23
ENDBRANCH  15  19
BRANCH  15  24
ATOM     24  O   LIG    1        2.582   1.186   4.497  0.00  0.00    -0.540 OA
ATOM     25  H   LIG    1        3.471   0.982   4.177  0.00  0.00    +0.380 HD
ENDBRANCH  15  24
ENDBRANCH  14  15
ENDBRANCH   1  14
BRANCH   1  26
ATOM     26  C   LIG    1       -0.476   0.306   2.203  0.00  0.00    +0.320 C 
BRANCH  26  27
ATOM     27  C   LIG    1       -1.093   0.665   3.530  0.00  0.00    -0.110 A 
ATOM     28  C   LIG    1       -1.389  -0.328   4.445  0.00  0.00    +0.010 A 
ATOM     29  C   LIG    1       -1.951   0.002   5.665  0.00  0.00    +0.000 A 
ATOM     30  C   LIG    1       -2.227   1.323   5.964  0.00  0.00    +0.010 A 
ATOM     31  C   LIG    1       -1.936   2.315   5.046  0.00  0.00    +0.010 A 
ATOM     32  C   LIG    1       -1.369   1.986   3.829  0.00  0.00    +0.020 A 
ENDBRANCH  26  27
ENDBRANCH   1  26
TORSDOF 8
