REMARK  Name = ZINCc70000002FL8.0
REMARK                            x       y       z     vdW  Elec       q    Type
REMARK                         _______ _______ _______ _____ _____    ______ ____
ROOT
ATOM      1  N   LIG    1        3.345   2.534  -0.016  0.00  0.00    -0.420 N 
ATOM      2  C   LIG    1        2.605   1.411  -0.015  0.00  0.00    +0.560 C 
ATOM      3  C   LIG    1        1.176   1.788   0.000  0.00  0.00    -0.140 A 
ATOM      4  C   LIG    1       -0.013   1.076   0.008  0.00  0.00    +0.100 A 
ATOM      5  C   LIG    1       -1.221   1.756   0.017  0.00  0.00    +0.060 A 
ATOM      6  C   LIG    1       -1.247   3.137   0.031  0.00  0.00    +0.060 A 
ATOM      7  C   LIG    1       -0.066   3.863   0.023  0.00  0.00    +0.110 A 
ATOM      8  C   LIG    1        1.149   3.197   0.008  0.00  0.00    -0.130 A 
ATOM      9  O   LIG    1        3.039   0.276  -0.024  0.00  0.00    -0.460 OA
ATOM     10  C   LIG    1        2.563   3.628  -0.003  0.00  0.00    +0.580 C 
ATOM     11  O   LIG    1        2.953   4.779  -0.002  0.00  0.00    -0.450 OA
ENDROOT
BRANCH   1  12
ATOM     12  N   LIG    1        4.710   2.560  -0.028  0.00  0.00    -0.590 NA
ATOM     13  H   LIG    1        5.055   3.097  -0.810  0.00  0.00    +0.360 HD
ATOM     14  H   LIG    1        5.090   1.625  -0.036  0.00  0.00    +0.380 HD
ENDBRANCH   1  12
TORSDOF 1
