REMARK  Name = ZINCrg000000qTQO.0
REMARK                            x       y       z     vdW  Elec       q    Type
REMARK                         _______ _______ _______ _____ _____    ______ ____
ROOT
ATOM      1  C   LIG    1        5.811   3.042  -1.339  0.00  0.00    +0.110 A 
ATOM      2  C   LIG    1        5.818   2.076  -0.344  0.00  0.00    -0.060 A 
ATOM      3  C   LIG    1        4.669   1.360  -0.073  0.00  0.00    +0.060 A 
ATOM      4  C   LIG    1        3.505   1.614  -0.788  0.00  0.00    +0.110 A 
ATOM      5  C   LIG    1        3.494   2.584  -1.778  0.00  0.00    -0.070 A 
ATOM      6  C   LIG    1        2.248   2.889  -2.568  0.00  0.00    +0.090 C 
ATOM      7  C   LIG    1        1.271   1.715  -2.501  0.00  0.00    +0.020 C 
ATOM      8  C   LIG    1        1.059   1.329  -1.031  0.00  0.00    +0.280 C 
ATOM      9  N   LIG    1        2.349   0.872  -0.497  0.00  0.00    -0.550 N 
ATOM     10  C   LIG    1        2.422  -0.241   0.260  0.00  0.00    +0.520 C 
ATOM     11  O   LIG    1        3.503  -0.672   0.603  0.00  0.00    -0.510 OA
ATOM     12  C   LIG    1        4.650   3.295  -2.052  0.00  0.00    +0.000 A 
ENDROOT
BRANCH  10  13
ATOM     13  C   LIG    1        1.160  -0.950   0.680  0.00  0.00    +0.000 C 
ATOM     14  C   LIG    1        0.544  -0.286   1.933  0.00  0.00    +0.090 C 
ATOM     15  C   LIG    1        1.118  -1.072   3.091  0.00  0.00    +0.520 C 
ATOM     16  N   LIG    1        1.635  -2.232   2.650  0.00  0.00    -0.610 N 
ATOM     17  O   LIG    1        1.113  -0.710   4.248  0.00  0.00    -0.510 OA
ATOM     18  C   LIG    1        1.471  -2.371   1.198  0.00  0.00    +0.310 C 
BRANCH  16  19
ATOM     19  C   LIG    1        2.280  -3.229   3.509  0.00  0.00    +0.280 C 
ATOM     20  C   LIG    1        1.278  -3.728   4.565  0.00  0.00    +0.060 C 
ATOM     21  C   LIG    1        2.100  -4.508   5.622  0.00  0.00    -0.310 C 
ATOM     22  S   LIG    1        3.575  -3.442   5.847  0.00  0.00    +2.400 S 
ATOM     23  O   LIG    1        4.741  -4.253   5.887  0.00  0.00    -0.930 OA
ATOM     24  O   LIG    1        3.325  -2.507   6.888  0.00  0.00    -0.920 OA
ATOM     25  C   LIG    1        3.481  -2.589   4.234  0.00  0.00    -0.320 C 
ENDBRANCH  16  19
ENDBRANCH  10  13
BRANCH   1  27
ATOM     26  C   LIG    1        8.103   3.431  -0.839  0.00  0.00    +0.250 C 
ATOM     27  O   LIG    1        6.943   3.744  -1.612  0.00  0.00    -0.320 OA
ENDBRANCH   1  27
TORSDOF 3
