REMARK  Name = ZINCpe000000ZhfG.0
REMARK                            x       y       z     vdW  Elec       q    Type
REMARK                         _______ _______ _______ _____ _____    ______ ____
ROOT
ATOM      1  N   LIG    1        0.888  -2.302  -3.576  0.00  0.00    -0.530 N 
ATOM      2  H   LIG    1        1.481  -3.070  -3.561  0.00  0.00    +0.420 HD
ATOM      3  C   LIG    1        0.177  -1.978  -2.478  0.00  0.00    +0.540 C 
ATOM      4  O   LIG    1       -0.563  -1.017  -2.496  0.00  0.00    -0.510 OA
ENDROOT
BRANCH   3   5
ATOM      5  C   LIG    1        0.302  -2.809  -1.227  0.00  0.00    -0.010 C 
ATOM      6  C   LIG    1        0.983  -2.166  -0.017  0.00  0.00    +0.050 C 
ATOM      7  C   LIG    1        1.207  -0.673  -0.013  0.00  0.00    -0.090 A 
ATOM      8  C   LIG    1        2.394   0.045  -0.020  0.00  0.00    +0.050 A 
ATOM      9  C   LIG    1        2.374   1.426  -0.012  0.00  0.00    +0.010 A 
ATOM     10  C   LIG    1        1.167   2.097   0.002  0.00  0.00    +0.060 A 
ATOM     11  C   LIG    1       -0.017   1.384   0.010  0.00  0.00    -0.080 A 
ATOM     12 BR   LIG    1       -1.669   2.303   0.022  0.00  0.00    -0.050 Br
ATOM     13  C   LIG    1        0.002  -0.004   0.002  0.00  0.00    -0.030 A 
ATOM     14  C   LIG    1       -1.146  -0.985   0.006  0.00  0.00    +0.140 C 
ATOM     15  C   LIG    1       -0.535  -2.392  -0.015  0.00  0.00    +0.030 C 
ENDBRANCH   3   5
BRANCH   1  20
ATOM     16  O   LIG    1        1.382  -1.183  -6.846  0.00  0.00    -0.560 OA
ATOM     17  C   LIG    1        1.483  -1.853  -5.837  0.00  0.00    +0.720 C 
ATOM     18  N   LIG    1        2.306  -2.920  -5.816  0.00  0.00    -0.730 N 
ATOM     19  H   LIG    1        2.386  -3.455  -5.011  0.00  0.00    +0.400 HD
ATOM     20  N   LIG    1        0.772  -1.529  -4.739  0.00  0.00    -0.530 N 
ATOM     21  H   LIG    1        0.180  -0.761  -4.753  0.00  0.00    +0.450 HD
BRANCH  18  22
ATOM     22  C   LIG    1        3.079  -3.272  -7.010  0.00  0.00    +0.290 C 
ATOM     23  C   LIG    1        4.339  -4.059  -6.609  0.00  0.00    +0.070 C 
ATOM     24  C   LIG    1        4.943  -4.703  -7.873  0.00  0.00    -0.300 C 
ATOM     25  S   LIG    1        3.526  -4.956  -9.002  0.00  0.00    +2.400 S 
ATOM     26  O   LIG    1        3.274  -6.348  -9.136  0.00  0.00    -0.930 OA
ATOM     27  O   LIG    1        3.698  -4.151 -10.160  0.00  0.00    -0.930 OA
ATOM     28  C   LIG    1        2.246  -4.207  -7.925  0.00  0.00    -0.320 C 
ENDBRANCH  18  22
ENDBRANCH   1  20
TORSDOF 3
