REMARK  Name = ZINCpe000000Yk3W.0
REMARK                            x       y       z     vdW  Elec       q    Type
REMARK                         _______ _______ _______ _____ _____    ______ ____
ROOT
ATOM      1  C   LIG    1        3.018   3.408  -0.009  0.00  0.00    +0.520 C 
ATOM      2  N   LIG    1        1.701   3.122   0.002  0.00  0.00    -0.640 N 
ATOM      3  H   LIG    1        1.049   3.840   0.011  0.00  0.00    +0.410 HD
ATOM      4  O   LIG    1        3.834   2.510  -0.021  0.00  0.00    -0.520 OA
ENDROOT
BRANCH   1  11
ATOM      5  C   LIG    1        4.115  10.300   2.431  0.00  0.00    +0.350 C 
ATOM      6  N   LIG    1        4.156   8.967   1.824  0.00  0.00    -0.380 N 
ATOM      7  C   LIG    1        5.075   8.525   0.937  0.00  0.00    +0.230 A 
ATOM      8  C   LIG    1        4.763   7.254   0.626  0.00  0.00    -0.240 A 
ATOM      9  C   LIG    1        5.479   6.318  -0.317  0.00  0.00    +0.110 C 
ATOM     10  C   LIG    1        5.007   4.888  -0.023  0.00  0.00    +0.050 C 
ATOM     11  C   LIG    1        3.477   4.843  -0.006  0.00  0.00    +0.010 C 
ATOM     12  C   LIG    1        2.953   5.544   1.253  0.00  0.00    +0.150 C 
ATOM     13  C   LIG    1        3.610   6.900   1.346  0.00  0.00    +0.080 A 
ATOM     14  N   LIG    1        3.248   7.924   2.063  0.00  0.00    -0.290 NA
ENDBRANCH   1  11
BRANCH   2  15
ATOM     15  C   LIG    1        1.272   1.781  -0.001  0.00  0.00    +0.010 A 
ATOM     16  C   LIG    1       -0.016   1.354   0.009  0.00  0.00    +0.190 A 
ATOM     17  N   LIG    1        0.002  -0.004   0.002  0.00  0.00    -0.370 N 
ATOM     18  N   LIG    1        1.341  -0.416  -0.013  0.00  0.00    -0.280 NA
ATOM     19  C   LIG    1        2.100   0.649  -0.015  0.00  0.00    +0.270 A 
BRANCH  17  20
ATOM     20  C   LIG    1       -1.171  -0.882   0.009  0.00  0.00    +0.280 C 
ATOM     21  C   LIG    1       -1.656  -1.081   1.449  0.00  0.00    +0.030 C 
ATOM     22  C   LIG    1       -2.761  -2.141   1.446  0.00  0.00    +0.090 C 
ATOM     23  C   LIG    1       -3.773  -1.820   0.383  0.00  0.00    +0.520 C 
ATOM     24  N   LIG    1       -3.539  -0.983  -0.628  0.00  0.00    -0.720 N 
ATOM     25  H   LIG    1       -4.239  -0.859  -1.288  0.00  0.00    +0.410 HD
ATOM     26  O   LIG    1       -4.861  -2.351   0.449  0.00  0.00    -0.550 OA
ATOM     27  C   LIG    1       -2.296  -0.241  -0.804  0.00  0.00    +0.270 C 
ENDBRANCH  17  20
ENDBRANCH   2  15
TORSDOF 3
