REMARK  Name = ZINCpe000000Tdlq.0
REMARK                            x       y       z     vdW  Elec       q    Type
REMARK                         _______ _______ _______ _____ _____    ______ ____
ROOT
ATOM      1  N   LIG    1       -3.517   4.271   1.970  0.00  0.00    -0.510 NA
ATOM      2  C   LIG    1       -2.979   5.530   1.413  0.00  0.00    +0.200 C 
ATOM      3  C   LIG    1       -3.985   6.621   1.858  0.00  0.00    +0.040 C 
ATOM      4  C   LIG    1       -4.368   6.132   3.280  0.00  0.00    +0.040 C 
ATOM      5  C   LIG    1       -4.366   4.596   3.131  0.00  0.00    +0.210 C 
ENDROOT
BRANCH   4   6
ATOM      6  C   LIG    1       -5.739   6.628   3.662  0.00  0.00    +0.220 A 
ATOM      7  C   LIG    1       -5.918   7.306   4.816  0.00  0.00    -0.120 A 
ATOM      8  C   LIG    1       -7.215   7.762   5.154  0.00  0.00    +0.550 A 
ATOM      9  N   LIG    1       -8.242   7.511   4.318  0.00  0.00    -0.660 N 
ATOM     10  H   LIG    1       -9.134   7.820   4.542  0.00  0.00    +0.430 HD
ATOM     11  C   LIG    1       -8.036   6.833   3.173  0.00  0.00    +0.700 A 
ATOM     12  O   LIG    1       -8.973   6.613   2.429  0.00  0.00    -0.540 OA
ATOM     13  O   LIG    1       -7.400   8.376   6.189  0.00  0.00    -0.510 OA
ATOM     14  N   LIG    1       -6.807   6.399   2.838  0.00  0.00    -0.630 N 
ATOM     15  H   LIG    1       -6.678   5.916   2.007  0.00  0.00    +0.440 HD
ENDBRANCH   4   6
BRANCH   1  16
ATOM     16  C   LIG    1       -2.432   3.357   2.351  0.00  0.00    +0.200 C 
BRANCH  16  18
ATOM     17  N   LIG    1       -0.704   1.998   1.216  0.00  0.00    -0.610 N 
ATOM     18  C   LIG    1       -1.739   2.855   1.110  0.00  0.00    +0.520 C 
ATOM     19  O   LIG    1       -2.114   3.222   0.016  0.00  0.00    -0.510 OA
ATOM     20  C   LIG    1       -0.252   1.555   2.537  0.00  0.00    +0.280 C 
BRANCH  17  25
ATOM     21  C   LIG    1        3.678   3.282   1.361  0.00  0.00    +0.000 C 
ATOM     22  C   LIG    1        2.676   2.522   0.491  0.00  0.00    -0.020 C 
ATOM     23  C   LIG    1        2.114   1.335   1.277  0.00  0.00    +0.010 C 
ATOM     24  C   LIG    1        1.112   0.575   0.407  0.00  0.00    +0.020 C 
ATOM     25  C   LIG    1       -0.032   1.510   0.009  0.00  0.00    +0.220 C 
ATOM     26  C   LIG    1        0.530   2.696  -0.777  0.00  0.00    +0.020 C 
ATOM     27  C   LIG    1        1.532   3.457   0.094  0.00  0.00    +0.010 C 
ENDBRANCH  17  25
ENDBRANCH  16  18
ENDBRANCH   1  16
TORSDOF 4
