REMARK  Name = ZINCrH000009kPR1.0
REMARK                            x       y       z     vdW  Elec       q    Type
REMARK                         _______ _______ _______ _____ _____    ______ ____
ROOT
ATOM      1  C   LIG    1       -0.521   2.110  -2.025  0.00  0.00    +0.530 C 
ATOM      2  N   LIG    1       -1.464   1.393  -1.382  0.00  0.00    -0.610 N 
ATOM      3  C   LIG    1       -1.168   0.754  -0.092  0.00  0.00    +0.280 C 
ATOM      4  C   LIG    1       -2.220   1.192   0.932  0.00  0.00    +0.010 C 
ATOM      5  C   LIG    1       -3.617   0.886   0.380  0.00  0.00    +0.240 C 
ATOM      6  C   LIG    1       -3.842   1.671  -0.914  0.00  0.00    +0.020 C 
ATOM      7  C   LIG    1       -2.807   1.237  -1.956  0.00  0.00    +0.290 C 
ATOM      8  O   LIG    1        0.552   2.313  -1.497  0.00  0.00    -0.530 OA
ENDROOT
BRANCH   5   9
ATOM      9  N   LIG    1       -4.627   1.274   1.369  0.00  0.00    -0.720 N 
ATOM     10  H   LIG    1       -5.050   2.145   1.312  0.00  0.00    +0.400 HD
ATOM     11  C   LIG    1       -4.967   0.421   2.355  0.00  0.00    +0.610 C 
ATOM     12  O   LIG    1       -4.436  -0.670   2.425  0.00  0.00    -0.520 OA
BRANCH  11  13
ATOM     13  C   LIG    1       -5.982   0.812   3.350  0.00  0.00    -0.250 A 
ATOM     14  C   LIG    1       -7.343   0.629   3.301  0.00  0.00    +0.060 A 
ATOM     15  O   LIG    1       -7.832   1.148   4.430  0.00  0.00    +0.100 OA
ATOM     16  N   LIG    1       -6.980   1.619   5.144  0.00  0.00    -0.350 NA
ATOM     17  C   LIG    1       -5.790   1.500   4.636  0.00  0.00    +0.060 A 
ATOM     18  C   LIG    1       -4.489   1.967   5.237  0.00  0.00    +0.180 C 
BRANCH  14  19
ATOM     19  C   LIG    1       -8.127  -0.028   2.195  0.00  0.00    +0.040 C 
ATOM     20  C   LIG    1       -9.653   0.060   2.263  0.00  0.00    +0.060 C 
ATOM     21  C   LIG    1       -8.949  -1.268   2.552  0.00  0.00    +0.060 C 
ENDBRANCH  14  19
ENDBRANCH  11  13
ENDBRANCH   5   9
BRANCH   1  22
ATOM     22  C   LIG    1       -0.799   2.659  -3.400  0.00  0.00    -0.080 C 
BRANCH  22  24
ATOM     23  C   LIG    1        0.198   3.826  -5.371  0.00  0.00    +0.020 C 
ATOM     24  C   LIG    1        0.481   3.269  -3.975  0.00  0.00    +0.040 C 
ENDBRANCH  22  24
BRANCH  22  25
ATOM     25  C   LIG    1       -1.882   3.736  -3.310  0.00  0.00    +0.030 C 
ATOM     26  C   LIG    1       -1.337   4.943  -2.542  0.00  0.00    +0.010 C 
ENDBRANCH  22  25
BRANCH  22  27
ATOM     27  C   LIG    1       -1.280   1.529  -4.313  0.00  0.00    +0.030 C 
ATOM     28  C   LIG    1       -0.150   0.515  -4.508  0.00  0.00    +0.010 C 
ENDBRANCH  22  27
ENDBRANCH   1  22
TORSDOF 7
