REMARK  Name = ZINCrD000003XJsN.0
REMARK                            x       y       z     vdW  Elec       q    Type
REMARK                         _______ _______ _______ _____ _____    ______ ____
ROOT
ATOM      1  C   LIG    1       -1.097   1.270  -0.908  0.00  0.00    +0.250 C 
ATOM      2  C   LIG    1       -0.919   1.681   0.557  0.00  0.00    +0.310 C 
ATOM      3  N   LIG    1       -0.893   3.148   0.636  0.00  0.00    -0.610 N 
ATOM      4  C   LIG    1        0.060   3.884  -0.205  0.00  0.00    +0.280 C 
ATOM      5  C   LIG    1       -0.128   3.448  -1.662  0.00  0.00    +0.040 C 
ATOM      6  C   LIG    1       -1.727   3.806   1.465  0.00  0.00    +0.590 C 
ATOM      7  O   LIG    1       -2.585   3.196   2.075  0.00  0.00    -0.520 OA
ATOM      8  C   LIG    1       -0.003   1.925  -1.754  0.00  0.00    +0.000 C 
ENDROOT
BRANCH   6   9
ATOM      9  C   LIG    1       -1.601   5.265   1.633  0.00  0.00    -0.230 A 
ATOM     10  C   LIG    1       -0.456   6.005   1.576  0.00  0.00    +0.220 A 
ATOM     11  O   LIG    1       -0.773   7.287   1.779  0.00  0.00    -0.170 OA
ATOM     12  C   LIG    1       -2.094   7.430   1.970  0.00  0.00    +0.180 A 
ATOM     13  C   LIG    1       -2.682   6.227   1.890  0.00  0.00    -0.010 A 
ENDBRANCH   6   9
BRANCH   1  15
ATOM     14  C   LIG    1       -3.496   0.935  -1.172  0.00  0.00    +0.610 C 
ATOM     15  N   LIG    1       -2.411   1.707  -1.383  0.00  0.00    -0.720 N 
ATOM     16  H   LIG    1       -2.501   2.553  -1.851  0.00  0.00    +0.400 HD
ATOM     17  O   LIG    1       -3.383  -0.124  -0.586  0.00  0.00    -0.520 OA
BRANCH  14  24
ATOM     18  C   LIG    1       -5.669   2.736   0.477  0.00  0.00    +0.130 C 
ATOM     19  C   LIG    1       -5.804   2.185  -0.919  0.00  0.00    -0.140 A 
ATOM     20  C   LIG    1       -6.848   2.333  -1.748  0.00  0.00    +0.170 A 
ATOM     21  O   LIG    1       -6.588   1.696  -2.900  0.00  0.00    -0.170 OA
ATOM     22  C   LIG    1       -5.381   1.123  -2.867  0.00  0.00    +0.050 A 
ATOM     23  C   LIG    1       -4.751   0.329  -3.982  0.00  0.00    +0.190 C 
ATOM     24  C   LIG    1       -4.818   1.376  -1.650  0.00  0.00    -0.240 A 
ENDBRANCH  14  24
ENDBRANCH   1  15
BRANCH   8  25
ATOM     25  C   LIG    1       -0.157   1.489  -3.212  0.00  0.00    +0.460 C 
ATOM     26  F   LIG    1       -0.041   0.097  -3.297  0.00  0.00    -0.180 F 
ATOM     27  F   LIG    1        0.843   2.088  -3.986  0.00  0.00    -0.180 F 
ATOM     28  F   LIG    1       -1.412   1.882  -3.687  0.00  0.00    -0.180 F 
ENDBRANCH   8  25
TORSDOF 4
