REMARK  Name = ZINCpe00000MGZnk.0
REMARK                            x       y       z     vdW  Elec       q    Type
REMARK                         _______ _______ _______ _____ _____    ______ ____
ROOT
ATOM      1  C   LIG    1       -9.522   2.481  -0.296  0.00  0.00    +0.580 C 
ATOM      2  N   LIG    1       -8.217   2.777  -0.136  0.00  0.00    -0.600 N 
ATOM      3  C   LIG    1       -7.710   4.132  -0.403  0.00  0.00    +0.240 C 
ATOM      4  C   LIG    1       -6.886   4.588   0.807  0.00  0.00    +0.220 C 
ATOM      5  O   LIG    1       -5.907   3.592   1.113  0.00  0.00    -0.350 OA
ATOM      6  C   LIG    1       -6.456   2.327   1.487  0.00  0.00    +0.150 C 
ATOM      7  C   LIG    1       -7.258   1.755   0.312  0.00  0.00    +0.260 C 
ATOM      8  O   LIG    1       -9.909   1.338  -0.148  0.00  0.00    -0.510 OA
ENDROOT
BRANCH   1  12
ATOM      9  C   LIG    1      -11.812   6.398  -2.630  0.00  0.00    +0.210 C 
ATOM     10  C   LIG    1      -11.474   5.268  -1.691  0.00  0.00    +0.040 A 
ATOM     11  C   LIG    1      -10.375   4.502  -1.760  0.00  0.00    -0.030 A 
ATOM     12  C   LIG    1      -10.481   3.543  -0.650  0.00  0.00    -0.140 A 
ATOM     13  C   LIG    1      -11.649   3.846  -0.013  0.00  0.00    -0.060 A 
ATOM     14  O   LIG    1      -12.221   4.873  -0.648  0.00  0.00    -0.140 OA
BRANCH  13  15
ATOM     15  C   LIG    1      -12.199   3.142   1.200  0.00  0.00    +0.550 C 
ATOM     16  F   LIG    1      -11.788   1.804   1.190  0.00  0.00    -0.140 F 
ATOM     17  F   LIG    1      -13.597   3.199   1.178  0.00  0.00    -0.160 F 
ATOM     18  F   LIG    1      -11.725   3.767   2.357  0.00  0.00    -0.160 F 
ENDBRANCH  13  15
ENDBRANCH   1  12
BRANCH   6  19
ATOM     19  C   LIG    1       -5.323   1.364   1.849  0.00  0.00    +0.210 C 
BRANCH  19  20
ATOM     20  N   LIG    1       -4.629   1.854   3.047  0.00  0.00    -0.510 NA
ATOM     21  C   LIG    1       -5.511   1.811   4.221  0.00  0.00    +0.190 C 
BRANCH  20  22
ATOM     22  C   LIG    1       -3.395   1.093   3.288  0.00  0.00    +0.210 C 
BRANCH  22  23
ATOM     23  C   LIG    1       -2.590   1.771   4.367  0.00  0.00    +0.520 C 
ATOM     24  O   LIG    1       -3.003   2.788   4.884  0.00  0.00    -0.520 OA
ATOM     25  N   LIG    1       -1.411   1.248   4.757  0.00  0.00    -0.860 N 
ATOM     26  H   LIG    1       -0.890   1.687   5.448  0.00  0.00    +0.400 HD
ATOM     27  H   LIG    1       -1.080   0.435   4.343  0.00  0.00    +0.400 HD
ENDBRANCH  22  23
ENDBRANCH  20  22
ENDBRANCH  19  20
ENDBRANCH   6  19
TORSDOF 6
