REMARK  Name = ZINCrH00000tj1nD.0
REMARK                            x       y       z     vdW  Elec       q    Type
REMARK                         _______ _______ _______ _____ _____    ______ ____
ROOT
ATOM      1  C   LIG    1       -6.045   3.208  -2.081  0.00  0.00    +0.270 A 
ATOM      2  C   LIG    1       -5.434   3.772  -0.967  0.00  0.00    -0.090 A 
ATOM      3  C   LIG    1       -4.436   3.072  -0.302  0.00  0.00    +0.180 A 
ATOM      4  C   LIG    1       -4.078   1.839  -0.762  0.00  0.00    -0.810 A 
ATOM      5  C   LIG    1       -4.672   1.249  -1.876  0.00  0.00    +0.250 A 
ATOM      6  N   LIG    1       -4.284  -0.021  -2.329  0.00  0.00    -0.570 N 
ATOM      7  C   LIG    1       -4.884  -0.695  -3.509  0.00  0.00    +0.360 C 
ATOM      8  C   LIG    1       -4.197  -2.023  -3.653  0.00  0.00    -0.090 A 
ATOM      9  C   LIG    1       -4.332  -3.062  -4.549  0.00  0.00    +0.040 A 
ATOM     10  C   LIG    1       -3.536  -4.188  -4.422  0.00  0.00    +0.060 A 
ATOM     11  C   LIG    1       -2.608  -4.275  -3.400  0.00  0.00    +0.020 A 
ATOM     12  C   LIG    1       -2.467  -3.239  -2.498  0.00  0.00    +0.100 A 
ATOM     13  C   LIG    1       -3.267  -2.103  -2.624  0.00  0.00    -0.090 A 
ATOM     14  C   LIG    1       -3.334  -0.852  -1.811  0.00  0.00    +0.510 C 
ATOM     15  N   LIG    1       -2.568  -0.629  -0.758  0.00  0.00    -0.970 NA
ATOM     16  P   LIG    1       -2.782   0.819   0.023  0.00  0.00    +2.570 P 
ATOM     17  O   LIG    1       -3.166   0.555   1.428  0.00  0.00    -1.010 OA
ATOM     18  C   LIG    1       -5.669   1.953  -2.540  0.00  0.00    -0.110 A 
ENDROOT
BRANCH  16  19
ATOM     19  C   LIG    1       -1.217   1.737   0.003  0.00  0.00    -0.710 A 
ATOM     20  C   LIG    1       -0.016   1.054  -0.007  0.00  0.00    +0.080 A 
ATOM     21  C   LIG    1        1.177   1.753  -0.028  0.00  0.00    -0.010 A 
ATOM     22  C   LIG    1        1.167   3.135  -0.034  0.00  0.00    +0.040 A 
ATOM     23  C   LIG    1       -0.035   3.818  -0.018  0.00  0.00    -0.010 A 
ATOM     24  C   LIG    1       -1.227   3.119   0.003  0.00  0.00    +0.050 A 
ENDBRANCH  16  19
BRANCH   1  26
ATOM     25  C   LIG    1       -7.538   5.182  -2.202  0.00  0.00    +0.280 C 
ATOM     26  N   LIG    1       -7.048   3.914  -2.748  0.00  0.00    -0.630 N 
ATOM     27  C   LIG    1       -7.609   3.387  -3.995  0.00  0.00    +0.280 C 
ENDBRANCH   1  26
TORSDOF 2
