REMARK  Name = ZINCvU0000000FlE.0
REMARK                            x       y       z     vdW  Elec       q    Type
REMARK                         _______ _______ _______ _____ _____    ______ ____
ROOT
ATOM      1  C   LIG    1       -1.999  -6.075  -0.011  0.00  0.00    +0.220 A 
ATOM      2  N   LIG    1       -2.081  -6.851   1.042  0.00  0.00    -0.250 NA
ATOM      3  N   LIG    1       -2.230  -8.071   0.663  0.00  0.00    -0.280 NA
ATOM      4  C   LIG    1       -2.250  -8.123  -0.649  0.00  0.00    +0.130 A 
ATOM      5  O   LIG    1       -2.109  -6.863  -1.104  0.00  0.00    -0.190 OA
ENDROOT
BRANCH   1   8
ATOM      6  C   LIG    1       -1.597  -2.532  -1.202  0.00  0.00    +0.150 A 
ATOM      7  C   LIG    1       -1.754  -3.907  -1.211  0.00  0.00    -0.060 A 
ATOM      8  C   LIG    1       -1.825  -4.608  -0.005  0.00  0.00    +0.050 A 
ATOM      9  C   LIG    1       -1.731  -3.920   1.206  0.00  0.00    -0.030 A 
ATOM     10  C   LIG    1       -1.569  -2.546   1.209  0.00  0.00    +0.150 A 
ATOM     11  C   LIG    1       -1.498  -1.850   0.006  0.00  0.00    +0.060 A 
BRANCH   6  12
ATOM     12  O   LIG    1       -1.534  -1.848  -2.376  0.00  0.00    -0.290 OA
BRANCH  12  14
ATOM     13  C   LIG    1       -1.550  -1.677  -4.786  0.00  0.00    +0.070 C 
ATOM     14  C   LIG    1       -1.642  -2.612  -3.578  0.00  0.00    +0.190 C 
ENDBRANCH  12  14
ENDBRANCH   6  12
BRANCH  10  15
ATOM     15  O   LIG    1       -1.478  -1.875   2.389  0.00  0.00    -0.290 OA
BRANCH  15  16
ATOM     16  C   LIG    1       -1.558  -2.652   3.585  0.00  0.00    +0.190 C 
ATOM     17  C   LIG    1       -1.437  -1.731   4.801  0.00  0.00    +0.070 C 
ENDBRANCH  15  16
ENDBRANCH  10  15
BRANCH  11  18
ATOM     18  O   LIG    1       -1.339  -0.499   0.012  0.00  0.00    -0.310 OA
BRANCH  18  19
ATOM     19  C   LIG    1        0.002  -0.004   0.002  0.00  0.00    +0.160 C 
ATOM     20  C   LIG    1       -0.019   1.526   0.010  0.00  0.00    +0.060 C 
ENDBRANCH  18  19
ENDBRANCH  11  18
ENDBRANCH   1   8
BRANCH   4  21
ATOM     21  S   LIG    1       -2.432  -9.573  -1.633  0.00  0.00    +0.120 S 
BRANCH  21  22
ATOM     22  C   LIG    1       -2.567 -10.822  -0.330  0.00  0.00    +0.150 C 
ATOM     23  C   LIG    1       -3.847 -10.584   0.474  0.00  0.00    +0.110 C 
BRANCH  22  24
ATOM     24  C   LIG    1       -2.612 -12.194  -0.952  0.00  0.00    +0.180 A 
ATOM     25  N   LIG    1       -1.944 -13.251  -0.560  0.00  0.00    -0.450 NA
ATOM     26  C   LIG    1       -2.297 -14.237  -1.404  0.00  0.00    +0.180 A 
ATOM     27  N   LIG    1       -3.146 -13.737  -2.252  0.00  0.00    -0.370 NA
ATOM     28  O   LIG    1       -3.345 -12.566  -2.006  0.00  0.00    +0.090 OA
BRANCH  26  29
ATOM     29  C   LIG    1       -1.799 -15.659  -1.374  0.00  0.00    +0.100 C 
ATOM     30  C   LIG    1       -1.099 -15.983  -2.695  0.00  0.00    +0.040 C 
ATOM     31  C   LIG    1       -2.982 -16.609  -1.177  0.00  0.00    +0.040 C 
ENDBRANCH  26  29
ENDBRANCH  22  24
ENDBRANCH  21  22
ENDBRANCH   4  21
TORSDOF 11
