REMARK  Name = ZINCqH0000036cYW.0
REMARK                            x       y       z     vdW  Elec       q    Type
REMARK                         _______ _______ _______ _____ _____    ______ ____
ROOT
ATOM      1  N   LIG    1        1.229  -2.774  -0.182  0.00  0.00    -0.630 N 
ATOM      2  H   LIG    1        1.490  -2.406   0.677  0.00  0.00    +0.430 HD
ATOM      3  C   LIG    1        1.038  -1.955  -1.236  0.00  0.00    +0.510 C 
ATOM      4  O   LIG    1        0.785  -2.420  -2.327  0.00  0.00    -0.460 OA
ENDROOT
BRANCH   1  10
ATOM      5  C   LIG    1        0.403  -8.829  -1.000  0.00  0.00    +0.140 A 
ATOM      6  C   LIG    1        0.132  -8.286  -2.252  0.00  0.00    -0.040 A 
ATOM      7  C   LIG    1        0.215  -6.933  -2.457  0.00  0.00    +0.120 A 
ATOM      8  C   LIG    1        0.577  -6.069  -1.402  0.00  0.00    +0.070 A 
ATOM      9  N   LIG    1        0.704  -4.726  -1.418  0.00  0.00    -0.460 NA
ATOM     10  C   LIG    1        1.053  -4.141  -0.326  0.00  0.00    +0.320 A 
ATOM     11  S   LIG    1        1.268  -5.321   0.960  0.00  0.00    +0.080 S 
ATOM     12  C   LIG    1        0.847  -6.625  -0.148  0.00  0.00    -0.140 A 
ATOM     13  C   LIG    1        0.758  -8.001   0.048  0.00  0.00    +0.030 A 
BRANCH   5  15
ATOM     14  C   LIG    1       -0.055 -10.967  -1.934  0.00  0.00    +0.240 C 
ATOM     15  O   LIG    1        0.318 -10.173  -0.807  0.00  0.00    -0.310 OA
ENDBRANCH   5  15
ENDBRANCH   1  10
BRANCH   3  16
ATOM     16  C   LIG    1        1.138  -0.462  -1.058  0.00  0.00    +0.260 C 
BRANCH  16  17
ATOM     17  N   LIG    1        1.329   0.173  -2.364  0.00  0.00    -0.710 N 
ATOM     18  H   LIG    1        1.021  -0.271  -3.169  0.00  0.00    +0.410 HD
ATOM     19  C   LIG    1        1.931   1.376  -2.446  0.00  0.00    +0.600 C 
ATOM     20  O   LIG    1        2.317   1.934  -1.436  0.00  0.00    -0.520 OA
BRANCH  19  21
ATOM     21  C   LIG    1        2.122   2.012  -3.753  0.00  0.00    -0.280 A 
ATOM     22  C   LIG    1        2.716   3.224  -3.966  0.00  0.00    +0.110 A 
ATOM     23  C   LIG    1        2.763   3.582  -5.292  0.00  0.00    +0.000 A 
ATOM     24  C   LIG    1        2.226   2.695  -6.138  0.00  0.00    -0.050 A 
ATOM     25  S   LIG    1        1.629   1.335  -5.299  0.00  0.00    +0.210 S 
ENDBRANCH  19  21
ENDBRANCH  16  17
BRANCH  16  26
ATOM     26  C   LIG    1       -0.149   0.063  -0.418  0.00  0.00    -0.010 C 
ATOM     27  C   LIG    1       -0.011   1.563  -0.152  0.00  0.00    +0.050 C 
ATOM     28  C   LIG    1       -1.325  -0.181  -1.365  0.00  0.00    +0.030 C 
ENDBRANCH  16  26
ENDBRANCH   3  16
TORSDOF 6
