REMARK  Name = ZINCrD000000AgKJ.0
REMARK                            x       y       z     vdW  Elec       q    Type
REMARK                         _______ _______ _______ _____ _____    ______ ____
ROOT
ATOM      1  O   LIG    1       -1.807  -0.704   0.008  0.00  0.00    -0.490 OA
ATOM      2  C   LIG    1       -2.715   0.100   0.016  0.00  0.00    +0.530 C 
ATOM      3  N   LIG    1       -2.446   1.421   0.021  0.00  0.00    -0.650 N 
ATOM      4  H   LIG    1       -3.172   2.063   0.027  0.00  0.00    +0.410 HD
ENDROOT
BRANCH   3   5
ATOM      5  C   LIG    1       -1.123   1.863   0.017  0.00  0.00    +0.300 A 
ATOM      6  C   LIG    1       -0.013   1.076   0.008  0.00  0.00    -0.110 A 
ATOM      7  C   LIG    1        1.105   1.914   0.002  0.00  0.00    +0.250 A 
ATOM      8  N   LIG    1        0.690   3.155   0.012  0.00  0.00    -0.280 NA
ATOM      9  N   LIG    1       -0.711   3.151   0.024  0.00  0.00    -0.380 N 
BRANCH   9  10
ATOM     10  C   LIG    1       -1.577   4.333   0.038  0.00  0.00    +0.370 C 
BRANCH  10  11
ATOM     11  C   LIG    1       -1.886   4.745  -1.379  0.00  0.00    -0.120 A 
ATOM     12  C   LIG    1       -1.065   5.645  -2.031  0.00  0.00    +0.040 A 
ATOM     13  C   LIG    1       -1.346   6.020  -3.332  0.00  0.00    +0.010 A 
ATOM     14  C   LIG    1       -2.454   5.501  -3.976  0.00  0.00    +0.020 A 
ATOM     15  C   LIG    1       -3.277   4.605  -3.322  0.00  0.00    +0.010 A 
ATOM     16  C   LIG    1       -2.994   4.226  -2.023  0.00  0.00    +0.010 A 
ENDBRANCH  10  11
ENDBRANCH   9  10
ENDBRANCH   3   5
BRANCH   2  17
ATOM     17  C   LIG    1       -4.145  -0.378   0.020  0.00  0.00    +0.110 C 
BRANCH  17  18
ATOM     18  C   LIG    1       -4.171  -1.907   0.013  0.00  0.00    -0.300 C 
BRANCH  18  19
ATOM     19  S   LIG    1       -5.892  -2.482   0.018  0.00  0.00    +2.500 S 
ATOM     20  O   LIG    1       -6.526  -2.170  -1.215  0.00  0.00    -0.930 OA
ATOM     21  O   LIG    1       -6.515  -2.181   1.259  0.00  0.00    -0.930 OA
BRANCH  19  22
ATOM     22  C   LIG    1       -5.768  -4.240   0.009  0.00  0.00    -0.660 A 
ATOM     23  C   LIG    1       -5.731  -4.924  -1.192  0.00  0.00    +0.140 A 
ATOM     24  C   LIG    1       -5.629  -6.303  -1.199  0.00  0.00    +0.020 A 
ATOM     25  C   LIG    1       -5.575  -6.998  -0.004  0.00  0.00    +0.020 A 
ATOM     26  C   LIG    1       -5.618  -6.313   1.197  0.00  0.00    +0.020 A 
ATOM     27 CL   LIG    1       -5.455  -8.730  -0.013  0.00  0.00    -0.050 Cl
ATOM     28  C   LIG    1       -5.714  -4.935   1.203  0.00  0.00    +0.140 A 
ENDBRANCH  19  22
ENDBRANCH  18  19
ENDBRANCH  17  18
ENDBRANCH   2  17
TORSDOF 7
