REMARK  Name = ZINCpk00001AZjcn.0
REMARK                            x       y       z     vdW  Elec       q    Type
REMARK                         _______ _______ _______ _____ _____    ______ ____
ROOT
ATOM      1  C   LIG    1        4.092   5.966   3.391  0.00  0.00    +0.090 C 
ATOM      2  C   LIG    1        3.308   6.078   2.110  0.00  0.00    +0.530 C 
ATOM      3  N   LIG    1        2.768   4.977   1.551  0.00  0.00    -0.640 N 
ATOM      4  C   LIG    1        2.657   3.561   1.956  0.00  0.00    +0.290 C 
ATOM      5  C   LIG    1        1.445   3.504   1.022  0.00  0.00    -0.090 C 
ATOM      6  C   LIG    1        0.089   3.763   1.692  0.00  0.00    +0.030 C 
ATOM      7  C   LIG    1       -0.584   2.366   1.727  0.00  0.00    +0.190 C 
ATOM      8  C   LIG    1       -0.142   1.736   0.382  0.00  0.00    +0.160 C 
ATOM      9  C   LIG    1        1.312   2.223   0.194  0.00  0.00    +0.070 C 
ATOM     10  C   LIG    1        2.051   4.703   0.288  0.00  0.00    +0.240 C 
ATOM     11  O   LIG    1        3.162   7.160   1.581  0.00  0.00    -0.530 OA
ENDROOT
BRANCH   8  12
ATOM     12  N   LIG    1       -0.187   0.270   0.461  0.00  0.00    -0.530 NA
ATOM     13  C   LIG    1        0.325  -0.340  -0.774  0.00  0.00    +0.190 C 
ATOM     14  C   LIG    1        0.615  -1.827  -0.533  0.00  0.00    +0.290 C 
ATOM     15  N   LIG    1       -0.562  -2.427   0.101  0.00  0.00    -0.450 N 
ATOM     16  C   LIG    1       -0.886  -3.743   0.220  0.00  0.00    +0.120 A 
ATOM     17  C   LIG    1       -2.065  -3.793   0.875  0.00  0.00    -0.000 A 
ATOM     18  N   LIG    1       -2.446  -2.533   1.146  0.00  0.00    -0.480 NA
ATOM     19  C   LIG    1       -2.822  -5.044   1.239  0.00  0.00    +0.140 C 
ATOM     20  C   LIG    1       -1.552  -1.709   0.688  0.00  0.00    +0.210 A 
ATOM     21  C   LIG    1       -1.550  -0.201   0.762  0.00  0.00    +0.330 C 
ENDBRANCH   8  12
BRANCH  10  22
ATOM     22  C   LIG    1        1.029   5.778  -0.087  0.00  0.00    -0.010 C 
ATOM     23  C   LIG    1       -0.031   5.173  -1.010  0.00  0.00    +0.030 C 
ATOM     24  C   LIG    1        1.738   6.926  -0.808  0.00  0.00    +0.020 C 
ENDBRANCH  10  22
BRANCH   7  25
ATOM     25  O   LIG    1       -2.006   2.491   1.784  0.00  0.00    -0.560 OA
ATOM     26  H   LIG    1       -2.334   2.880   2.607  0.00  0.00    +0.380 HD
ENDBRANCH   7  25
TORSDOF 3
