REMARK  Name = ZINCvU0000000B9H.1
REMARK                            x       y       z     vdW  Elec       q    Type
REMARK                         _______ _______ _______ _____ _____    ______ ____
ROOT
ATOM      1  N   LIG    1       -1.263   7.902  -0.148  0.00  0.00    -0.620 N 
ATOM      2  C   LIG    1       -1.251   6.557  -0.054  0.00  0.00    +0.710 C 
ATOM      3  N   LIG    1       -0.078   5.899   0.034  0.00  0.00    -0.690 N 
ATOM      4  H   LIG    1        0.752   6.394   0.106  0.00  0.00    +0.410 HD
ATOM      5  O   LIG    1       -2.297   5.938  -0.048  0.00  0.00    -0.560 OA
ENDROOT
BRANCH   3   6
ATOM      6  C   LIG    1       -0.059   4.499   0.019  0.00  0.00    +0.170 A 
ATOM      7  C   LIG    1       -0.997   3.798  -0.725  0.00  0.00    +0.030 A 
ATOM      8  C   LIG    1       -0.973   2.417  -0.741  0.00  0.00    +0.050 A 
ATOM      9  C   LIG    1       -0.021   1.732  -0.007  0.00  0.00    -0.030 A 
ATOM     10  C   LIG    1        0.916   2.428   0.736  0.00  0.00    -0.050 A 
ATOM     11 CL   LIG    1        0.004  -0.004  -0.025  0.00  0.00    -0.060 Cl
ATOM     12  C   LIG    1        0.900   3.809   0.751  0.00  0.00    +0.000 A 
BRANCH  10  13
ATOM     13  C   LIG    1        1.955   1.679   1.530  0.00  0.00    +0.220 C 
BRANCH  13  14
ATOM     14  N   LIG    1        1.334   1.104   2.730  0.00  0.00    -0.530 NA
ATOM     15  C   LIG    1        0.880   2.159   3.645  0.00  0.00    +0.170 C 
ATOM     16  C   LIG    1        0.112   1.530   4.810  0.00  0.00    +0.010 C 
ATOM     17  C   LIG    1        1.025   0.547   5.546  0.00  0.00    +0.000 C 
ATOM     18  C   LIG    1        1.522  -0.513   4.560  0.00  0.00    +0.020 C 
ATOM     19  C   LIG    1        2.250   0.174   3.403  0.00  0.00    +0.170 C 
ENDBRANCH  13  14
ENDBRANCH  10  13
ENDBRANCH   3   6
BRANCH   1  20
ATOM     20  C   LIG    1       -0.002   8.647  -0.155  0.00  0.00    +0.270 C 
BRANCH  20  21
ATOM     21  C   LIG    1        0.488   8.806  -1.596  0.00  0.00    -0.020 C 
BRANCH  21  23
ATOM     22  C   LIG    1        2.853   8.823  -0.790  0.00  0.00    +0.050 C 
ATOM     23  C   LIG    1        1.805   9.585  -1.604  0.00  0.00    +0.130 C 
ATOM     24  C   LIG    1        2.295   9.744  -3.044  0.00  0.00    +0.020 C 
BRANCH  23  25
ATOM     25  O   LIG    1        1.599  10.875  -1.025  0.00  0.00    -0.560 OA
ATOM     26  H   LIG    1        0.946  11.415  -1.491  0.00  0.00    +0.380 HD
ENDBRANCH  23  25
ENDBRANCH  21  23
ENDBRANCH  20  21
ENDBRANCH   1  20
BRANCH   1  27
ATOM     27  C   LIG    1       -2.538   8.617  -0.243  0.00  0.00    +0.360 C 
BRANCH  27  28
ATOM     28  C   LIG    1       -3.025   8.962   1.141  0.00  0.00    -0.110 A 
ATOM     29  C   LIG    1       -3.842   8.081   1.825  0.00  0.00    +0.040 A 
ATOM     30  C   LIG    1       -4.285   8.394   3.096  0.00  0.00    +0.000 A 
ATOM     31  C   LIG    1       -3.920   9.593   3.679  0.00  0.00    +0.010 A 
ATOM     32  C   LIG    1       -3.107  10.477   2.993  0.00  0.00    -0.010 A 
ATOM     33  C   LIG    1       -2.660  10.161   1.724  0.00  0.00    +0.010 A 
ENDBRANCH  27  28
ENDBRANCH   1  27
TORSDOF 9
