REMARK  Name = ZINCvU00000007a0.0
REMARK                            x       y       z     vdW  Elec       q    Type
REMARK                         _______ _______ _______ _____ _____    ______ ____
ROOT
ATOM      1  C   LIG    1        2.041   0.793  -0.078  0.00  0.00    +0.170 A 
ATOM      2  N   LIG    1        1.198   1.683   0.396  0.00  0.00    -0.290 NA
ATOM      3  N   LIG    1       -0.004   1.233   0.330  0.00  0.00    -0.260 NA
ATOM      4  C   LIG    1       -0.002   0.027  -0.190  0.00  0.00    +0.230 A 
ATOM      5  N   LIG    1        1.307  -0.291  -0.467  0.00  0.00    -0.450 N 
ENDROOT
BRANCH   4   6
ATOM      6  C   LIG    1       -1.184  -0.827  -0.432  0.00  0.00    -0.070 A 
ATOM      7  C   LIG    1       -1.095  -2.218  -0.305  0.00  0.00    +0.070 A 
ATOM      8  C   LIG    1       -2.231  -2.972  -0.542  0.00  0.00    -0.020 A 
ATOM      9  C   LIG    1       -3.407  -2.333  -0.893  0.00  0.00    +0.270 A 
ATOM     10  N   LIG    1       -3.461  -1.020  -1.005  0.00  0.00    -0.480 NA
ATOM     11  C   LIG    1       -2.409  -0.259  -0.785  0.00  0.00    +0.320 A 
ENDBRANCH   4   6
BRANCH   1  12
ATOM     12  S   LIG    1        3.791   0.965  -0.189  0.00  0.00    +0.000 S 
BRANCH  12  13
ATOM     13  C   LIG    1        3.988   2.625   0.505  0.00  0.00    +0.100 C 
BRANCH  13  14
ATOM     14  C   LIG    1        5.471   3.003   0.511  0.00  0.00    +0.060 C 
BRANCH  14  15
ATOM     15  C   LIG    1        5.637   4.406   1.097  0.00  0.00    +0.060 C 
BRANCH  15  17
ATOM     16  O   LIG    1        7.923   3.998   0.679  0.00  0.00    -0.450 OA
ATOM     17  C   LIG    1        7.097   4.779   1.103  0.00  0.00    +0.400 C 
BRANCH  17  18
ATOM     18  C   LIG    1        7.520   6.087   1.622  0.00  0.00    -0.190 A 
ATOM     19  C   LIG    1        6.569   6.992   2.106  0.00  0.00    +0.100 A 
ATOM     20  C   LIG    1        6.972   8.215   2.595  0.00  0.00    -0.030 A 
ATOM     21  C   LIG    1        8.318   8.555   2.599  0.00  0.00    +0.130 A 
ATOM     22  C   LIG    1        9.265   7.664   2.116  0.00  0.00    -0.030 A 
ATOM     23  F   LIG    1        8.706   9.758   3.075  0.00  0.00    -0.130 F 
ATOM     24  C   LIG    1        8.876   6.436   1.628  0.00  0.00    +0.110 A 
ENDBRANCH  17  18
ENDBRANCH  15  17
ENDBRANCH  14  15
ENDBRANCH  13  14
ENDBRANCH  12  13
ENDBRANCH   1  12
BRANCH   5  25
ATOM     25  C   LIG    1        1.810  -1.535  -1.057  0.00  0.00    +0.360 C 
BRANCH  25  26
ATOM     26  C   LIG    1        1.732  -1.446  -2.559  0.00  0.00    -0.120 A 
ATOM     27  C   LIG    1        0.594  -1.871  -3.218  0.00  0.00    +0.020 A 
ATOM     28  C   LIG    1        0.520  -1.784  -4.596  0.00  0.00    +0.010 A 
ATOM     29  C   LIG    1        1.589  -1.283  -5.315  0.00  0.00    +0.030 A 
ATOM     30  C   LIG    1        2.729  -0.862  -4.656  0.00  0.00    +0.010 A 
ATOM     31  C   LIG    1        2.800  -0.944  -3.278  0.00  0.00    +0.040 A 
ENDBRANCH  25  26
ENDBRANCH   5  25
TORSDOF 9
