REMARK  Name = ZINCtV000002I8RS.1
REMARK                            x       y       z     vdW  Elec       q    Type
REMARK                         _______ _______ _______ _____ _____    ______ ____
ROOT
ATOM      1  C   LIG    1        2.151   4.963  -2.376  0.00  0.00    +0.150 A 
ATOM      2  C   LIG    1        1.487   6.073  -1.875  0.00  0.00    +0.060 A 
ATOM      3  C   LIG    1        0.707   6.848  -2.713  0.00  0.00    -0.150 A 
ATOM      4  C   LIG    1        0.578   6.514  -4.048  0.00  0.00    +0.080 A 
ATOM      5  C   LIG    1        1.233   5.406  -4.554  0.00  0.00    +0.050 A 
ATOM      6  C   LIG    1        2.021   4.627  -3.722  0.00  0.00    +0.090 A 
ENDROOT
BRANCH   3   7
ATOM      7  C   LIG    1       -0.010   8.056  -2.168  0.00  0.00    +0.510 C 
ATOM      8  F   LIG    1        0.925   8.959  -1.651  0.00  0.00    -0.170 F 
ATOM      9  F   LIG    1       -0.886   7.659  -1.152  0.00  0.00    -0.170 F 
ATOM     10  F   LIG    1       -0.735   8.671  -3.194  0.00  0.00    -0.170 F 
ENDBRANCH   3   7
BRANCH   1  11
ATOM     11  N   LIG    1        2.946   4.180  -1.531  0.00  0.00    -1.050 N 
ATOM     12  H   LIG    1        3.762   3.778  -1.868  0.00  0.00    +0.430 HD
BRANCH  11  13
ATOM     13  S   LIG    1        2.493   3.941   0.044  0.00  0.00    +2.690 S 
ATOM     14  O   LIG    1        3.420   3.013   0.591  0.00  0.00    -0.940 OA
ATOM     15  O   LIG    1        2.266   5.230   0.597  0.00  0.00    -0.940 OA
BRANCH  13  20
ATOM     16  C   LIG    1       -2.858   1.155  -0.053  0.00  0.00    +0.090 C 
ATOM     17  C   LIG    1       -1.522   1.851  -0.025  0.00  0.00    -0.020 A 
ATOM     18  C   LIG    1       -0.356   1.108  -0.013  0.00  0.00    +0.000 A 
ATOM     19  C   LIG    1        0.870   1.746   0.007  0.00  0.00    +0.130 A 
ATOM     20  C   LIG    1        0.930   3.127   0.019  0.00  0.00    -0.690 A 
ATOM     21  C   LIG    1       -0.235   3.870   0.012  0.00  0.00    +0.130 A 
ATOM     22  C   LIG    1       -1.461   3.232  -0.007  0.00  0.00    +0.000 A 
ENDBRANCH  13  20
ENDBRANCH  11  13
ENDBRANCH   1  11
BRANCH   6  23
ATOM     23  O   LIG    1        2.666   3.537  -4.218  0.00  0.00    -0.240 OA
BRANCH  23  24
ATOM     24  C   LIG    1        3.989   3.654  -4.504  0.00  0.00    +0.120 A 
ATOM     25  C   LIG    1        4.613   4.890  -4.412  0.00  0.00    -0.050 A 
ATOM     26  C   LIG    1        5.960   5.006  -4.699  0.00  0.00    +0.090 A 
ATOM     27  C   LIG    1        6.683   3.893  -5.087  0.00  0.00    -0.120 A 
ATOM     28  C   LIG    1        6.062   2.661  -5.184  0.00  0.00    +0.100 A 
ATOM     29 BR   LIG    1        8.524   4.056  -5.487  0.00  0.00    -0.040 Br
ATOM     30  C   LIG    1        4.717   2.539  -4.894  0.00  0.00    +0.020 A 
ENDBRANCH  23  24
ENDBRANCH   6  23
TORSDOF 6
