REMARK  Name = ZINCwl0000000wv0.2
REMARK                            x       y       z     vdW  Elec       q    Type
REMARK                         _______ _______ _______ _____ _____    ______ ____
ROOT
ATOM      1  C   LIG    1        0.322   5.048   1.297  0.00  0.00    +0.380 A 
ATOM      2  N   LIG    1        0.281   3.778   0.925  0.00  0.00    -0.540 NA
ATOM      3  C   LIG    1        1.355   3.004   0.972  0.00  0.00    +0.340 A 
ATOM      4  C   LIG    1        2.578   3.499   1.422  0.00  0.00    -0.040 A 
ATOM      5  C   LIG    1        2.673   4.818   1.815  0.00  0.00    +0.170 A 
ATOM      6  C   LIG    1        1.522   5.617   1.756  0.00  0.00    -0.070 A 
ENDROOT
BRANCH   3   7
ATOM      7  N   LIG    1        1.261   1.681   0.572  0.00  0.00    -0.470 N 
ATOM      8  C   LIG    1        2.228   1.382  -0.493  0.00  0.00    +0.230 C 
ATOM      9  C   LIG    1        2.133  -0.099  -0.864  0.00  0.00    +0.290 C 
ATOM     10  N   LIG    1        0.769  -0.404  -1.318  0.00  0.00    -0.380 N 
ATOM     11  C   LIG    1       -0.183  -0.123  -0.235  0.00  0.00    +0.180 C 
ATOM     12  H   LIG    1        0.710  -1.378  -1.574  0.00  0.00    +0.430 HD
ATOM     13  C   LIG    1       -0.107   1.358   0.141  0.00  0.00    +0.260 C 
BRANCH  11  14
ATOM     14  C   LIG    1       -1.601  -0.459  -0.704  0.00  0.00    +0.060 C 
ATOM     15  C   LIG    1       -1.711  -1.963  -0.961  0.00  0.00    +0.040 C 
ENDBRANCH  11  14
BRANCH  10  16
ATOM     16  C   LIG    1        0.444   0.429  -2.483  0.00  0.00    +0.210 C 
BRANCH  16  17
ATOM     17  C   LIG    1        1.324   0.018  -3.666  0.00  0.00    +0.210 C 
ATOM     18  C   LIG    1        0.850   0.739  -4.929  0.00  0.00    +0.050 C 
BRANCH  17  19
ATOM     19  O   LIG    1        2.681   0.372  -3.396  0.00  0.00    -0.550 OA
ATOM     20  H   LIG    1        2.820   1.319  -3.253  0.00  0.00    +0.390 HD
ENDBRANCH  17  19
ENDBRANCH  16  17
ENDBRANCH  10  16
ENDBRANCH   3   7
BRANCH   1  23
ATOM     21  C   LIG    1       -3.249   5.929   1.558  0.00  0.00    +0.130 C 
ATOM     22  C   LIG    1       -2.015   5.024   1.562  0.00  0.00    +0.220 C 
ATOM     23  N   LIG    1       -0.825   5.820   1.233  0.00  0.00    -0.490 N 
ATOM     24  C   LIG    1       -0.964   6.448  -0.089  0.00  0.00    +0.210 C 
ATOM     25  C   LIG    1       -2.197   7.354  -0.093  0.00  0.00    +0.190 C 
ATOM     26  N   LIG    1       -3.388   6.557   0.236  0.00  0.00    -0.520 NA
BRANCH  21  28
ATOM     27  C   LIG    1       -4.362   4.464   3.247  0.00  0.00    +0.020 C 
ATOM     28  C   LIG    1       -4.496   5.096   1.860  0.00  0.00    +0.020 C 
ENDBRANCH  21  28
BRANCH  26  29
ATOM     29  C   LIG    1       -4.605   7.377   0.168  0.00  0.00    +0.190 C 
BRANCH  29  30
ATOM     30  C   LIG    1       -4.916   7.707  -1.293  0.00  0.00    +0.160 C 
ATOM     31  C   LIG    1       -6.110   8.662  -1.357  0.00  0.00    +0.010 C 
BRANCH  30  32
ATOM     32  O   LIG    1       -5.231   6.504  -1.996  0.00  0.00    -0.550 OA
ATOM     33  H   LIG    1       -5.440   6.638  -2.931  0.00  0.00    +0.370 HD
ENDBRANCH  30  32
ENDBRANCH  29  30
ENDBRANCH  26  29
ENDBRANCH   1  23
BRANCH   6  34
ATOM     34  C   LIG    1        1.569   6.990   2.159  0.00  0.00    +0.250 C 
ATOM     35  N   LIG    1        1.606   8.079   2.479  0.00  0.00    -0.390 NA
ENDBRANCH   6  34
TORSDOF 11
