REMARK  Name = ZINCwl0000000wv0.1
REMARK                            x       y       z     vdW  Elec       q    Type
REMARK                         _______ _______ _______ _____ _____    ______ ____
ROOT
ATOM      1  C   LIG    1       -0.568   4.432  -0.640  0.00  0.00    +0.370 A 
ATOM      2  N   LIG    1       -0.234   5.383  -1.497  0.00  0.00    -0.480 NA
ATOM      3  C   LIG    1       -0.093   6.645  -1.118  0.00  0.00    +0.330 A 
ATOM      4  C   LIG    1       -0.283   7.021   0.210  0.00  0.00    -0.080 A 
ATOM      5  C   LIG    1       -0.628   6.066   1.143  0.00  0.00    +0.160 A 
ATOM      6  C   LIG    1       -0.776   4.738   0.717  0.00  0.00    -0.060 A 
ENDROOT
BRANCH   3   7
ATOM      7  N   LIG    1        0.253   7.604  -2.056  0.00  0.00    -0.500 N 
ATOM      8  C   LIG    1        1.475   8.316  -1.655  0.00  0.00    +0.240 C 
ATOM      9  C   LIG    1        1.855   9.322  -2.743  0.00  0.00    +0.280 C 
ATOM     10  N   LIG    1        0.754  10.275  -2.936  0.00  0.00    -0.380 N 
ATOM     11  C   LIG    1       -0.453   9.552  -3.360  0.00  0.00    +0.180 C 
ATOM     12  H   LIG    1        0.570  10.756  -2.068  0.00  0.00    +0.420 HD
ATOM     13  C   LIG    1       -0.852   8.547  -2.277  0.00  0.00    +0.240 C 
BRANCH  11  14
ATOM     14  C   LIG    1       -1.593  10.548  -3.578  0.00  0.00    +0.030 C 
ATOM     15  C   LIG    1       -2.829   9.804  -4.087  0.00  0.00    +0.060 C 
ENDBRANCH  11  14
BRANCH  10  16
ATOM     16  C   LIG    1        1.127  11.252  -3.968  0.00  0.00    +0.230 C 
BRANCH  16  17
ATOM     17  C   LIG    1        2.292  12.106  -3.464  0.00  0.00    +0.200 C 
ATOM     18  C   LIG    1        2.681  13.123  -4.538  0.00  0.00    +0.050 C 
BRANCH  17  19
ATOM     19  O   LIG    1        1.899  12.795  -2.275  0.00  0.00    -0.560 OA
ATOM     20  H   LIG    1        1.143  13.386  -2.395  0.00  0.00    +0.390 HD
ENDBRANCH  17  19
ENDBRANCH  16  17
ENDBRANCH  10  16
ENDBRANCH   3   7
BRANCH   1  23
ATOM     21  C   LIG    1        0.301   0.907  -1.279  0.00  0.00    +0.140 C 
ATOM     22  C   LIG    1        0.523   2.360  -0.853  0.00  0.00    +0.210 C 
ATOM     23  N   LIG    1       -0.709   3.128  -1.079  0.00  0.00    -0.490 N 
ATOM     24  C   LIG    1       -1.098   3.089  -2.496  0.00  0.00    +0.220 C 
ATOM     25  C   LIG    1       -1.321   1.635  -2.921  0.00  0.00    +0.180 C 
ATOM     26  N   LIG    1       -0.088   0.868  -2.695  0.00  0.00    -0.520 NA
BRANCH  21  28
ATOM     27  C   LIG    1        1.963   0.097   0.402  0.00  0.00    +0.010 C 
ATOM     28  C   LIG    1        1.595   0.114  -1.083  0.00  0.00    +0.020 C 
ENDBRANCH  21  28
BRANCH  26  29
ATOM     29  C   LIG    1       -0.238  -0.517  -3.162  0.00  0.00    +0.160 C 
BRANCH  29  30
ATOM     30  C   LIG    1       -0.372  -0.530  -4.686  0.00  0.00    +0.210 C 
ATOM     31  C   LIG    1       -0.652  -1.957  -5.162  0.00  0.00    +0.010 C 
BRANCH  30  32
ATOM     32  O   LIG    1        0.843  -0.061  -5.276  0.00  0.00    -0.550 OA
ATOM     33  H   LIG    1        1.619  -0.594  -5.053  0.00  0.00    +0.370 HD
ENDBRANCH  30  32
ENDBRANCH  29  30
ENDBRANCH  26  29
ENDBRANCH   1  23
BRANCH   6  34
ATOM     34  C   LIG    1       -1.133   3.710   1.648  0.00  0.00    +0.250 C 
ATOM     35  N   LIG    1       -1.416   2.895   2.387  0.00  0.00    -0.380 NA
ENDBRANCH   6  34
TORSDOF 11
