REMARK  Name = ZINCpk000004ANOF.0
REMARK                            x       y       z     vdW  Elec       q    Type
REMARK                         _______ _______ _______ _____ _____    ______ ____
ROOT
ATOM      1  C   LIG    1       -5.374  -0.716  -2.543  0.00  0.00    +0.520 C 
ATOM      2  N   LIG    1       -5.609  -2.034  -2.690  0.00  0.00    -0.720 N 
ATOM      3  H   LIG    1       -5.287  -2.662  -2.024  0.00  0.00    +0.410 HD
ATOM      4  O   LIG    1       -5.777   0.069  -3.376  0.00  0.00    -0.520 OA
ENDROOT
BRANCH   2   5
ATOM      5  C   LIG    1       -6.352  -2.521  -3.855  0.00  0.00    +0.290 C 
ATOM      6  C   LIG    1       -5.957  -3.964  -4.113  0.00  0.00    +0.090 C 
ATOM      7  C   LIG    1       -6.686  -4.468  -5.368  0.00  0.00    -0.300 C 
ATOM      8  S   LIG    1       -8.438  -4.662  -4.923  0.00  0.00    +2.490 S 
ATOM      9  C   LIG    1       -8.806  -3.185  -4.028  0.00  0.00    -0.630 A 
ATOM     10  C   LIG    1      -10.138  -2.906  -3.758  0.00  0.00    +0.100 A 
ATOM     11  C   LIG    1      -10.491  -1.773  -3.054  0.00  0.00    +0.010 A 
ATOM     12  C   LIG    1       -9.503  -0.912  -2.614  0.00  0.00    +0.060 A 
ATOM     13  C   LIG    1       -8.181  -1.188  -2.887  0.00  0.00    +0.010 A 
ATOM     14  O   LIG    1       -8.600  -5.705  -3.971  0.00  0.00    -0.930 OA
ATOM     15  O   LIG    1       -9.259  -4.589  -6.080  0.00  0.00    -0.930 OA
ATOM     16  C   LIG    1       -7.818  -2.328  -3.603  0.00  0.00    -0.020 A 
ENDBRANCH   2   5
BRANCH   1  21
ATOM     17  C   LIG    1       -1.296   1.794   0.018  0.00  0.00    +0.550 C 
ATOM     18  N   LIG    1       -2.453   1.109  -0.082  0.00  0.00    -0.610 N 
ATOM     19  C   LIG    1       -2.453  -0.360  -0.098  0.00  0.00    +0.290 C 
ATOM     20  C   LIG    1       -3.215  -0.845  -1.330  0.00  0.00    +0.030 C 
ATOM     21  C   LIG    1       -4.610  -0.215  -1.345  0.00  0.00    -0.010 C 
ATOM     22  C   LIG    1       -4.483   1.308  -1.420  0.00  0.00    +0.060 C 
ATOM     23  C   LIG    1       -3.736   1.817  -0.183  0.00  0.00    +0.280 C 
ATOM     24  O   LIG    1       -1.314   3.006   0.117  0.00  0.00    -0.540 OA
BRANCH  17  26
ATOM     25  C   LIG    1        1.130   1.756  -0.001  0.00  0.00    +0.140 C 
ATOM     26  C   LIG    1       -0.013   1.076   0.007  0.00  0.00    -0.090 C 
ENDBRANCH  17  26
ENDBRANCH   1  21
TORSDOF 3
