REMARK  Name = ZINCpe00000MJJfU.0
REMARK                            x       y       z     vdW  Elec       q    Type
REMARK                         _______ _______ _______ _____ _____    ______ ____
ROOT
ATOM      1  C   LIG    1       -1.677   3.711  -2.135  0.00  0.00    +0.390 A 
ATOM      2  C   LIG    1       -2.327   2.842  -3.018  0.00  0.00    -0.050 A 
ATOM      3  C   LIG    1       -2.165   1.473  -2.836  0.00  0.00    +0.170 A 
ATOM      4  N   LIG    1       -1.402   1.039  -1.834  0.00  0.00    -0.550 NA
ATOM      5  C   LIG    1       -0.802   1.891  -1.019  0.00  0.00    +0.530 A 
ATOM      6  N   LIG    1       -0.936   3.202  -1.158  0.00  0.00    -0.550 NA
ENDROOT
BRANCH   1  10
ATOM      7  C   LIG    1        0.810   7.526  -1.437  0.00  0.00    +0.050 C 
ATOM      8  C   LIG    1       -0.603   7.145  -1.884  0.00  0.00    +0.160 C 
ATOM      9  C   LIG    1       -0.954   5.798  -1.308  0.00  0.00    +0.220 C 
ATOM     10  N   LIG    1       -1.807   5.083  -2.276  0.00  0.00    -0.480 N 
ATOM     11  C   LIG    1       -3.159   5.465  -2.252  0.00  0.00    +0.200 C 
ATOM     12  C   LIG    1       -3.329   6.959  -2.602  0.00  0.00    +0.030 C 
ATOM     13  C   LIG    1       -2.914   7.794  -1.417  0.00  0.00    +0.200 C 
ATOM     14  O   LIG    1       -1.521   8.168  -1.457  0.00  0.00    -0.390 OA
ENDBRANCH   1  10
BRANCH   5  15
ATOM     15  N   LIG    1       -0.017   1.400   0.010  0.00  0.00    -0.460 N 
ATOM     16  C   LIG    1        1.320   2.026   0.000  0.00  0.00    +0.230 C 
ATOM     17  C   LIG    1        1.878   2.000   1.402  0.00  0.00    +0.010 C 
ATOM     18  C   LIG    1        2.703   0.730   1.661  0.00  0.00    +0.210 C 
ATOM     19  O   LIG    1        2.092  -0.449   1.104  0.00  0.00    -0.380 OA
ATOM     20  C   LIG    1        0.699  -0.572   1.256  0.00  0.00    +0.160 C 
ATOM     21  C   LIG    1        0.330  -2.047   1.422  0.00  0.00    +0.060 C 
ATOM     22  C   LIG    1        0.002  -0.004   0.002  0.00  0.00    +0.210 C 
ENDBRANCH   5  15
BRANCH   3  23
ATOM     23  C   LIG    1       -2.835   0.509  -3.745  0.00  0.00    +0.580 C 
ATOM     24  O   LIG    1       -3.529   0.914  -4.655  0.00  0.00    -0.520 OA
ATOM     25  N   LIG    1       -2.672  -0.816  -3.559  0.00  0.00    -0.830 N 
ATOM     26  H   LIG    1       -3.109  -1.446  -4.153  0.00  0.00    +0.410 HD
ATOM     27  H   LIG    1       -2.118  -1.139  -2.832  0.00  0.00    +0.410 HD
ENDBRANCH   3  23
TORSDOF 3
