REMARK  Name = ZINCvU00000005K3.0
REMARK                            x       y       z     vdW  Elec       q    Type
REMARK                         _______ _______ _______ _____ _____    ______ ____
ROOT
ATOM      1  O   LIG    1       -2.507   8.250   7.493  0.00  0.00    -0.530 OA
ATOM      2  C   LIG    1       -1.950   7.883   6.478  0.00  0.00    +0.560 C 
ATOM      3  N   LIG    1       -2.236   6.676   5.951  0.00  0.00    -0.610 N 
ATOM      4  C   LIG    1       -3.304   5.844   6.523  0.00  0.00    +0.290 C 
ATOM      5  C   LIG    1       -2.718   4.473   6.883  0.00  0.00    +0.290 C 
ATOM      6  N   LIG    1       -1.967   3.965   5.726  0.00  0.00    -0.610 N 
ATOM      7  C   LIG    1       -0.895   4.794   5.157  0.00  0.00    +0.270 C 
ATOM      8  C   LIG    1       -2.253   2.757   5.200  0.00  0.00    +0.560 C 
ATOM      9  O   LIG    1       -3.201   2.122   5.617  0.00  0.00    -0.530 OA
ATOM     10  C   LIG    1       -1.485   6.167   4.794  0.00  0.00    +0.270 C 
ENDROOT
BRANCH   8  11
ATOM     11  C   LIG    1       -1.412   2.206   4.116  0.00  0.00    -0.120 A 
ATOM     12  C   LIG    1       -1.983   1.408   3.123  0.00  0.00    +0.080 A 
ATOM     13  C   LIG    1       -1.194   0.897   2.114  0.00  0.00    +0.040 A 
ATOM     14  C   LIG    1        0.162   1.174   2.085  0.00  0.00    -0.050 A 
ATOM     15  C   LIG    1        0.735   1.959   3.069  0.00  0.00    +0.030 A 
ATOM     16  C   LIG    1       -0.044   2.481   4.081  0.00  0.00    +0.040 A 
BRANCH  14  17
ATOM     17  C   LIG    1        1.018   0.613   0.979  0.00  0.00    +0.120 C 
BRANCH  17  18
ATOM     18  S   LIG    1        1.057   1.781  -0.408  0.00  0.00    -0.090 S 
BRANCH  18  19
ATOM     19  C   LIG    1        2.087   0.967  -1.583  0.00  0.00    -0.090 A 
ATOM     20  C   LIG    1        2.635  -0.275  -1.286  0.00  0.00    +0.010 A 
ATOM     21  C   LIG    1        3.439  -0.912  -2.211  0.00  0.00    +0.050 A 
ATOM     22  C   LIG    1        3.707  -0.311  -3.428  0.00  0.00    -0.040 A 
ATOM     23  C   LIG    1        3.167   0.929  -3.725  0.00  0.00    +0.050 A 
ATOM     24 CL   LIG    1        4.724  -1.112  -4.585  0.00  0.00    -0.060 Cl
ATOM     25  C   LIG    1        2.359   1.569  -2.806  0.00  0.00    +0.050 A 
ENDBRANCH  18  19
ENDBRANCH  17  18
ENDBRANCH  14  17
ENDBRANCH   8  11
BRANCH   2  26
ATOM     26  C   LIG    1       -0.958   8.760   5.820  0.00  0.00    -0.130 A 
ATOM     27  C   LIG    1       -0.825   8.749   4.430  0.00  0.00    +0.040 A 
ATOM     28  C   LIG    1        0.099   9.574   3.823  0.00  0.00    +0.000 A 
ATOM     29  C   LIG    1        0.900  10.403   4.588  0.00  0.00    +0.040 A 
ATOM     30  C   LIG    1        0.777  10.414   5.966  0.00  0.00    +0.010 A 
ATOM     31  C   LIG    1       -0.147   9.599   6.586  0.00  0.00    +0.070 A 
ENDBRANCH   2  26
TORSDOF 5
