REMARK  Name = ZINCrH000004k0At.0
REMARK                            x       y       z     vdW  Elec       q    Type
REMARK                         _______ _______ _______ _____ _____    ______ ____
ROOT
ATOM      1  C   LIG    1       -0.432  -2.103   1.091  0.00  0.00    -0.150 A 
ATOM      2  C   LIG    1        0.558  -2.668   0.285  0.00  0.00    +0.120 A 
ATOM      3  C   LIG    1        1.060  -1.958  -0.785  0.00  0.00    +0.020 A 
ATOM      4  C   LIG    1        0.581  -0.689  -1.064  0.00  0.00    +0.070 A 
ATOM      5  C   LIG    1       -0.397  -0.120  -0.265  0.00  0.00    -0.680 A 
ATOM      6 CL   LIG    1        1.214   0.196  -2.417  0.00  0.00    -0.030 Cl
ATOM      7  C   LIG    1       -0.907  -0.820   0.808  0.00  0.00    +0.210 A 
ENDROOT
BRANCH   1  10
ATOM      8  C   LIG    1       -0.522  -4.921   1.024  0.00  0.00    +0.290 C 
ATOM      9  N   LIG    1       -1.057  -4.202   2.183  0.00  0.00    -0.610 N 
ATOM     10  C   LIG    1       -0.975  -2.858   2.239  0.00  0.00    +0.560 C 
ATOM     11  O   LIG    1       -1.347  -2.268   3.234  0.00  0.00    -0.510 OA
BRANCH   9  12
ATOM     12  C   LIG    1       -1.681  -4.945   3.281  0.00  0.00    +0.420 C 
BRANCH  12  13
ATOM     13  C   LIG    1       -3.156  -5.095   3.011  0.00  0.00    -0.040 A 
ATOM     14  C   LIG    1       -3.735  -6.111   2.345  0.00  0.00    -0.040 A 
ATOM     15  C   LIG    1       -5.124  -5.850   2.326  0.00  0.00    -0.070 A 
ATOM     16  C   LIG    1       -5.311  -4.690   2.982  0.00  0.00    +0.170 A 
ATOM     17  O   LIG    1       -4.117  -4.240   3.399  0.00  0.00    -0.160 OA
ENDBRANCH  12  13
ENDBRANCH   9  12
ENDBRANCH   1  10
BRANCH   5  18
ATOM     18  S   LIG    1       -0.996   1.498  -0.623  0.00  0.00    +2.680 S 
ATOM     19  O   LIG    1       -1.956   1.802   0.379  0.00  0.00    -0.940 OA
ATOM     20  O   LIG    1       -1.290   1.517  -2.013  0.00  0.00    -0.940 OA
BRANCH  18  21
ATOM     21  N   LIG    1        0.265   2.548  -0.398  0.00  0.00    -0.980 NA
ATOM     22  C   LIG    1        0.451   3.136   0.910  0.00  0.00    +0.290 C 
ATOM     23  C   LIG    1       -0.355   4.448   1.015  0.00  0.00    +0.010 C 
ATOM     24  C   LIG    1        0.263   5.495   0.187  0.00  0.00    +0.000 C 
ATOM     25  C   LIG    1        0.286   5.183  -1.306  0.00  0.00    +0.010 C 
ATOM     26  C   LIG    1        1.501   4.345  -1.624  0.00  0.00    +0.020 C 
ATOM     27  C   LIG    1        1.148   2.849  -1.541  0.00  0.00    +0.280 C 
ENDBRANCH  18  21
ENDBRANCH   5  18
TORSDOF 5
