REMARK  Name = ZINCqH000000398M.0
REMARK                            x       y       z     vdW  Elec       q    Type
REMARK                         _______ _______ _______ _____ _____    ______ ____
ROOT
ATOM      1  C   LIG    1        3.911   1.411   2.172  0.00  0.00    -0.680 A 
ATOM      2  C   LIG    1        3.494   2.306   3.141  0.00  0.00    +0.180 A 
ATOM      3  C   LIG    1        3.804   2.089   4.471  0.00  0.00    +0.020 A 
ATOM      4  C   LIG    1        4.543   0.982   4.840  0.00  0.00    +0.060 A 
ATOM      5  C   LIG    1        4.972   0.077   3.865  0.00  0.00    -0.140 A 
ATOM      6 CL   LIG    1        4.937   0.714   6.509  0.00  0.00    -0.020 Cl
ATOM      7  C   LIG    1        4.649   0.300   2.525  0.00  0.00    +0.170 A 
ENDROOT
BRANCH   5   8
ATOM      8  C   LIG    1        5.762  -1.110   4.250  0.00  0.00    +0.580 C 
ATOM      9  N   LIG    1        5.428  -2.326   3.774  0.00  0.00    -0.610 N 
ATOM     10  C   LIG    1        4.243  -2.631   2.958  0.00  0.00    +0.230 C 
ATOM     11  C   LIG    1        4.263  -4.146   2.670  0.00  0.00    +0.040 C 
ATOM     12  C   LIG    1        5.145  -4.705   3.818  0.00  0.00    +0.040 C 
ATOM     13  C   LIG    1        6.186  -3.572   3.989  0.00  0.00    +0.250 C 
ATOM     14  O   LIG    1        6.713  -0.991   4.997  0.00  0.00    -0.510 OA
ENDBRANCH   5   8
BRANCH   1  15
ATOM     15  S   LIG    1        3.504   1.694   0.481  0.00  0.00    +2.680 S 
ATOM     16  O   LIG    1        3.264   3.088   0.354  0.00  0.00    -0.940 OA
ATOM     17  O   LIG    1        4.476   0.998  -0.288  0.00  0.00    -0.940 OA
BRANCH  15  18
ATOM     18  N   LIG    1        2.056   0.943   0.193  0.00  0.00    -0.940 N 
BRANCH  18  19
ATOM     19  C   LIG    1        0.866   1.672   0.258  0.00  0.00    +0.130 A 
ATOM     20  C   LIG    1        0.656   2.739  -0.606  0.00  0.00    +0.030 A 
ATOM     21  C   LIG    1       -0.519   3.461  -0.536  0.00  0.00    +0.020 A 
ATOM     22  C   LIG    1       -1.491   3.115   0.385  0.00  0.00    +0.020 A 
ATOM     23  C   LIG    1       -1.285   2.053   1.246  0.00  0.00    +0.020 A 
ATOM     24  C   LIG    1       -0.110   1.330   1.185  0.00  0.00    +0.010 A 
ENDBRANCH  18  19
BRANCH  18  26
ATOM     25  C   LIG    1        2.002  -0.666  -1.648  0.00  0.00    +0.020 C 
ATOM     26  C   LIG    1        2.023  -0.486  -0.129  0.00  0.00    +0.290 C 
ENDBRANCH  18  26
ENDBRANCH  15  18
ENDBRANCH   1  15
TORSDOF 5
