REMARK  Name = ZINCqH0000004Zn6.0
REMARK                            x       y       z     vdW  Elec       q    Type
REMARK                         _______ _______ _______ _____ _____    ______ ____
ROOT
ATOM      1  C   LIG    1       -3.752   6.625  -3.844  0.00  0.00    -0.120 A 
ATOM      2  C   LIG    1       -4.895   6.668  -3.043  0.00  0.00    +0.080 A 
ATOM      3  C   LIG    1       -4.793   6.437  -1.687  0.00  0.00    +0.050 A 
ATOM      4  C   LIG    1       -3.561   6.162  -1.120  0.00  0.00    -0.100 A 
ATOM      5  C   LIG    1       -2.423   6.124  -1.906  0.00  0.00    +0.030 A 
ATOM      6  C   LIG    1       -2.512   6.348  -3.265  0.00  0.00    +0.040 A 
ENDROOT
BRANCH   1   9
ATOM      7  C   LIG    1       -1.574   7.733  -5.257  0.00  0.00    +0.290 C 
ATOM      8  N   LIG    1       -2.833   7.460  -5.954  0.00  0.00    -0.550 N 
ATOM      9  C   LIG    1       -3.853   6.872  -5.297  0.00  0.00    +0.560 C 
ATOM     10  O   LIG    1       -4.857   6.546  -5.901  0.00  0.00    -0.500 OA
BRANCH   8  11
ATOM     11  C   LIG    1       -2.977   7.809  -7.301  0.00  0.00    +0.150 A 
ATOM     12  C   LIG    1       -4.215   7.696  -7.920  0.00  0.00    +0.010 A 
ATOM     13  C   LIG    1       -4.355   8.045  -9.249  0.00  0.00    +0.030 A 
ATOM     14  C   LIG    1       -3.262   8.497  -9.965  0.00  0.00    -0.020 A 
ATOM     15  C   LIG    1       -2.027   8.605  -9.353  0.00  0.00    +0.030 A 
ATOM     16  C   LIG    1       -1.881   8.262  -8.023  0.00  0.00    -0.030 A 
ENDBRANCH   8  11
ENDBRANCH   1   9
BRANCH   4  17
ATOM     17  C   LIG    1       -3.457   5.911   0.362  0.00  0.00    +0.400 C 
BRANCH  17  18
ATOM     18  N   LIG    1       -3.625   4.480   0.628  0.00  0.00    -0.390 N 
ATOM     19  N   LIG    1       -4.830   3.809   0.883  0.00  0.00    -0.000 NA
ATOM     20  N   LIG    1       -4.593   2.559   1.071  0.00  0.00    -0.220 NA
ATOM     21  C   LIG    1       -3.273   2.310   0.954  0.00  0.00    -0.020 A 
ATOM     22  C   LIG    1       -2.505   1.145   1.072  0.00  0.00    +0.110 A 
ATOM     23  C   LIG    1       -1.152   1.201   0.905  0.00  0.00    +0.000 A 
ATOM     24  C   LIG    1       -0.520   2.406   0.624  0.00  0.00    +0.080 A 
ATOM     25  C   LIG    1       -1.252   3.566   0.509  0.00  0.00    +0.000 A 
ATOM     26  C   LIG    1       -2.632   3.530   0.676  0.00  0.00    +0.090 A 
ENDBRANCH  17  18
ENDBRANCH   4  17
TORSDOF 4
