REMARK  Name = ZINCqH00000354Xt.0
REMARK                            x       y       z     vdW  Elec       q    Type
REMARK                         _______ _______ _______ _____ _____    ______ ____
ROOT
ATOM      1  N   LIG    1        5.534  -0.486  -0.055  0.00  0.00    -0.680 N 
ATOM      2  H   LIG    1        6.011   0.355  -0.131  0.00  0.00    +0.410 HD
ATOM      3  C   LIG    1        4.187  -0.498  -0.038  0.00  0.00    +0.700 C 
ATOM      4  N   LIG    1        3.502   0.663  -0.034  0.00  0.00    -0.640 N 
ATOM      5  H   LIG    1        3.980   1.507  -0.043  0.00  0.00    +0.420 HD
ATOM      6  O   LIG    1        3.588  -1.557  -0.026  0.00  0.00    -0.520 OA
ENDROOT
BRANCH   1  15
ATOM      7  C   LIG    1        6.439  -4.037  -0.473  0.00  0.00    -0.070 A 
ATOM      8  C   LIG    1        7.665  -4.075   0.223  0.00  0.00    -0.060 A 
ATOM      9  C   LIG    1        8.637  -5.128   0.505  0.00  0.00    -0.030 A 
ATOM     10  C   LIG    1        9.627  -4.567   1.223  0.00  0.00    +0.240 A 
ATOM     11  N   LIG    1        9.364  -3.241   1.421  0.00  0.00    -0.590 N 
ATOM     12  H   LIG    1        9.933  -2.626   1.911  0.00  0.00    +0.420 HD
ATOM     13  C   LIG    1        8.169  -2.906   0.821  0.00  0.00    +0.100 A 
ATOM     14  C   LIG    1        7.455  -1.719   0.717  0.00  0.00    +0.010 A 
ATOM     15  C   LIG    1        6.247  -1.688   0.037  0.00  0.00    +0.170 A 
ATOM     16  C   LIG    1        5.739  -2.835  -0.559  0.00  0.00    +0.090 A 
BRANCH   7  17
ATOM     17  C   LIG    1        5.903  -5.255  -1.102  0.00  0.00    +0.510 C 
ATOM     18  O   LIG    1        6.518  -6.301  -1.024  0.00  0.00    -0.500 OA
BRANCH  17  20
ATOM     19  C   LIG    1        4.263  -6.451  -2.361  0.00  0.00    +0.260 C 
ATOM     20  O   LIG    1        4.730  -5.212  -1.765  0.00  0.00    -0.350 OA
ENDBRANCH  17  20
ENDBRANCH   7  17
ENDBRANCH   1  15
BRANCH   4  21
ATOM     21  C   LIG    1        2.101   0.650  -0.016  0.00  0.00    +0.320 A 
ATOM     22  N   LIG    1        1.340  -0.419  -0.002  0.00  0.00    -0.270 NA
ATOM     23  N   LIG    1        0.002  -0.003   0.013  0.00  0.00    -0.470 N 
ATOM     24  H   LIG    1       -0.775  -0.583   0.025  0.00  0.00    +0.440 HD
ATOM     25  C   LIG    1       -0.016   1.347   0.007  0.00  0.00    +0.120 A 
ATOM     26  C   LIG    1        1.266   1.779  -0.010  0.00  0.00    -0.260 A 
ATOM     27  C   LIG    1        1.717   3.216  -0.021  0.00  0.00    +0.120 C 
BRANCH  25  28
ATOM     28  C   LIG    1       -1.246   2.218   0.013  0.00  0.00    +0.060 C 
ATOM     29  C   LIG    1       -2.069   1.929   1.270  0.00  0.00    +0.030 C 
ATOM     30  C   LIG    1       -2.089   1.918  -1.228  0.00  0.00    +0.030 C 
ENDBRANCH  25  28
ENDBRANCH   4  21
TORSDOF 5
