REMARK  Name = ZINCvU0000000Gp4.0
REMARK                            x       y       z     vdW  Elec       q    Type
REMARK                         _______ _______ _______ _____ _____    ______ ____
ROOT
ATOM      1  C   LIG    1       -2.614   9.176   3.572  0.00  0.00    +0.280 A 
ATOM      2  N   LIG    1       -2.420   8.719   2.375  0.00  0.00    -0.460 NA
ATOM      3  C   LIG    1       -1.910   9.556   1.492  0.00  0.00    +0.060 A 
ATOM      4  C   LIG    1       -1.671  10.782   1.962  0.00  0.00    -0.060 A 
ATOM      5  S   LIG    1       -2.141  10.816   3.659  0.00  0.00    +0.170 S 
ENDROOT
BRANCH   1   8
ATOM      6  C   LIG    1       -4.242   6.424   5.545  0.00  0.00    +0.110 C 
ATOM      7  C   LIG    1       -3.571   7.181   4.427  0.00  0.00    +0.510 C 
ATOM      8  N   LIG    1       -3.137   8.440   4.631  0.00  0.00    -0.470 N 
ATOM      9  O   LIG    1       -3.423   6.656   3.343  0.00  0.00    -0.460 OA
BRANCH   8  10
ATOM     10  C   LIG    1       -3.211   9.008   5.909  0.00  0.00    +0.080 A 
ATOM     11  C   LIG    1       -2.152   8.865   6.797  0.00  0.00    -0.050 A 
ATOM     12  C   LIG    1       -2.226   9.431   8.054  0.00  0.00    +0.010 A 
ATOM     13  C   LIG    1       -3.358  10.130   8.434  0.00  0.00    -0.050 A 
ATOM     14  C   LIG    1       -4.416  10.268   7.555  0.00  0.00    +0.010 A 
ATOM     15  C   LIG    1       -3.438  10.741   9.809  0.00  0.00    +0.100 C 
ATOM     16  C   LIG    1       -0.921   8.099   6.386  0.00  0.00    +0.100 C 
ATOM     17  C   LIG    1       -4.346   9.709   6.294  0.00  0.00    -0.050 A 
ATOM     18  C   LIG    1       -5.499   9.861   5.336  0.00  0.00    +0.100 C 
ENDBRANCH   8  10
ENDBRANCH   1   8
BRANCH   3  19
ATOM     19  C   LIG    1       -1.625   9.161   0.065  0.00  0.00    +0.480 C 
BRANCH  19  20
ATOM     20  N   LIG    1       -0.752   7.985   0.049  0.00  0.00    -0.130 N 
ATOM     21  N   LIG    1        0.535   8.013   0.035  0.00  0.00    -0.060 NA
ATOM     22  N   LIG    1        0.980   6.802   0.028  0.00  0.00    -0.270 NA
ATOM     23  C   LIG    1       -0.084   5.987   0.029  0.00  0.00    +0.200 A 
ATOM     24  N   LIG    1       -1.152   6.760   0.045  0.00  0.00    -0.260 NA
BRANCH  23  25
ATOM     25  C   LIG    1       -0.064   4.503   0.021  0.00  0.00    -0.010 A 
ATOM     26  C   LIG    1        1.151   3.821   0.004  0.00  0.00    +0.070 A 
ATOM     27  C   LIG    1        1.164   2.441  -0.004  0.00  0.00    +0.030 A 
ATOM     28  C   LIG    1       -0.026   1.734   0.004  0.00  0.00    -0.020 A 
ATOM     29  C   LIG    1       -1.236   2.408   0.016  0.00  0.00    +0.030 A 
ATOM     30 CL   LIG    1       -0.003  -0.002  -0.006  0.00  0.00    -0.060 Cl
ATOM     31  C   LIG    1       -1.259   3.787   0.030  0.00  0.00    +0.070 A 
ENDBRANCH  23  25
ENDBRANCH  19  20
ENDBRANCH   3  19
TORSDOF 5
