REMARK  Name = ZINCtV00000tFXlG.0
REMARK                            x       y       z     vdW  Elec       q    Type
REMARK                         _______ _______ _______ _____ _____    ______ ____
ROOT
ATOM      1  C   LIG    1        4.263  -0.729  -1.464  0.00  0.00    +0.040 C 
ATOM      2  C   LIG    1        3.710  -0.706  -0.038  0.00  0.00    +0.280 C 
ENDROOT
BRANCH   2   3
ATOM      3  C   LIG    1        2.396   0.033  -0.021  0.00  0.00    -0.090 A 
ATOM      4  C   LIG    1        1.208  -0.675  -0.013  0.00  0.00    +0.030 A 
ATOM      5  C   LIG    1        0.002  -0.004   0.002  0.00  0.00    +0.030 A 
ATOM      6  C   LIG    1       -0.017   1.389   0.010  0.00  0.00    -0.050 A 
ATOM      7  C   LIG    1        1.183   2.097   0.002  0.00  0.00    +0.030 A 
ATOM      8  C   LIG    1        2.383   1.416  -0.013  0.00  0.00    +0.010 A 
BRANCH   6   9
ATOM      9  C   LIG    1       -1.310   2.116   0.020  0.00  0.00    -0.040 A 
ATOM     10  C   LIG    1       -2.510   1.406   0.022  0.00  0.00    +0.060 A 
ATOM     11  C   LIG    1       -3.716   2.080   0.031  0.00  0.00    +0.030 A 
ATOM     12  C   LIG    1       -3.742   3.460   0.038  0.00  0.00    +0.070 A 
ATOM     13  C   LIG    1       -2.547   4.183   0.037  0.00  0.00    -0.020 A 
ATOM     14  C   LIG    1       -1.328   3.507   0.033  0.00  0.00    +0.080 A 
BRANCH  13  15
ATOM     15  C   LIG    1       -2.574   5.615   0.045  0.00  0.00    +0.250 C 
ATOM     16  N   LIG    1       -2.595   6.751   0.052  0.00  0.00    -0.410 NA
ENDBRANCH  13  15
ENDBRANCH   6   9
ENDBRANCH   2   3
BRANCH   2  17
ATOM     17  N   LIG    1        4.663  -0.028   0.845  0.00  0.00    -0.720 N 
ATOM     18  H   LIG    1        4.559   0.917   1.036  0.00  0.00    +0.400 HD
ATOM     19  C   LIG    1        5.684  -0.717   1.391  0.00  0.00    +0.600 C 
ATOM     20  O   LIG    1        5.815  -1.903   1.150  0.00  0.00    -0.520 OA
BRANCH  19  21
ATOM     21  C   LIG    1        6.638  -0.039   2.274  0.00  0.00    -0.270 A 
ATOM     22  C   LIG    1        7.701  -0.632   2.884  0.00  0.00    +0.130 A 
ATOM     23  C   LIG    1        8.446   0.241   3.663  0.00  0.00    -0.040 A 
ATOM     24  C   LIG    1        7.973   1.518   3.683  0.00  0.00    -0.030 A 
ATOM     25  S   LIG    1        6.578   1.662   2.712  0.00  0.00    +0.240 S 
BRANCH  23  26
ATOM     26  C   LIG    1        9.647  -0.182   4.415  0.00  0.00    +0.040 A 
ATOM     27  C   LIG    1       10.421   0.618   5.196  0.00  0.00    -0.040 A 
ATOM     28  C   LIG    1       11.449  -0.196   5.718  0.00  0.00    -0.060 A 
ATOM     29  C   LIG    1       11.257  -1.435   5.228  0.00  0.00    +0.180 A 
ATOM     30  O   LIG    1       10.168  -1.423   4.441  0.00  0.00    -0.170 OA
ENDBRANCH  23  26
ENDBRANCH  19  21
ENDBRANCH   2  17
TORSDOF 6
