REMARK  Name = ZINCpk000000nVlh.0
REMARK                            x       y       z     vdW  Elec       q    Type
REMARK                         _______ _______ _______ _____ _____    ______ ____
ROOT
ATOM      1  C   LIG    1        2.636  -5.502  -1.283  0.00  0.00    +0.030 C 
ATOM      2  C   LIG    1        1.752  -4.264  -1.451  0.00  0.00    -0.050 C 
ATOM      3  C   LIG    1        1.083  -3.932  -0.115  0.00  0.00    +0.020 C 
ATOM      4  C   LIG    1        0.171  -2.713  -0.295  0.00  0.00    +0.260 C 
ATOM      5  N   LIG    1        0.960  -1.613  -0.866  0.00  0.00    -0.610 N 
ATOM      6  C   LIG    1        1.712  -1.852  -2.105  0.00  0.00    +0.300 C 
ATOM      7  C   LIG    1        0.988  -0.406  -0.267  0.00  0.00    +0.500 C 
ATOM      8  O   LIG    1        1.643   0.495  -0.748  0.00  0.00    -0.500 OA
ATOM      9  C   LIG    1        0.677  -4.545  -2.503  0.00  0.00    +0.030 C 
ATOM     10  C   LIG    1        2.611  -3.081  -1.902  0.00  0.00    +0.030 C 
ENDROOT
BRANCH  10  11
ATOM     11  C   LIG    1        3.295  -3.422  -3.200  0.00  0.00    -0.070 A 
ATOM     12  C   LIG    1        4.643  -3.728  -3.212  0.00  0.00    +0.010 A 
ATOM     13  C   LIG    1        5.270  -4.046  -4.402  0.00  0.00    +0.000 A 
ATOM     14  C   LIG    1        4.551  -4.048  -5.582  0.00  0.00    +0.000 A 
ATOM     15  C   LIG    1        3.204  -3.738  -5.572  0.00  0.00    +0.000 A 
ATOM     16  C   LIG    1        2.576  -3.425  -4.381  0.00  0.00    +0.000 A 
ENDBRANCH  10  11
BRANCH   7  17
ATOM     17  C   LIG    1        0.206  -0.175   1.000  0.00  0.00    +0.370 C 
BRANCH  17  18
ATOM     18  N   LIG    1        0.400   1.206   1.449  0.00  0.00    -0.290 N 
ATOM     19  C   LIG    1       -0.578   2.099   1.692  0.00  0.00    +0.430 A 
ATOM     20  N   LIG    1       -0.010   3.214   2.075  0.00  0.00    -0.480 NA
ATOM     21  C   LIG    1        1.320   3.011   2.059  0.00  0.00    +0.130 A 
ATOM     22  N   LIG    1        1.535   1.773   1.672  0.00  0.00    -0.220 NA
BRANCH  21  23
ATOM     23  C   LIG    1        2.356   4.004   2.416  0.00  0.00    +0.620 C 
ATOM     24  O   LIG    1        3.532   3.701   2.363  0.00  0.00    -0.520 OA
ATOM     25  N   LIG    1        1.996   5.245   2.799  0.00  0.00    -0.830 N 
ATOM     26  H   LIG    1        2.676   5.897   3.032  0.00  0.00    +0.410 HD
ATOM     27  H   LIG    1        1.058   5.487   2.840  0.00  0.00    +0.410 HD
ENDBRANCH  21  23
ENDBRANCH  17  18
ENDBRANCH   7  17
TORSDOF 4
