REMARK  Name = ZINCrD000000Acu4.0
REMARK                            x       y       z     vdW  Elec       q    Type
REMARK                         _______ _______ _______ _____ _____    ______ ____
ROOT
ATOM      1  O   LIG    1       -1.969  -5.087   3.781  0.00  0.00    -0.530 OA
ATOM      2  C   LIG    1       -2.360  -5.771   2.859  0.00  0.00    +0.520 C 
ATOM      3  N   LIG    1       -3.001  -6.931   3.106  0.00  0.00    -0.720 N 
ATOM      4  H   LIG    1       -3.314  -7.479   2.369  0.00  0.00    +0.400 HD
ENDROOT
BRANCH   3   5
ATOM      5  C   LIG    1       -3.225  -7.364   4.487  0.00  0.00    +0.320 C 
BRANCH   5   6
ATOM      6  C   LIG    1       -3.371  -8.864   4.526  0.00  0.00    -0.090 A 
ATOM      7  C   LIG    1       -4.084  -9.515   3.537  0.00  0.00    +0.010 A 
ATOM      8  C   LIG    1       -4.214 -10.891   3.570  0.00  0.00    +0.000 A 
ATOM      9  C   LIG    1       -3.638 -11.615   4.597  0.00  0.00    +0.000 A 
ATOM     10  C   LIG    1       -2.929 -10.963   5.589  0.00  0.00    +0.010 A 
ATOM     11  C   LIG    1       -2.795  -9.588   5.553  0.00  0.00    +0.010 A 
ENDBRANCH   5   6
BRANCH   5  12
ATOM     12  C   LIG    1       -4.501  -6.714   5.025  0.00  0.00    -0.060 C 
ATOM     13  C   LIG    1       -5.378  -5.949   4.031  0.00  0.00    +0.010 C 
ATOM     14  C   LIG    1       -4.551  -5.186   5.068  0.00  0.00    +0.030 C 
ENDBRANCH   5  12
ENDBRANCH   3   5
BRANCH   2  15
ATOM     15  C   LIG    1       -2.130  -5.326   1.438  0.00  0.00    +0.060 C 
BRANCH  15  16
ATOM     16  C   LIG    1       -1.387  -3.988   1.438  0.00  0.00    +0.040 C 
BRANCH  16  17
ATOM     17  C   LIG    1       -1.153  -3.535  -0.005  0.00  0.00    +0.310 C 
BRANCH  17  18
ATOM     18  N   LIG    1       -0.442  -2.255  -0.006  0.00  0.00    -0.580 N 
ATOM     19  C   LIG    1       -1.042  -1.051   0.006  0.00  0.00    +0.580 C 
ATOM     20  C   LIG    1        0.002  -0.004   0.002  0.00  0.00    -0.140 A 
ATOM     21  C   LIG    1       -0.017   1.381   0.010  0.00  0.00    +0.100 A 
ATOM     22  C   LIG    1        1.178   2.085   0.002  0.00  0.00    +0.050 A 
ATOM     23  C   LIG    1        2.386   1.414  -0.012  0.00  0.00    +0.050 A 
ATOM     24  C   LIG    1        2.420   0.028  -0.020  0.00  0.00    +0.100 A 
ATOM     25  C   LIG    1        1.234  -0.689  -0.013  0.00  0.00    -0.140 A 
ATOM     26  O   LIG    1       -2.240  -0.856   0.020  0.00  0.00    -0.460 OA
ATOM     27  C   LIG    1        0.898  -2.128  -0.018  0.00  0.00    +0.580 C 
ATOM     28  O   LIG    1        1.696  -3.043  -0.031  0.00  0.00    -0.460 OA
ENDBRANCH  17  18
ENDBRANCH  16  17
ENDBRANCH  15  16
ENDBRANCH   2  15
TORSDOF 7
