REMARK  Name = ZINCqH0000034DFI.0
REMARK                            x       y       z     vdW  Elec       q    Type
REMARK                         _______ _______ _______ _____ _____    ______ ____
ROOT
ATOM      1  C   LIG    1        7.607  -3.707  -0.032  0.00  0.00    +0.290 C 
ATOM      2  N   LIG    1        7.724  -2.769   1.087  0.00  0.00    -0.610 N 
ATOM      3  C   LIG    1        6.669  -2.010   1.443  0.00  0.00    +0.520 C 
ATOM      4  O   LIG    1        6.766  -1.233   2.370  0.00  0.00    -0.500 OA
ENDROOT
BRANCH   3   5
ATOM      5  C   LIG    1        5.368  -2.127   0.691  0.00  0.00    +0.000 C 
ATOM      6  C   LIG    1        5.553  -1.742  -0.795  0.00  0.00    +0.090 C 
ATOM      7  C   LIG    1        4.274  -1.017  -1.152  0.00  0.00    +0.530 C 
ATOM      8  N   LIG    1        3.622  -0.653  -0.035  0.00  0.00    -0.580 N 
ATOM      9  O   LIG    1        3.893  -0.796  -2.282  0.00  0.00    -0.510 OA
ATOM     10  C   LIG    1        4.359  -1.057   1.168  0.00  0.00    +0.310 C 
BRANCH   8  11
ATOM     11  C   LIG    1        2.400   0.030  -0.020  0.00  0.00    +0.170 A 
ATOM     12  C   LIG    1        1.207  -0.680  -0.013  0.00  0.00    +0.030 A 
ATOM     13  C   LIG    1        0.002  -0.004   0.002  0.00  0.00    +0.040 A 
ATOM     14  C   LIG    1       -0.017   1.378   0.010  0.00  0.00    +0.030 A 
ATOM     15  C   LIG    1        1.170   2.089   0.002  0.00  0.00    +0.050 A 
ATOM     16  C   LIG    1        2.378   1.419  -0.013  0.00  0.00    -0.080 A 
ATOM     17 BR   LIG    1        4.000   2.392  -0.023  0.00  0.00    -0.040 Br
ENDBRANCH   8  11
ENDBRANCH   3   5
BRANCH   2  18
ATOM     18  C   LIG    1        8.988  -2.655   1.819  0.00  0.00    +0.360 C 
BRANCH  18  19
ATOM     19  C   LIG    1        8.994  -3.632   2.966  0.00  0.00    -0.160 A 
ATOM     20  C   LIG    1        9.749  -4.787   2.886  0.00  0.00    +0.090 A 
ATOM     21  C   LIG    1        9.756  -5.684   3.938  0.00  0.00    -0.030 A 
ATOM     22  C   LIG    1        9.006  -5.426   5.073  0.00  0.00    +0.140 A 
ATOM     23  C   LIG    1        8.249  -4.269   5.154  0.00  0.00    -0.050 A 
ATOM     24  F   LIG    1        9.012  -6.303   6.100  0.00  0.00    -0.130 F 
ATOM     25  C   LIG    1        8.247  -3.370   4.102  0.00  0.00    +0.150 A 
ATOM     26  F   LIG    1        7.513  -2.238   4.182  0.00  0.00    -0.100 F 
ENDBRANCH  18  19
ENDBRANCH   2  18
TORSDOF 4
