REMARK  Name = ZINCrH000004uA5j.0
REMARK                            x       y       z     vdW  Elec       q    Type
REMARK                         _______ _______ _______ _____ _____    ______ ____
ROOT
ATOM      1  O   LIG    1       -1.204   2.840   0.023  0.00  0.00    -0.580 OA
ATOM      2  C   LIG    1       -1.187   1.624   0.017  0.00  0.00    +0.710 C 
ATOM      3  N   LIG    1       -2.345   0.934   0.018  0.00  0.00    -0.740 N 
ATOM      4  H   LIG    1       -2.332  -0.036   0.013  0.00  0.00    +0.390 HD
ATOM      5  N   LIG    1       -0.011   0.966   0.007  0.00  0.00    -0.740 N 
ATOM      6  H   LIG    1        0.002  -0.004   0.002  0.00  0.00    +0.390 HD
ENDROOT
BRANCH   3   7
ATOM      7  C   LIG    1       -3.624   1.649   0.028  0.00  0.00    +0.350 C 
BRANCH   7   8
ATOM      8  C   LIG    1       -4.694   0.774  -0.572  0.00  0.00    -0.050 A 
ATOM      9  C   LIG    1       -5.647   1.323  -1.408  0.00  0.00    +0.030 A 
ATOM     10  C   LIG    1       -6.630   0.519  -1.960  0.00  0.00    +0.120 A 
ATOM     11  C   LIG    1       -6.657  -0.835  -1.674  0.00  0.00    +0.020 A 
ATOM     12  C   LIG    1       -5.702  -1.383  -0.837  0.00  0.00    -0.060 A 
ATOM     13 BR   LIG    1       -5.737  -3.233  -0.446  0.00  0.00    -0.030 Br
ATOM     14  F   LIG    1       -7.563   1.056  -2.777  0.00  0.00    -0.130 F 
ATOM     15  C   LIG    1       -4.717  -0.579  -0.291  0.00  0.00    +0.040 A 
ENDBRANCH   7   8
BRANCH   7  16
ATOM     16  C   LIG    1       -4.001   2.000   1.469  0.00  0.00    -0.070 C 
ATOM     17  C   LIG    1       -4.370   3.454   1.768  0.00  0.00    +0.020 C 
ATOM     18  C   LIG    1       -3.034   2.888   2.256  0.00  0.00    +0.040 C 
ENDBRANCH   7  16
ENDBRANCH   3   7
BRANCH   5  19
ATOM     19  C   LIG    1        1.248   1.716  -0.001  0.00  0.00    +0.370 C 
BRANCH  19  20
ATOM     20  C   LIG    1        2.406   0.752  -0.017  0.00  0.00    -0.240 A 
ATOM     21  C   LIG    1        2.987   0.391  -1.195  0.00  0.00    +0.170 A 
ATOM     22  C   LIG    1        4.070  -0.504  -1.189  0.00  0.00    -0.210 A 
ATOM     23  C   LIG    1        4.520  -1.010  -0.017  0.00  0.00    +0.150 A 
ATOM     24  N   LIG    1        3.931  -0.650   1.157  0.00  0.00    -0.600 N 
ATOM     25  H   LIG    1        4.264  -1.020   1.990  0.00  0.00    +0.410 HD
ATOM     26  C   LIG    1        5.682  -1.950  -0.268  0.00  0.00    +0.100 C 
ATOM     27  C   LIG    1        5.606  -2.291  -1.771  0.00  0.00    +0.050 C 
ATOM     28  C   LIG    1        4.882  -1.053  -2.344  0.00  0.00    +0.090 C 
ATOM     29  C   LIG    1        2.897   0.209   1.183  0.00  0.00    +0.530 A 
ATOM     30  O   LIG    1        2.386   0.518   2.247  0.00  0.00    -0.540 OA
ENDBRANCH  19  20
ENDBRANCH   5  19
TORSDOF 5
