REMARK  Name = ZINCah0000006kBG.0
REMARK                            x       y       z     vdW  Elec       q    Type
REMARK                         _______ _______ _______ _____ _____    ______ ____
ROOT
ATOM      1  C   LIG    1       -2.182   1.345  -1.162  0.00  0.00    -0.160 C 
ATOM      2  C   LIG    1       -3.538   2.085  -1.175  0.00  0.00    +0.030 C 
ATOM      3  C   LIG    1       -4.583   0.958  -1.015  0.00  0.00    +0.200 C 
ATOM      4  O   LIG    1       -3.869  -0.118  -0.369  0.00  0.00    -0.370 OA
ATOM      5  C   LIG    1       -2.568  -0.142  -0.997  0.00  0.00    +0.230 C 
ENDROOT
BRANCH   1   6
ATOM      6  C   LIG    1       -1.450   1.562  -2.461  0.00  0.00    +0.450 C 
ATOM      7  O   LIG    1       -0.349   2.058  -2.458  0.00  0.00    -0.440 OA
ENDBRANCH   1   6
BRANCH   1   8
ATOM      8  C   LIG    1       -1.328   1.812   0.018  0.00  0.00    +0.080 C 
BRANCH   8  10
ATOM      9  C   LIG    1        1.113   1.746   0.001  0.00  0.00    +0.020 C 
ATOM     10  C   LIG    1       -0.013   1.076   0.008  0.00  0.00    -0.060 C 
ENDBRANCH   8  10
ENDBRANCH   1   8
TORSDOF 3
