REMARK  Name = ZINCpe00000gMD9q.0
REMARK                            x       y       z     vdW  Elec       q    Type
REMARK                         _______ _______ _______ _____ _____    ______ ____
ROOT
ATOM      1  C   LIG    1        2.850   2.128   1.988  0.00  0.00    +0.600 C 
ATOM      2  N   LIG    1        2.180   1.369   1.098  0.00  0.00    -0.630 N 
ATOM      3  C   LIG    1        1.459   1.983  -0.027  0.00  0.00    +0.290 C 
ATOM      4  C   LIG    1        0.028   1.436  -0.045  0.00  0.00    +0.180 C 
ATOM      5  N   LIG    1        0.068  -0.032  -0.060  0.00  0.00    -0.520 NA
ATOM      6  C   LIG    1        0.692  -0.561   1.160  0.00  0.00    +0.160 C 
ATOM      7  C   LIG    1        2.150  -0.096   1.227  0.00  0.00    +0.290 C 
ATOM      8  O   LIG    1        3.351   1.615   2.970  0.00  0.00    -0.520 OA
ENDROOT
BRANCH   1  15
ATOM      9  C   LIG    1        2.596   4.482   2.776  0.00  0.00    +0.340 A 
ATOM     10  C   LIG    1        2.720   5.848   2.559  0.00  0.00    -0.120 A 
ATOM     11  C   LIG    1        3.215   6.316   1.358  0.00  0.00    +0.090 A 
ATOM     12  C   LIG    1        3.592   5.429   0.362  0.00  0.00    -0.140 A 
ATOM     13  C   LIG    1        3.481   4.069   0.561  0.00  0.00    +0.090 A 
ATOM     14 CL   LIG    1        4.213   6.033  -1.143  0.00  0.00    -0.100 Cl
ATOM     15  C   LIG    1        2.976   3.581   1.769  0.00  0.00    -0.220 A 
BRANCH   9  16
ATOM     16  N   LIG    1        2.098   4.009   3.984  0.00  0.00    -1.070 NA
BRANCH  16  18
ATOM     17  C   LIG    1        1.076   4.024   6.531  0.00  0.00    -0.300 C 
ATOM     18  S   LIG    1        1.651   5.076   5.169  0.00  0.00    +2.530 S 
ATOM     19  O   LIG    1        0.564   5.795   4.602  0.00  0.00    -1.030 OA
ATOM     20  O   LIG    1        2.860   5.734   5.523  0.00  0.00    -1.020 OA
ENDBRANCH  16  18
ENDBRANCH   9  16
ENDBRANCH   1  15
BRANCH   5  21
ATOM     21  C   LIG    1       -1.276  -0.594  -0.251  0.00  0.00    +0.190 C 
ATOM     22  C   LIG    1       -1.204  -2.132  -0.354  0.00  0.00    +0.070 C 
ATOM     23  C   LIG    1       -2.045  -2.653   0.831  0.00  0.00    +0.260 C 
ATOM     24  N   LIG    1       -2.979  -1.541   1.145  0.00  0.00    -0.510 N 
ATOM     25  H   LIG    1       -3.317  -1.622   2.092  0.00  0.00    +0.430 HD
ATOM     26  H   LIG    1       -3.749  -1.534   0.494  0.00  0.00    +0.430 HD
ATOM     27  C   LIG    1       -2.154  -0.314   0.987  0.00  0.00    +0.230 C 
ENDBRANCH   5  21
TORSDOF 4
