REMARK  Name = ZINCrD00000hQ6UM.0
REMARK                            x       y       z     vdW  Elec       q    Type
REMARK                         _______ _______ _______ _____ _____    ______ ____
ROOT
ATOM      1  C   LIG    1        7.269   2.905  -1.413  0.00  0.00    +0.120 A 
ATOM      2  C   LIG    1        7.326   1.982  -2.447  0.00  0.00    +0.020 A 
ATOM      3  C   LIG    1        6.465   0.903  -2.457  0.00  0.00    +0.040 A 
ATOM      4  C   LIG    1        5.543   0.741  -1.432  0.00  0.00    +0.120 A 
ATOM      5  C   LIG    1        5.483   1.668  -0.400  0.00  0.00    +0.020 A 
ATOM      6  C   LIG    1        6.348   2.744  -0.389  0.00  0.00    -0.040 A 
ENDROOT
BRANCH   4   7
ATOM      7  N   LIG    1        4.670  -0.353  -1.441  0.00  0.00    -0.940 N 
ATOM      8  C   LIG    1        4.302  -0.986  -2.710  0.00  0.00    +0.320 C 
BRANCH   7   9
ATOM      9  S   LIG    1        4.053  -0.932  -0.018  0.00  0.00    +2.690 S 
ATOM     10  O   LIG    1        3.630   0.202   0.727  0.00  0.00    -0.940 OA
ATOM     11  O   LIG    1        3.184  -2.003  -0.363  0.00  0.00    -0.940 OA
BRANCH   9  12
ATOM     12  C   LIG    1        5.391  -1.646   0.879  0.00  0.00    -0.720 A 
ATOM     13  C   LIG    1        5.785  -1.099   2.085  0.00  0.00    +0.160 A 
ATOM     14  C   LIG    1        6.835  -1.659   2.789  0.00  0.00    -0.010 A 
ATOM     15  C   LIG    1        7.491  -2.768   2.287  0.00  0.00    +0.110 A 
ATOM     16  C   LIG    1        7.098  -3.317   1.081  0.00  0.00    -0.020 A 
ATOM     17  C   LIG    1        6.048  -2.757   0.375  0.00  0.00    +0.200 A 
ATOM     18  F   LIG    1        5.663  -3.293  -0.803  0.00  0.00    -0.120 F 
ENDBRANCH   9  12
ENDBRANCH   7   9
ENDBRANCH   4   7
BRANCH   1  19
ATOM     19  O   LIG    1        8.118   3.968  -1.404  0.00  0.00    -0.310 OA
BRANCH  19  20
ATOM     20  C   LIG    1        8.005   4.879  -0.308  0.00  0.00    +0.240 C 
BRANCH  20  23
ATOM     21  N   LIG    1       10.454   5.633  -0.435  0.00  0.00    -0.440 NA
ATOM     22  C   LIG    1        9.887   6.003  -1.739  0.00  0.00    +0.180 C 
ATOM     23  C   LIG    1        9.032   6.001  -0.470  0.00  0.00    +0.070 C 
BRANCH  21  24
ATOM     24  C   LIG    1       11.267   6.726   0.114  0.00  0.00    +0.150 C 
BRANCH  24  26
ATOM     25  C   LIG    1       13.348   5.862  -0.966  0.00  0.00    +0.020 C 
ATOM     26  C   LIG    1       12.691   6.224   0.367  0.00  0.00    +0.000 C 
ATOM     27  C   LIG    1       13.504   7.323   1.054  0.00  0.00    +0.010 C 
ENDBRANCH  24  26
ENDBRANCH  21  24
ENDBRANCH  20  23
ENDBRANCH  19  20
ENDBRANCH   1  19
TORSDOF 8
