REMARK  Name = ZINCrH000004sRp3.0
REMARK                            x       y       z     vdW  Elec       q    Type
REMARK                         _______ _______ _______ _____ _____    ______ ____
ROOT
ATOM      1  C   LIG    1        0.002  -0.004   0.002  0.00  0.00    +0.600 C 
ATOM      2  N   LIG    1       -0.018   1.343  -0.011  0.00  0.00    -0.590 N 
ATOM      3  C   LIG    1       -1.323   2.032   0.040  0.00  0.00    +0.270 C 
ATOM      4  C   LIG    1       -1.296   3.248   0.989  0.00  0.00    +0.020 C 
ATOM      5  C   LIG    1       -0.507   2.922   2.233  0.00  0.00    +0.030 C 
ATOM      6  C   LIG    1        0.950   3.326   2.029  0.00  0.00    +0.020 C 
ATOM      7  C   LIG    1        1.770   2.310   1.352  0.00  0.00    +0.020 C 
ATOM      8  C   LIG    1        1.238   2.055  -0.080  0.00  0.00    +0.290 C 
ATOM      9  O   LIG    1       -1.036  -0.627   0.119  0.00  0.00    -0.540 OA
ENDROOT
BRANCH   1  12
ATOM     10  C   LIG    1        0.348  -3.103  -0.267  0.00  0.00    +0.200 C 
ATOM     11  C   LIG    1        1.444  -2.070  -0.243  0.00  0.00    +0.040 A 
ATOM     12  C   LIG    1        1.283  -0.723  -0.125  0.00  0.00    -0.070 A 
ATOM     13  N   LIG    1        2.522  -0.164  -0.153  0.00  0.00    -0.450 NA
ATOM     14  C   LIG    1        3.405  -1.123  -0.273  0.00  0.00    +0.290 A 
ATOM     15  O   LIG    1        2.764  -2.304  -0.334  0.00  0.00    -0.200 OA
BRANCH  14  16
ATOM     16  C   LIG    1        4.870  -0.938  -0.339  0.00  0.00    -0.180 A 
ATOM     17  C   LIG    1        5.806  -1.927  -0.464  0.00  0.00    +0.290 A 
ATOM     18  N   LIG    1        7.018  -1.340  -0.488  0.00  0.00    -0.360 N 
ATOM     19  N   LIG    1        6.839   0.043  -0.367  0.00  0.00    -0.290 NA
ATOM     20  C   LIG    1        8.303  -2.031  -0.613  0.00  0.00    +0.370 C 
ATOM     21  C   LIG    1        5.560   0.291  -0.278  0.00  0.00    +0.300 A 
ENDBRANCH  14  16
ENDBRANCH   1  12
BRANCH   6  22
ATOM     22  C   LIG    1        1.560   3.614   3.376  0.00  0.00    -0.080 A 
ATOM     23  C   LIG    1        1.690   2.601   4.308  0.00  0.00    +0.010 A 
ATOM     24  C   LIG    1        2.254   2.865   5.541  0.00  0.00    +0.000 A 
ATOM     25  C   LIG    1        2.679   4.144   5.848  0.00  0.00    -0.010 A 
ATOM     26  C   LIG    1        2.545   5.159   4.918  0.00  0.00    +0.000 A 
ATOM     27  C   LIG    1        1.985   4.894   3.682  0.00  0.00    +0.000 A 
ENDBRANCH   6  22
TORSDOF 3
