REMARK  Name = ZINCrH000004n8sK.0
REMARK                            x       y       z     vdW  Elec       q    Type
REMARK                         _______ _______ _______ _____ _____    ______ ____
ROOT
ATOM      1  C   LIG    1        4.574  -1.141  -5.636  0.00  0.00    +0.140 A 
ATOM      2  C   LIG    1        4.513   0.186  -6.034  0.00  0.00    -0.080 A 
ATOM      3  C   LIG    1        4.659   1.191  -5.101  0.00  0.00    +0.060 A 
ATOM      4  C   LIG    1        4.869   0.884  -3.764  0.00  0.00    -0.140 A 
ATOM      5  C   LIG    1        5.045   2.016  -2.791  0.00  0.00    +0.320 C 
ATOM      6  N   LIG    1        4.910   1.543  -1.411  0.00  0.00    -0.620 N 
ATOM      7  C   LIG    1        5.639   0.322  -1.022  0.00  0.00    +0.350 C 
ATOM      8  C   LIG    1        5.129  -0.810  -1.920  0.00  0.00    -0.120 C 
ATOM      9  C   LIG    1        4.165  -1.823  -1.302  0.00  0.00    +0.050 C 
ATOM     10  C   LIG    1        5.607  -2.229  -1.613  0.00  0.00    +0.040 C 
ATOM     11  C   LIG    1        4.138   2.201  -0.525  0.00  0.00    +0.720 C 
ATOM     12  N   LIG    1        3.402   3.257  -0.926  0.00  0.00    -0.740 N 
ATOM     13  H   LIG    1        3.486   3.590  -1.833  0.00  0.00    +0.400 HD
ATOM     14  O   LIG    1        4.105   1.844   0.637  0.00  0.00    -0.580 OA
ATOM     15  C   LIG    1        4.920  -0.436  -3.366  0.00  0.00    +0.020 A 
ATOM     16  C   LIG    1        4.777  -1.448  -4.300  0.00  0.00    -0.020 A 
ENDROOT
BRANCH  12  17
ATOM     17  C   LIG    1        2.474   3.901   0.008  0.00  0.00    +0.310 C 
ATOM     18  C   LIG    1        2.253   5.355  -0.415  0.00  0.00    -0.000 C 
ATOM     19  C   LIG    1        1.070   5.915   0.385  0.00  0.00    +0.250 C 
ATOM     20  O   LIG    1       -0.107   5.198   0.011  0.00  0.00    -0.320 OA
ATOM     21  C   LIG    1       -0.047   3.840   0.006  0.00  0.00    +0.140 A 
ATOM     22  C   LIG    1       -1.240   3.124   0.008  0.00  0.00    -0.020 A 
ATOM     23  C   LIG    1       -1.221   1.744  -0.009  0.00  0.00    +0.050 A 
ATOM     24  C   LIG    1       -0.014   1.070  -0.015  0.00  0.00    -0.040 A 
ATOM     25  C   LIG    1        1.172   1.778  -0.015  0.00  0.00    +0.070 A 
ATOM     26  C   LIG    1        1.160   3.163  -0.002  0.00  0.00    -0.180 A 
ENDBRANCH  12  17
BRANCH   1  28
ATOM     27  C   LIG    1        4.227  -1.744  -7.910  0.00  0.00    +0.250 C 
ATOM     28  O   LIG    1        4.434  -2.136  -6.551  0.00  0.00    -0.320 OA
ENDBRANCH   1  28
TORSDOF 2
