REMARK  Name = ZINCrH000004rLhu.0
REMARK                            x       y       z     vdW  Elec       q    Type
REMARK                         _______ _______ _______ _____ _____    ______ ____
ROOT
ATOM      1  C   LIG    1       -4.733   3.274  -0.761  0.00  0.00    +0.240 C 
ATOM      2  C   LIG    1       -4.213   4.646  -1.247  0.00  0.00    +0.050 C 
ATOM      3  C   LIG    1       -2.674   4.478  -1.179  0.00  0.00    +0.210 C 
ATOM      4  N   LIG    1       -2.476   3.662   0.046  0.00  0.00    -0.450 N 
ATOM      5  C   LIG    1       -3.572   2.669   0.051  0.00  0.00    +0.220 C 
ENDROOT
BRANCH   4   6
ATOM      6  C   LIG    1       -1.235   3.033   0.030  0.00  0.00    +0.350 A 
ATOM      7  N   LIG    1       -1.169   1.711   0.017  0.00  0.00    -0.500 NA
ATOM      8  C   LIG    1       -0.013   1.076   0.008  0.00  0.00    +0.370 A 
ATOM      9  C   LIG    1        1.179   1.773   0.000  0.00  0.00    -0.260 A 
ATOM     10  C   LIG    1        1.154   3.162   0.008  0.00  0.00    +0.170 A 
ATOM     11  C   LIG    1       -0.073   3.800   0.023  0.00  0.00    -0.100 A 
ATOM     12 CL   LIG    1       -0.163   5.534   0.034  0.00  0.00    -0.020 Cl
BRANCH   9  13
ATOM     13  C   LIG    1        2.492   1.035  -0.017  0.00  0.00    +0.520 C 
ATOM     14  F   LIG    1        3.233   1.375   1.120  0.00  0.00    -0.170 F 
ATOM     15  F   LIG    1        3.211   1.388  -1.164  0.00  0.00    -0.170 F 
ATOM     16  F   LIG    1        2.253  -0.344  -0.022  0.00  0.00    -0.170 F 
ENDBRANCH   9  13
ENDBRANCH   4   6
BRANCH   1  18
ATOM     17  C   LIG    1       -7.142   3.473  -0.459  0.00  0.00    +0.560 C 
ATOM     18  N   LIG    1       -5.912   3.449   0.091  0.00  0.00    -0.720 N 
ATOM     19  H   LIG    1       -5.807   3.549   1.050  0.00  0.00    +0.400 HD
ATOM     20  O   LIG    1       -7.274   3.348  -1.661  0.00  0.00    -0.520 OA
BRANCH  17  26
ATOM     21  C   LIG    1      -12.101   3.869   0.044  0.00  0.00    +0.100 C 
ATOM     22  C   LIG    1      -10.721   3.841   0.647  0.00  0.00    -0.120 A 
ATOM     23  C   LIG    1      -10.562   3.982   2.012  0.00  0.00    +0.050 A 
ATOM     24  C   LIG    1       -9.296   3.958   2.576  0.00  0.00    +0.000 A 
ATOM     25  C   LIG    1       -8.184   3.793   1.781  0.00  0.00    +0.050 A 
ATOM     26  C   LIG    1       -8.330   3.649   0.399  0.00  0.00    -0.170 A 
ATOM     27  C   LIG    1       -9.611   3.680  -0.169  0.00  0.00    +0.170 A 
BRANCH  27  28
ATOM     28  O   LIG    1       -9.765   3.547  -1.510  0.00  0.00    -0.470 OA
ATOM     29  H   LIG    1       -9.872   2.633  -1.805  0.00  0.00    +0.390 HD
ENDBRANCH  27  28
ENDBRANCH  17  26
ENDBRANCH   1  18
TORSDOF 5
