REMARK  Name = ZINCrg00000SjSIk.0
REMARK                            x       y       z     vdW  Elec       q    Type
REMARK                         _______ _______ _______ _____ _____    ______ ____
ROOT
ATOM      1  C   LIG    1        1.733   9.327  -5.719  0.00  0.00    +0.070 C 
ATOM      2  C   LIG    1        1.500   9.349  -4.207  0.00  0.00    -0.040 C 
ATOM      3  C   LIG    1        2.175  10.586  -3.604  0.00  0.00    +0.300 C 
ATOM      4  N   LIG    1        1.883  10.626  -2.159  0.00  0.00    -0.530 N 
ATOM      5  C   LIG    1        1.994   9.426  -1.476  0.00  0.00    +0.540 A 
ATOM      6  N   LIG    1        2.023   9.225  -0.182  0.00  0.00    -0.510 NA
ATOM      7  C   LIG    1        2.146   7.918   0.071  0.00  0.00    +0.340 A 
ATOM      8  C   LIG    1        2.196   7.253  -1.152  0.00  0.00    -0.160 A 
ATOM      9  C   LIG    1        2.331   5.853  -1.163  0.00  0.00    +0.600 A 
ATOM     10  N   LIG    1        2.398   5.185   0.007  0.00  0.00    -0.550 N 
ATOM     11  C   LIG    1        2.349   5.838   1.181  0.00  0.00    +0.710 A 
ATOM     12  O   LIG    1        2.417   5.203   2.216  0.00  0.00    -0.530 OA
ATOM     13  O   LIG    1        2.383   5.248  -2.220  0.00  0.00    -0.520 OA
ATOM     14  N   LIG    1        2.225   7.177   1.238  0.00  0.00    -0.510 N 
ATOM     15  C   LIG    1        2.174   7.852   2.538  0.00  0.00    +0.340 C 
ATOM     16  N   LIG    1        2.096   8.229  -2.125  0.00  0.00    -0.440 N 
ATOM     17  C   LIG    1        2.093   8.081  -3.581  0.00  0.00    +0.310 C 
ENDROOT
BRANCH   4  18
ATOM     18  C   LIG    1        1.513  11.810  -1.514  0.00  0.00    +0.180 A 
ATOM     19  C   LIG    1        1.419  12.994  -2.234  0.00  0.00    -0.040 A 
ATOM     20  C   LIG    1        1.049  14.161  -1.595  0.00  0.00    +0.040 A 
ATOM     21  C   LIG    1        0.783  14.154  -0.238  0.00  0.00    -0.030 A 
ATOM     22  C   LIG    1        0.881  12.978   0.482  0.00  0.00    +0.040 A 
ATOM     23  C   LIG    1        1.246  11.806  -0.151  0.00  0.00    +0.010 A 
ENDBRANCH   4  18
BRANCH  10  24
ATOM     24  C   LIG    1        2.534   3.726  -0.002  0.00  0.00    +0.330 C 
BRANCH  24  25
ATOM     25  C   LIG    1        1.145   3.085   0.008  0.00  0.00    +0.020 C 
BRANCH  25  26
ATOM     26  C   LIG    1        1.286   1.562  -0.002  0.00  0.00    +0.180 C 
BRANCH  26  27
ATOM     27  O   LIG    1       -0.011   0.963   0.007  0.00  0.00    -0.570 OA
ATOM     28  H   LIG    1        0.002  -0.004   0.002  0.00  0.00    +0.380 HD
ENDBRANCH  26  27
ENDBRANCH  25  26
ENDBRANCH  24  25
ENDBRANCH  10  24
TORSDOF 5
