REMARK  Name = ZINCrD00000l3aoi.0
REMARK                            x       y       z     vdW  Elec       q    Type
REMARK                         _______ _______ _______ _____ _____    ______ ____
ROOT
ATOM      1  O   LIG    1        0.613   1.426   1.950  0.00  0.00    -0.340 OA
ENDROOT
BRANCH   1   5
ATOM      2  C   LIG    1        1.190   3.695  -1.602  0.00  0.00    +0.250 C 
ATOM      3  C   LIG    1        1.064   2.175  -1.726  0.00  0.00    +0.030 C 
ATOM      4  C   LIG    1        1.349   1.527  -0.369  0.00  0.00    +0.050 C 
ATOM      5  C   LIG    1        0.343   2.040   0.663  0.00  0.00    +0.170 C 
ATOM      6  C   LIG    1        0.469   3.560   0.786  0.00  0.00    +0.020 C 
ATOM      7  C   LIG    1        0.184   4.208  -0.570  0.00  0.00    +0.020 C 
BRANCH   2  11
ATOM      8  N   LIG    1        1.181   6.096  -4.386  0.00  0.00    -0.750 N 
ATOM      9  H   LIG    1        0.629   5.635  -5.037  0.00  0.00    +0.400 HD
ATOM     10  C   LIG    1        1.433   5.526  -3.191  0.00  0.00    +0.700 C 
ATOM     11  N   LIG    1        0.917   4.315  -2.901  0.00  0.00    -0.740 N 
ATOM     12  H   LIG    1        0.365   3.854  -3.552  0.00  0.00    +0.400 HD
ATOM     13  O   LIG    1        2.124   6.104  -2.375  0.00  0.00    -0.590 OA
BRANCH   8  15
ATOM     14  C   LIG    1        1.308   7.828  -6.109  0.00  0.00    +0.030 C 
ATOM     15  C   LIG    1        1.742   7.413  -4.702  0.00  0.00    +0.270 C 
ENDBRANCH   8  15
ENDBRANCH   2  11
ENDBRANCH   1   5
BRANCH   1  16
ATOM     16  C   LIG    1       -0.438   1.241   2.773  0.00  0.00    +0.540 C 
ATOM     17  O   LIG    1       -1.551   1.584   2.424  0.00  0.00    -0.490 OA
BRANCH  16  18
ATOM     18  C   LIG    1       -0.239   0.624   4.093  0.00  0.00    -0.040 A 
ATOM     19  C   LIG    1       -1.189   0.465   5.088  0.00  0.00    +0.020 A 
ATOM     20  C   LIG    1       -0.522  -0.170   6.137  0.00  0.00    +0.050 A 
ATOM     21  N   LIG    1        0.721  -0.352   5.772  0.00  0.00    -0.250 NA
ATOM     22  N   LIG    1        0.922   0.099   4.586  0.00  0.00    -0.250 N 
BRANCH  22  23
ATOM     23  C   LIG    1        2.200   0.056   3.871  0.00  0.00    +0.170 C 
ATOM     24  C   LIG    1        2.021  -0.694   2.550  0.00  0.00    +0.050 C 
ATOM     25  C   LIG    1        3.240  -0.666   4.730  0.00  0.00    +0.080 C 
ATOM     26  C   LIG    1        2.674   1.483   3.588  0.00  0.00    +0.060 C 
ENDBRANCH  22  23
BRANCH  20  27
ATOM     27  C   LIG    1       -1.126  -0.569   7.459  0.00  0.00    +0.040 C 
ATOM     28  C   LIG    1       -2.467   0.060   7.843  0.00  0.00    +0.030 C 
ATOM     29  C   LIG    1       -1.186   0.494   8.558  0.00  0.00    +0.020 C 
ENDBRANCH  20  27
ENDBRANCH  16  18
ENDBRANCH   1  16
TORSDOF 7
