REMARK  Name = ZINCAx0000000ai9.0
REMARK                            x       y       z     vdW  Elec       q    Type
REMARK                         _______ _______ _______ _____ _____    ______ ____
ROOT
ATOM      1  C   LIG    1        0.488  -2.162  -0.854  0.00  0.00    -0.260 A 
ATOM      2  C   LIG    1        0.830  -2.918  -1.976  0.00  0.00    +0.280 A 
ATOM      3  C   LIG    1        0.762  -4.311  -1.901  0.00  0.00    -0.340 A 
ATOM      4  C   LIG    1        0.341  -4.941  -0.704  0.00  0.00    +0.490 A 
ATOM      5  N   LIG    1        0.004  -4.181   0.386  0.00  0.00    -0.450 N 
ATOM      6  N   LIG    1        0.280  -6.263  -0.658  0.00  0.00    -0.570 NA
ATOM      7  C   LIG    1        0.602  -7.028  -1.701  0.00  0.00    +0.450 A 
ATOM      8  C   LIG    1        0.508  -8.426  -1.565  0.00  0.00    +0.030 A 
ATOM      9  C   LIG    1        0.831  -9.229  -2.617  0.00  0.00    +0.160 A 
ATOM     10  C   LIG    1        1.253  -8.653  -3.823  0.00  0.00    +0.010 A 
ATOM     11  C   LIG    1        1.338  -7.308  -3.937  0.00  0.00    +0.300 A 
ATOM     12  N   LIG    1        1.017  -6.497  -2.890  0.00  0.00    -0.440 N 
ATOM     13  C   LIG    1        1.114  -5.156  -3.043  0.00  0.00    +0.560 A 
ATOM     14  O   LIG    1        1.482  -4.668  -4.096  0.00  0.00    -0.480 OA
ATOM     15  C   LIG    1        0.069  -2.816   0.330  0.00  0.00    +0.530 A 
ATOM     16  N   LIG    1       -0.262  -2.096   1.399  0.00  0.00    -0.650 NA
ENDROOT
BRANCH   1  17
ATOM     17  C   LIG    1        0.555  -0.696  -0.904  0.00  0.00    +0.530 C 
ATOM     18  O   LIG    1       -0.469  -0.040  -0.926  0.00  0.00    -0.490 OA
BRANCH  17  19
ATOM     19  O   LIG    1        1.753  -0.076  -0.924  0.00  0.00    -0.330 OA
BRANCH  19  21
ATOM     20  C   LIG    1        3.175   1.900  -0.886  0.00  0.00    +0.060 C 
ATOM     21  C   LIG    1        1.744   1.374  -1.003  0.00  0.00    +0.200 C 
ENDBRANCH  19  21
ENDBRANCH  17  19
ENDBRANCH   1  17
BRANCH  16  22
ATOM     22  C   LIG    1        0.130  -0.823   1.495  0.00  0.00    +0.550 C 
ATOM     23  O   LIG    1        1.309  -0.538   1.374  0.00  0.00    -0.500 OA
BRANCH  22  24
ATOM     24  C   LIG    1       -0.869   0.245   1.748  0.00  0.00    -0.070 A 
ATOM     25  C   LIG    1       -2.227  -0.060   1.881  0.00  0.00    +0.030 A 
ATOM     26  C   LIG    1       -3.122   0.964   2.122  0.00  0.00    +0.250 A 
ATOM     27  N   LIG    1       -2.712   2.214   2.214  0.00  0.00    -0.470 NA
ATOM     28  C   LIG    1       -1.442   2.544   2.088  0.00  0.00    +0.250 A 
ATOM     29  C   LIG    1       -0.479   1.583   1.852  0.00  0.00    +0.020 A 
ENDBRANCH  22  24
ENDBRANCH  16  22
BRANCH   5  30
ATOM     30  C   LIG    1       -0.431  -4.837   1.622  0.00  0.00    +0.330 C 
BRANCH  30  31
ATOM     31  C   LIG    1       -1.950  -5.018   1.596  0.00  0.00    +0.030 C 
BRANCH  31  32
ATOM     32  C   LIG    1       -2.404  -5.703   2.887  0.00  0.00    +0.170 C 
BRANCH  32  33
ATOM     33  O   LIG    1       -3.823  -5.872   2.862  0.00  0.00    -0.380 OA
BRANCH  33  34
ATOM     34  C   LIG    1       -4.353  -6.506   4.028  0.00  0.00    +0.140 C 
ATOM     35  C   LIG    1       -4.377  -8.021   3.818  0.00  0.00    +0.010 C 
ATOM     36  C   LIG    1       -5.775  -6.003   4.280  0.00  0.00    +0.040 C 
ENDBRANCH  33  34
ENDBRANCH  32  33
ENDBRANCH  31  32
ENDBRANCH  30  31
ENDBRANCH   5  30
TORSDOF 10
