REMARK  Name = ZINCtV00000KU5KZ.0
REMARK                            x       y       z     vdW  Elec       q    Type
REMARK                         _______ _______ _______ _____ _____    ______ ____
ROOT
ATOM      1  N   LIG    1       -0.930  -0.849   0.070  0.00  0.00    -0.680 N 
ATOM      2  H   LIG    1       -1.755  -0.455  -0.255  0.00  0.00    +0.410 HD
ATOM      3  C   LIG    1        0.060  -0.059   0.530  0.00  0.00    +0.710 C 
ATOM      4  N   LIG    1       -0.130   1.272   0.627  0.00  0.00    -0.680 N 
ATOM      5  H   LIG    1       -0.949   1.671   0.292  0.00  0.00    +0.410 HD
ATOM      6  O   LIG    1        1.124  -0.546   0.858  0.00  0.00    -0.550 OA
ENDROOT
BRANCH   1  10
ATOM      7  C   LIG    1       -0.449  -4.986   0.042  0.00  0.00    -0.140 A 
ATOM      8  C   LIG    1       -1.702  -4.428   0.317  0.00  0.00    +0.110 A 
ATOM      9  C   LIG    1       -1.857  -3.061   0.325  0.00  0.00    -0.020 A 
ATOM     10  C   LIG    1       -0.769  -2.234   0.061  0.00  0.00    +0.200 A 
ATOM     11  C   LIG    1        0.477  -2.786  -0.219  0.00  0.00    +0.020 A 
ATOM     12  C   LIG    1        0.641  -4.152  -0.223  0.00  0.00    +0.100 A 
BRANCH   7  13
ATOM     13  C   LIG    1       -0.279  -6.451   0.032  0.00  0.00    +0.510 C 
ATOM     14  O   LIG    1       -1.228  -7.174   0.262  0.00  0.00    -0.510 OA
BRANCH  13  15
ATOM     15  O   LIG    1        0.928  -6.987  -0.233  0.00  0.00    -0.350 OA
BRANCH  15  16
ATOM     16  C   LIG    1        1.022  -8.436  -0.227  0.00  0.00    +0.210 C 
BRANCH  16  17
ATOM     17  C   LIG    1        2.458  -8.856  -0.546  0.00  0.00    +0.040 C 
BRANCH  17  18
ATOM     18  C   LIG    1        2.557 -10.382  -0.539  0.00  0.00    +0.020 C 
BRANCH  18  19
ATOM     19  C   LIG    1        3.994 -10.802  -0.858  0.00  0.00    +0.000 C 
BRANCH  19  21
ATOM     20  C   LIG    1        5.529 -12.748  -1.170  0.00  0.00    +0.000 C 
ATOM     21  C   LIG    1        4.092 -12.329  -0.851  0.00  0.00    -0.010 C 
ENDBRANCH  19  21
ENDBRANCH  18  19
ENDBRANCH  17  18
ENDBRANCH  16  17
ENDBRANCH  15  16
ENDBRANCH  13  15
ENDBRANCH   7  13
ENDBRANCH   1  10
BRANCH   4  22
ATOM     22  C   LIG    1        0.856   2.080   1.204  0.00  0.00    +0.160 A 
ATOM     23  C   LIG    1        1.637   1.590   2.243  0.00  0.00    +0.060 A 
ATOM     24  C   LIG    1        2.613   2.388   2.807  0.00  0.00    +0.040 A 
ATOM     25  C   LIG    1        2.806   3.676   2.345  0.00  0.00    +0.060 A 
ATOM     26  C   LIG    1        2.027   4.169   1.314  0.00  0.00    -0.160 A 
ATOM     27  C   LIG    1        1.053   3.375   0.743  0.00  0.00    +0.040 A 
BRANCH  26  28
ATOM     28  C   LIG    1        2.241   5.575   0.814  0.00  0.00    +0.510 C 
ATOM     29  F   LIG    1        1.910   5.642  -0.543  0.00  0.00    -0.180 F 
ATOM     30  F   LIG    1        3.583   5.931   0.985  0.00  0.00    -0.170 F 
ATOM     31  F   LIG    1        1.429   6.455   1.537  0.00  0.00    -0.170 F 
ENDBRANCH  26  28
ENDBRANCH   4  22
TORSDOF 10
