REMARK  Name = ZINCpe00000R91U6.0
REMARK                            x       y       z     vdW  Elec       q    Type
REMARK                         _______ _______ _______ _____ _____    ______ ____
ROOT
ATOM      1  N   LIG    1       -2.163   1.185  -1.141  0.00  0.00    -1.000 NA
ATOM      2  C   LIG    1       -0.755   1.594  -1.232  0.00  0.00    +0.290 C 
ATOM      3  C   LIG    1       -0.013   1.086   0.008  0.00  0.00    +0.050 C 
ATOM      4  C   LIG    1       -0.730   1.580   1.266  0.00  0.00    +0.040 C 
ATOM      5  C   LIG    1       -2.156   1.023   1.294  0.00  0.00    +0.250 C 
ATOM      6  C   LIG    1       -2.923   1.530   0.068  0.00  0.00    +0.310 C 
ENDROOT
BRANCH   5   7
ATOM      7  N   LIG    1       -2.833   1.471   2.513  0.00  0.00    -0.300 N 
ATOM      8  C   LIG    1       -2.657   2.660   3.118  0.00  0.00    +0.430 A 
ATOM      9  N   LIG    1       -3.434   2.688   4.171  0.00  0.00    -0.480 NA
ATOM     10  C   LIG    1       -4.083   1.510   4.219  0.00  0.00    +0.140 A 
ATOM     11  N   LIG    1       -3.692   0.790   3.191  0.00  0.00    -0.250 NA
BRANCH  10  12
ATOM     12  C   LIG    1       -5.063   1.098   5.247  0.00  0.00    +0.620 C 
ATOM     13  O   LIG    1       -5.586   0.003   5.184  0.00  0.00    -0.520 OA
ATOM     14  N   LIG    1       -5.377   1.938   6.254  0.00  0.00    -0.830 N 
ATOM     15  H   LIG    1       -6.019   1.667   6.929  0.00  0.00    +0.410 HD
ATOM     16  H   LIG    1       -4.959   2.812   6.304  0.00  0.00    +0.410 HD
ENDBRANCH  10  12
ENDBRANCH   5   7
BRANCH   1  17
ATOM     17  S   LIG    1       -2.880   0.349  -2.378  0.00  0.00    +2.600 S 
ATOM     18  O   LIG    1       -2.140   0.726  -3.531  0.00  0.00    -0.940 OA
ATOM     19  O   LIG    1       -4.261   0.663  -2.259  0.00  0.00    -0.940 OA
BRANCH  17  20
ATOM     20  C   LIG    1       -2.588  -1.395  -1.975  0.00  0.00    -0.300 C 
BRANCH  20  27
ATOM     21  C   LIG    1       -5.318  -2.303  -1.705  0.00  0.00    +0.110 C 
ATOM     22  C   LIG    1       -4.508  -2.701  -2.911  0.00  0.00    -0.070 A 
ATOM     23  C   LIG    1       -5.072  -3.497  -3.891  0.00  0.00    +0.010 A 
ATOM     24  C   LIG    1       -4.327  -3.866  -4.995  0.00  0.00    +0.030 A 
ATOM     25  C   LIG    1       -3.019  -3.435  -5.123  0.00  0.00    +0.010 A 
ATOM     26  C   LIG    1       -2.456  -2.636  -4.145  0.00  0.00    +0.030 A 
ATOM     27  C   LIG    1       -3.201  -2.267  -3.041  0.00  0.00    -0.100 A 
ENDBRANCH  20  27
ENDBRANCH  17  20
ENDBRANCH   1  17
TORSDOF 5
