REMARK  Name = ZINCrg000000shTW.0
REMARK                            x       y       z     vdW  Elec       q    Type
REMARK                         _______ _______ _______ _____ _____    ______ ____
ROOT
ATOM      1  N   LIG    1       -2.954  -2.339   0.018  0.00  0.00    -0.500 N 
ATOM      2  H   LIG    1       -3.700  -1.719   0.028  0.00  0.00    +0.440 HD
ATOM      3  C   LIG    1       -3.183  -3.667   0.013  0.00  0.00    +0.600 C 
ATOM      4  O   LIG    1       -2.248  -4.445  -0.000  0.00  0.00    -0.520 OA
ENDROOT
BRANCH   3   5
ATOM      5  C   LIG    1       -4.568  -4.178   0.023  0.00  0.00    +0.060 A 
ATOM      6  N   LIG    1       -5.581  -3.347   0.037  0.00  0.00    -0.190 NA
ATOM      7  N   LIG    1       -6.809  -3.708   0.047  0.00  0.00    -0.360 N 
ATOM      8  C   LIG    1       -7.206  -4.997   0.045  0.00  0.00    +0.520 A 
ATOM      9  C   LIG    1       -6.178  -6.046   0.029  0.00  0.00    -0.140 A 
ATOM     10  C   LIG    1       -6.483  -7.404   0.025  0.00  0.00    +0.090 A 
ATOM     11  C   LIG    1       -5.459  -8.326   0.010  0.00  0.00    +0.030 A 
ATOM     12  C   LIG    1       -4.133  -7.915  -0.001  0.00  0.00    +0.060 A 
ATOM     13  C   LIG    1       -3.809  -6.574   0.003  0.00  0.00    +0.070 A 
ATOM     14  O   LIG    1       -8.389  -5.284   0.055  0.00  0.00    -0.490 OA
ATOM     15  C   LIG    1       -7.838  -2.665   0.063  0.00  0.00    +0.360 C 
ATOM     16  C   LIG    1       -4.827  -5.627   0.012  0.00  0.00    -0.030 A 
ENDBRANCH   3   5
BRANCH   1  18
ATOM     17  C   LIG    1       -1.412  -0.526   0.013  0.00  0.00    +0.520 C 
ATOM     18  N   LIG    1       -1.640  -1.854   0.008  0.00  0.00    -0.520 N 
ATOM     19  H   LIG    1       -0.894  -2.474  -0.003  0.00  0.00    +0.440 HD
ATOM     20  O   LIG    1       -2.344   0.250   0.026  0.00  0.00    -0.510 OA
BRANCH  17  21
ATOM     21  C   LIG    1        0.002  -0.004   0.002  0.00  0.00    +0.250 C 
BRANCH  21  22
ATOM     22  O   LIG    1       -0.017   1.425   0.010  0.00  0.00    -0.290 OA
BRANCH  22  29
ATOM     23  C   LIG    1       -0.034   4.250   0.013  0.00  0.00    +0.100 C 
ATOM     24  C   LIG    1        1.240   3.445   0.003  0.00  0.00    -0.110 A 
ATOM     25  C   LIG    1        2.463   4.086   0.001  0.00  0.00    +0.050 A 
ATOM     26  C   LIG    1        3.633   3.348  -0.015  0.00  0.00    -0.020 A 
ATOM     27  C   LIG    1        3.580   1.966  -0.021  0.00  0.00    +0.040 A 
ATOM     28  C   LIG    1        2.359   1.320  -0.013  0.00  0.00    -0.080 A 
ATOM     29  C   LIG    1        1.185   2.058   0.002  0.00  0.00    +0.120 A 
ENDBRANCH  22  29
ENDBRANCH  21  22
ENDBRANCH  17  21
ENDBRANCH   1  18
TORSDOF 5
