REMARK  Name = ZINCrD00000hQ53U.0
REMARK                            x       y       z     vdW  Elec       q    Type
REMARK                         _______ _______ _______ _____ _____    ______ ____
ROOT
ATOM      1  C   LIG    1       -1.657   1.732   4.762  0.00  0.00    +0.340 C 
ATOM      2  C   LIG    1       -3.023   1.073   5.044  0.00  0.00    +0.060 C 
ATOM      3  C   LIG    1       -3.525   1.836   6.298  0.00  0.00    +0.040 C 
ATOM      4  C   LIG    1       -2.988   3.264   6.029  0.00  0.00    +0.280 C 
ATOM      5  N   LIG    1       -1.670   3.059   5.395  0.00  0.00    -0.990 NA
ENDROOT
BRANCH   1   8
ATOM      6  C   LIG    1        0.259   0.052   2.992  0.00  0.00    +0.320 C 
ATOM      7  N   LIG    1       -0.612   1.132   2.520  0.00  0.00    -0.440 N 
ATOM      8  C   LIG    1       -1.454   1.875   3.276  0.00  0.00    +0.160 A 
ATOM      9  N   LIG    1       -2.061   2.738   2.503  0.00  0.00    -0.450 NA
ATOM     10  C   LIG    1       -1.635   2.578   1.248  0.00  0.00    +0.010 A 
ATOM     11  C   LIG    1       -2.053   3.347   0.019  0.00  0.00    +0.110 C 
ATOM     12  C   LIG    1       -1.014   3.103  -1.083  0.00  0.00    +0.010 C 
ATOM     13  C   LIG    1       -0.765   1.599  -1.226  0.00  0.00    +0.030 C 
ATOM     14  C   LIG    1       -0.013   1.086   0.008  0.00  0.00    +0.110 C 
ATOM     15  C   LIG    1       -0.728   1.577   1.240  0.00  0.00    -0.020 A 
ENDBRANCH   1   8
BRANCH   5  16
ATOM     16  S   LIG    1       -0.416   4.141   5.394  0.00  0.00    +2.710 S 
ATOM     17  O   LIG    1        0.769   3.382   5.194  0.00  0.00    -0.950 OA
ATOM     18  O   LIG    1       -0.616   4.987   6.518  0.00  0.00    -0.940 OA
BRANCH  16  19
ATOM     19  C   LIG    1       -0.603   5.157   3.967  0.00  0.00    -0.630 A 
ATOM     20  C   LIG    1       -0.007   4.785   2.774  0.00  0.00    +0.150 A 
ATOM     21  C   LIG    1       -0.153   5.572   1.651  0.00  0.00    +0.070 A 
ATOM     22  C   LIG    1       -0.896   6.752   1.721  0.00  0.00    +0.040 A 
ATOM     23  C   LIG    1       -1.492   7.125   2.930  0.00  0.00    -0.020 A 
ATOM     24 CL   LIG    1       -2.417   8.590   3.029  0.00  0.00    -0.040 Cl
ATOM     25  C   LIG    1       -1.341   6.324   4.045  0.00  0.00    +0.160 A 
BRANCH  22  26
ATOM     26  C   LIG    1       -1.047   7.577   0.560  0.00  0.00    +0.240 C 
ATOM     27  N   LIG    1       -1.167   8.232  -0.360  0.00  0.00    -0.370 NA
ENDBRANCH  22  26
ENDBRANCH  16  19
ENDBRANCH   5  16
TORSDOF 4
