REMARK  Name = ZINCrD00000F5LF6.0
REMARK                            x       y       z     vdW  Elec       q    Type
REMARK                         _______ _______ _______ _____ _____    ______ ____
ROOT
ATOM      1  N   LIG    1       -0.539  -0.099   0.534  0.00  0.00    -0.600 N 
ATOM      2  C   LIG    1       -1.598  -0.830   0.132  0.00  0.00    +0.530 C 
ATOM      3  O   LIG    1       -1.765  -1.947   0.573  0.00  0.00    -0.500 OA
ENDROOT
BRANCH   2   4
ATOM      4  C   LIG    1       -2.573  -0.259  -0.865  0.00  0.00    +0.100 C 
ATOM      5  C   LIG    1       -1.825   0.142  -2.138  0.00  0.00    +0.040 C 
ATOM      6  C   LIG    1       -3.254   0.973  -0.265  0.00  0.00    +0.040 C 
BRANCH   4   7
ATOM      7  O   LIG    1       -3.560  -1.242  -1.183  0.00  0.00    -0.340 OA
BRANCH   7   8
ATOM      8  C   LIG    1       -4.539  -0.800  -2.125  0.00  0.00    +0.180 C 
BRANCH   8   9
ATOM      9  C   LIG    1       -5.539  -1.927  -2.389  0.00  0.00    +0.180 C 
ATOM     10 CL   LIG    1       -6.458  -2.280  -0.878  0.00  0.00    -0.170 Cl
ENDBRANCH   8   9
ENDBRANCH   7   8
ENDBRANCH   4   7
ENDBRANCH   2   4
BRANCH   1  11
ATOM     11  C   LIG    1        0.484  -0.702   1.391  0.00  0.00    +0.300 C 
BRANCH  11  13
ATOM     12  C   LIG    1       -1.176  -1.067   3.223  0.00  0.00    +0.020 C 
ATOM     13  C   LIG    1        0.157  -0.411   2.858  0.00  0.00    -0.030 C 
BRANCH  13  14
ATOM     14  C   LIG    1        1.265  -0.976   3.749  0.00  0.00    -0.010 C 
ATOM     15  C   LIG    1        1.323  -0.331   5.144  0.00  0.00    +0.000 C 
ATOM     16  C   LIG    1        2.856  -0.370   5.010  0.00  0.00    +0.010 C 
ATOM     17  C   LIG    1        2.646  -0.352   3.486  0.00  0.00    +0.010 C 
ENDBRANCH  13  14
ENDBRANCH  11  13
ENDBRANCH   1  11
BRANCH   1  18
ATOM     18  C   LIG    1       -0.412   1.299   0.114  0.00  0.00    +0.350 C 
BRANCH  18  19
ATOM     19  C   LIG    1       -0.569   2.200   1.312  0.00  0.00    -0.280 A 
ATOM     20  C   LIG    1       -1.825   2.482   1.827  0.00  0.00    +0.360 A 
ATOM     21  N   LIG    1       -1.926   3.272   2.883  0.00  0.00    -0.560 NA
ATOM     22  C   LIG    1       -0.847   3.800   3.440  0.00  0.00    +0.560 A 
ATOM     23  N   LIG    1        0.367   3.556   2.969  0.00  0.00    -0.560 NA
ATOM     24  C   LIG    1        0.539   2.770   1.919  0.00  0.00    +0.370 A 
BRANCH  22  25
ATOM     25  N   LIG    1       -0.990   4.627   4.540  0.00  0.00    -0.590 N 
ATOM     26  C   LIG    1       -2.325   4.909   5.076  0.00  0.00    +0.300 C 
ATOM     27  C   LIG    1        0.192   5.221   5.170  0.00  0.00    +0.310 C 
ENDBRANCH  22  25
ENDBRANCH  18  19
ENDBRANCH   1  18
TORSDOF 10
