REMARK  Name = ZINCrH000004tLO0.0
REMARK                            x       y       z     vdW  Elec       q    Type
REMARK                         _______ _______ _______ _____ _____    ______ ____
ROOT
ATOM      1  O   LIG    1        0.466   7.655   1.145  0.00  0.00    -0.520 OA
ATOM      2  C   LIG    1        1.372   7.053   0.609  0.00  0.00    +0.510 C 
ATOM      3  N   LIG    1        1.135   5.863   0.021  0.00  0.00    -0.720 N 
ATOM      4  H   LIG    1        1.859   5.381  -0.408  0.00  0.00    +0.410 HD
ENDROOT
BRANCH   3   5
ATOM      5  C   LIG    1       -0.217   5.298   0.031  0.00  0.00    +0.360 C 
BRANCH   5   6
ATOM      6  C   LIG    1       -0.995   5.837  -1.141  0.00  0.00    -0.080 A 
ATOM      7  C   LIG    1       -0.378   5.992  -2.368  0.00  0.00    +0.060 A 
ATOM      8  C   LIG    1       -1.093   6.482  -3.445  0.00  0.00    +0.020 A 
ATOM      9  C   LIG    1       -2.423   6.826  -3.293  0.00  0.00    +0.020 A 
ATOM     10  C   LIG    1       -3.040   6.676  -2.064  0.00  0.00    -0.040 A 
ATOM     11 CL   LIG    1       -4.710   7.108  -1.872  0.00  0.00    -0.070 Cl
ATOM     12  C   LIG    1       -2.325   6.181  -0.988  0.00  0.00    +0.040 A 
ENDBRANCH   5   6
BRANCH   5  13
ATOM     13  C   LIG    1       -0.134   3.796  -0.069  0.00  0.00    +0.110 A 
ATOM     14  C   LIG    1       -0.607   3.016   0.969  0.00  0.00    -0.010 A 
ATOM     15  C   LIG    1       -0.526   1.635   0.867  0.00  0.00    +0.070 A 
ATOM     16  C   LIG    1        0.030   1.089  -0.280  0.00  0.00    -0.030 A 
ATOM     17  C   LIG    1        0.487   1.934  -1.274  0.00  0.00    +0.260 A 
ATOM     18  N   LIG    1        0.390   3.243  -1.145  0.00  0.00    -0.470 NA
ENDBRANCH   5  13
ENDBRANCH   3   5
BRANCH   2  19
ATOM     19  C   LIG    1        2.762   7.634   0.599  0.00  0.00    +0.300 C 
BRANCH  19  20
ATOM     20  N   LIG    1        2.757   8.923   1.296  0.00  0.00    -0.580 N 
ATOM     21  C   LIG    1        3.024   8.790   2.713  0.00  0.00    +0.270 C 
ATOM     22  C   LIG    1        3.010  10.147   3.424  0.00  0.00    +0.020 C 
ATOM     23  C   LIG    1        4.355  10.843   3.203  0.00  0.00    +0.010 C 
ATOM     24  C   LIG    1        4.646  11.032   1.728  0.00  0.00    +0.000 C 
ATOM     25  C   LIG    1        3.621  12.027   1.194  0.00  0.00    +0.030 C 
ATOM     26  C   LIG    1        2.268  11.348   0.971  0.00  0.00    +0.060 C 
ATOM     27  C   LIG    1        2.515   9.937   0.486  0.00  0.00    +0.540 C 
ATOM     28  O   LIG    1        2.486   9.726  -0.708  0.00  0.00    -0.550 OA
ENDBRANCH  19  20
ENDBRANCH   2  19
TORSDOF 5
