REMARK  Name = ZINCvU0000000AIr.0
REMARK                            x       y       z     vdW  Elec       q    Type
REMARK                         _______ _______ _______ _____ _____    ______ ____
ROOT
ATOM      1  N   LIG    1        2.930   3.365  -0.251  0.00  0.00    -0.660 N 
ATOM      2  H   LIG    1        3.573   2.940  -0.840  0.00  0.00    +0.410 HD
ATOM      3  C   LIG    1        3.059   4.671   0.057  0.00  0.00    +0.580 C 
ATOM      4  O   LIG    1        2.281   5.192   0.832  0.00  0.00    -0.500 OA
ENDROOT
BRANCH   1  11
ATOM      5  C   LIG    1        3.487   0.766   0.757  0.00  0.00    +0.100 C 
ATOM      6  C   LIG    1        2.099   1.352   0.781  0.00  0.00    -0.110 A 
ATOM      7  C   LIG    1        1.051   0.622   1.304  0.00  0.00    +0.050 A 
ATOM      8  C   LIG    1       -0.230   1.149   1.326  0.00  0.00    +0.000 A 
ATOM      9  C   LIG    1       -0.470   2.414   0.835  0.00  0.00    +0.050 A 
ATOM     10  C   LIG    1        0.580   3.166   0.302  0.00  0.00    -0.120 A 
ATOM     11  C   LIG    1        1.875   2.627   0.277  0.00  0.00    +0.190 A 
BRANCH  10  12
ATOM     12  C   LIG    1        0.329   4.518  -0.230  0.00  0.00    +0.600 C 
ATOM     13  N   LIG    1       -0.328   5.426   0.518  0.00  0.00    -0.600 N 
ATOM     14  C   LIG    1       -0.952   5.170   1.824  0.00  0.00    +0.240 C 
ATOM     15  C   LIG    1       -1.603   6.490   2.289  0.00  0.00    +0.030 C 
ATOM     16  C   LIG    1       -1.803   7.263   0.959  0.00  0.00    +0.030 C 
ATOM     17  C   LIG    1       -0.544   6.840   0.161  0.00  0.00    +0.260 C 
ATOM     18  O   LIG    1        0.715   4.814  -1.345  0.00  0.00    -0.550 OA
ENDBRANCH  10  12
ENDBRANCH   1  11
BRANCH   3  19
ATOM     19  C   LIG    1        4.145   5.468  -0.547  0.00  0.00    -0.190 A 
ATOM     20  C   LIG    1        5.017   4.890  -1.480  0.00  0.00    +0.110 A 
ATOM     21  C   LIG    1        6.018   5.675  -2.017  0.00  0.00    -0.030 A 
ATOM     22  C   LIG    1        6.127   7.007  -1.618  0.00  0.00    +0.200 A 
ATOM     23  N   LIG    1        5.285   7.523  -0.731  0.00  0.00    -0.480 NA
ATOM     24  C   LIG    1        4.315   6.811  -0.201  0.00  0.00    +0.210 A 
ATOM     25  C   LIG    1        3.381   7.448   0.796  0.00  0.00    +0.140 C 
BRANCH  22  26
ATOM     26  C   LIG    1        7.199   7.856  -2.190  0.00  0.00    -0.050 A 
ATOM     27  C   LIG    1        7.319   9.189  -1.799  0.00  0.00    +0.080 A 
ATOM     28  C   LIG    1        8.318   9.976  -2.334  0.00  0.00    +0.020 A 
ATOM     29  C   LIG    1        9.201   9.444  -3.257  0.00  0.00    +0.070 A 
ATOM     30  C   LIG    1        9.087   8.121  -3.650  0.00  0.00    -0.100 A 
ATOM     31 BR   LIG    1       10.299   7.404  -4.911  0.00  0.00    -0.040 Br
ATOM     32  C   LIG    1        8.094   7.324  -3.117  0.00  0.00    +0.070 A 
ENDBRANCH  22  26
ENDBRANCH   3  19
TORSDOF 4
