REMARK  Name = ZINCqH0000000kGQ.0
REMARK                            x       y       z     vdW  Elec       q    Type
REMARK                         _______ _______ _______ _____ _____    ______ ____
ROOT
ATOM      1  C   LIG    1        2.625  -1.244  -0.030  0.00  0.00    +0.370 C 
ENDROOT
BRANCH   1   2
ATOM      2  C   LIG    1        2.725  -1.805   1.365  0.00  0.00    -0.100 A 
ATOM      3  C   LIG    1        1.696  -2.569   1.881  0.00  0.00    +0.010 A 
ATOM      4  C   LIG    1        1.795  -3.081   3.158  0.00  0.00    +0.010 A 
ATOM      5  C   LIG    1        2.918  -2.825   3.935  0.00  0.00    -0.070 A 
ATOM      6  C   LIG    1        2.953  -3.398   5.328  0.00  0.00    +0.080 C 
ATOM      7  C   LIG    1        4.381  -3.409   5.868  0.00  0.00    +0.020 C 
ATOM      8  C   LIG    1        4.976  -2.007   5.691  0.00  0.00    +0.020 C 
ATOM      9  C   LIG    1        5.197  -1.762   4.200  0.00  0.00    +0.080 C 
ATOM     10  C   LIG    1        3.944  -2.064   3.421  0.00  0.00    -0.070 A 
ATOM     11  C   LIG    1        3.843  -1.552   2.134  0.00  0.00    +0.020 A 
ENDBRANCH   1   2
BRANCH   1  12
ATOM     12  C   LIG    1        1.761  -0.010  -0.015  0.00  0.00    -0.190 A 
ATOM     13  C   LIG    1        2.212   1.245  -0.012  0.00  0.00    +0.020 A 
ATOM     14  C   LIG    1        1.229   2.219   0.002  0.00  0.00    +0.010 A 
ATOM     15  C   LIG    1       -0.022   1.755   0.012  0.00  0.00    -0.050 A 
ATOM     16  S   LIG    1        0.002  -0.004   0.002  0.00  0.00    +0.110 S 
ENDBRANCH   1  12
BRANCH   1  18
ATOM     17  C   LIG    1        2.283  -2.210  -2.241  0.00  0.00    +0.530 C 
ATOM     18  N   LIG    1        2.030  -2.246  -0.918  0.00  0.00    -0.730 N 
ATOM     19  H   LIG    1        1.454  -2.936  -0.553  0.00  0.00    +0.400 HD
ATOM     20  O   LIG    1        3.004  -1.347  -2.697  0.00  0.00    -0.520 OA
BRANCH  17  21
ATOM     21  C   LIG    1        1.671  -3.241  -3.154  0.00  0.00    +0.080 C 
BRANCH  21  22
ATOM     22  C   LIG    1        2.115  -2.975  -4.594  0.00  0.00    -0.310 C 
BRANCH  22  23
ATOM     23  S   LIG    1        1.378  -4.216  -5.693  0.00  0.00    +2.490 S 
ATOM     24  O   LIG    1       -0.029  -4.034  -5.778  0.00  0.00    -0.930 OA
ATOM     25  O   LIG    1        1.937  -5.498  -5.443  0.00  0.00    -0.940 OA
BRANCH  23  27
ATOM     26  C   LIG    1        2.763  -4.608  -7.941  0.00  0.00    +0.230 C 
ATOM     27  C   LIG    1        1.969  -3.789  -7.297  0.00  0.00    -0.570 C 
ENDBRANCH  23  27
ENDBRANCH  22  23
ENDBRANCH  21  22
ENDBRANCH  17  21
ENDBRANCH   1  18
TORSDOF 7
