REMARK  Name = ZINCpe00000R9fBQ.0
REMARK                            x       y       z     vdW  Elec       q    Type
REMARK                         _______ _______ _______ _____ _____    ______ ____
ROOT
ATOM      1  C   LIG    1       -1.615   2.896   4.110  0.00  0.00    +0.240 A 
ATOM      2  C   LIG    1       -0.315   2.427   3.970  0.00  0.00    -0.040 A 
ATOM      3  C   LIG    1        0.167   2.096   2.719  0.00  0.00    +0.190 A 
ATOM      4  C   LIG    1       -0.642   2.232   1.606  0.00  0.00    -0.680 A 
ATOM      5  C   LIG    1       -1.935   2.704   1.741  0.00  0.00    +0.250 A 
ATOM      6  C   LIG    1       -2.426   3.031   2.990  0.00  0.00    -0.660 A 
ENDROOT
BRANCH   1  13
ATOM      7  C   LIG    1        0.423   5.235   7.167  0.00  0.00    +0.160 C 
ATOM      8  C   LIG    1       -0.883   5.828   7.739  0.00  0.00    +0.040 C 
ATOM      9  C   LIG    1       -1.984   4.832   7.275  0.00  0.00    +0.190 C 
ATOM     10  O   LIG    1       -1.899   3.692   8.134  0.00  0.00    -0.360 OA
ATOM     11  C   LIG    1       -2.561   2.522   7.657  0.00  0.00    +0.240 C 
ATOM     12  C   LIG    1       -1.930   2.119   6.319  0.00  0.00    +0.170 C 
ATOM     13  N   LIG    1       -2.106   3.230   5.374  0.00  0.00    -0.520 N 
ATOM     14  C   LIG    1       -1.511   4.467   5.854  0.00  0.00    +0.180 C 
ATOM     15  C   LIG    1        0.018   4.364   5.962  0.00  0.00    +0.010 C 
BRANCH   7  17
ATOM     16  C   LIG    1        2.041   5.138   8.932  0.00  0.00    +0.200 C 
ATOM     17  O   LIG    1        1.071   4.432   8.155  0.00  0.00    -0.370 OA
ENDBRANCH   7  17
ENDBRANCH   1  13
BRANCH   4  18
ATOM     18  S   LIG    1       -0.023   1.810   0.012  0.00  0.00    +2.500 S 
ATOM     19  O   LIG    1       -0.789   2.604  -0.883  0.00  0.00    -0.930 OA
ATOM     20  O   LIG    1        1.383   1.982   0.125  0.00  0.00    -0.930 OA
ATOM     21  C   LIG    1       -0.435   0.054  -0.183  0.00  0.00    -0.250 C 
ENDBRANCH   4  18
BRANCH   6  22
ATOM     22  S   LIG    1       -4.075   3.626   3.162  0.00  0.00    +2.510 S 
ATOM     23  O   LIG    1       -4.578   3.655   1.833  0.00  0.00    -0.940 OA
ATOM     24  O   LIG    1       -3.940   4.820   3.920  0.00  0.00    -0.920 OA
ATOM     25  C   LIG    1       -4.918   2.347   4.134  0.00  0.00    -0.240 C 
ENDBRANCH   6  22
TORSDOF 4
