REMARK  Name = ZINCpe00000gMD61.0
REMARK                            x       y       z     vdW  Elec       q    Type
REMARK                         _______ _______ _______ _____ _____    ______ ____
ROOT
ATOM      1  C   LIG    1        0.331   0.630   0.062  0.00  0.00    +0.230 C 
ATOM      2  C   LIG    1        1.653   1.396  -0.015  0.00  0.00    +0.030 C 
ATOM      3  C   LIG    1        2.326   1.121  -1.362  0.00  0.00    +0.030 C 
ATOM      4  C   LIG    1        1.416   1.613  -2.492  0.00  0.00    +0.260 C 
ATOM      5  N   LIG    1        0.095   0.989  -2.340  0.00  0.00    -0.620 N 
ATOM      6  C   LIG    1       -0.469   0.315  -3.362  0.00  0.00    +0.710 C 
ATOM      7  N   LIG    1        0.132   0.295  -4.568  0.00  0.00    -0.670 N 
ATOM      8  H   LIG    1        1.004   0.704  -4.683  0.00  0.00    +0.420 HD
ATOM      9  O   LIG    1       -1.519  -0.274  -3.195  0.00  0.00    -0.560 OA
ATOM     10  C   LIG    1       -0.602   1.116  -1.052  0.00  0.00    +0.310 C 
ENDROOT
BRANCH   7  11
ATOM     11  C   LIG    1       -0.503  -0.318  -5.656  0.00  0.00    +0.140 A 
ATOM     12  C   LIG    1       -1.867  -0.581  -5.620  0.00  0.00    +0.090 A 
ATOM     13  C   LIG    1       -2.451  -1.189  -6.722  0.00  0.00    +0.000 A 
ATOM     14  C   LIG    1       -1.667  -1.512  -7.812  0.00  0.00    +0.270 A 
ATOM     15  N   LIG    1       -0.374  -1.250  -7.820  0.00  0.00    -0.480 NA
ATOM     16  C   LIG    1        0.224  -0.668  -6.795  0.00  0.00    +0.320 A 
BRANCH  16  17
ATOM     17  N   LIG    1        1.597  -0.405  -6.850  0.00  0.00    -0.320 N 
ATOM     18  C   LIG    1        2.508  -1.065  -7.610  0.00  0.00    +0.270 A 
ATOM     19  C   LIG    1        3.718  -0.507  -7.375  0.00  0.00    -0.110 A 
ATOM     20  C   LIG    1        3.545   0.524  -6.446  0.00  0.00    +0.280 A 
ATOM     21  N   LIG    1        2.276   0.590  -6.135  0.00  0.00    -0.320 NA
ENDBRANCH  16  17
ENDBRANCH   7  11
BRANCH   1  22
ATOM     22  N   LIG    1       -0.297   0.868   1.364  0.00  0.00    -1.110 NA
ATOM     23  H   LIG    1       -0.209   1.733   1.794  0.00  0.00    +0.420 HD
BRANCH  22  25
ATOM     24  C   LIG    1        0.079  -1.619   2.463  0.00  0.00    -0.280 C 
ATOM     25  S   LIG    1       -1.156  -0.340   2.103  0.00  0.00    +2.610 S 
ATOM     26  O   LIG    1       -2.061  -0.787   1.103  0.00  0.00    -0.950 OA
ATOM     27  O   LIG    1       -1.628   0.251   3.306  0.00  0.00    -0.960 OA
ENDBRANCH  22  25
ENDBRANCH   1  22
TORSDOF 4
