REMARK  Name = ZINCpe00000VVH7g.0
REMARK                            x       y       z     vdW  Elec       q    Type
REMARK                         _______ _______ _______ _____ _____    ______ ____
ROOT
ATOM      1  O   LIG    1       -1.087   5.952   0.045  0.00  0.00    -0.490 OA
ATOM      2  C   LIG    1       -0.051   5.316   0.032  0.00  0.00    +0.570 A 
ATOM      3  N   LIG    1        1.146   5.941   0.024  0.00  0.00    -0.660 N 
ATOM      4  H   LIG    1        1.177   6.911   0.030  0.00  0.00    +0.430 HD
ATOM      5  C   LIG    1        2.295   5.247   0.009  0.00  0.00    +0.700 A 
ATOM      6  N   LIG    1        2.334   3.903   0.001  0.00  0.00    -0.540 N 
ATOM      7  C   LIG    1        1.161   3.162   0.008  0.00  0.00    +0.200 A 
ATOM      8  C   LIG    1        1.178   1.776   0.000  0.00  0.00    -0.030 A 
ATOM      9  C   LIG    1       -0.013   1.076   0.008  0.00  0.00    +0.100 A 
ATOM     10  C   LIG    1       -1.226   1.746   0.017  0.00  0.00    -0.010 A 
ATOM     11  C   LIG    1       -1.262   3.125   0.031  0.00  0.00    +0.140 A 
ATOM     12  O   LIG    1        3.345   5.859   0.003  0.00  0.00    -0.540 OA
ATOM     13  C   LIG    1       -0.069   3.842   0.023  0.00  0.00    -0.200 A 
ENDROOT
BRANCH   6  14
ATOM     14  C   LIG    1        3.627   3.215  -0.014  0.00  0.00    +0.350 C 
BRANCH  14  15
ATOM     15  C   LIG    1        4.064   2.983  -1.462  0.00  0.00    +0.040 C 
BRANCH  15  16
ATOM     16  C   LIG    1        5.394   2.275  -1.478  0.00  0.00    +0.530 C 
ATOM     17  N   LIG    1        5.979   1.965  -2.652  0.00  0.00    -0.610 N 
ATOM     18  C   LIG    1        5.362   2.286  -3.960  0.00  0.00    +0.250 C 
ATOM     19  C   LIG    1        6.379   2.970  -4.880  0.00  0.00    +0.220 C 
ATOM     20  O   LIG    1        7.651   2.296  -4.864  0.00  0.00    -0.360 OA
ATOM     21  C   LIG    1        8.178   2.232  -3.560  0.00  0.00    +0.130 C 
ATOM     22  C   LIG    1        9.568   1.656  -3.344  0.00  0.00    +0.050 C 
ATOM     23  C   LIG    1        9.524   1.008  -1.936  0.00  0.00    +0.010 C 
ATOM     24  C   LIG    1        8.053   1.142  -1.430  0.00  0.00    +0.060 C 
ATOM     25  C   LIG    1        7.264   1.281  -2.735  0.00  0.00    +0.190 C 
ATOM     26  O   LIG    1        5.939   1.985  -0.434  0.00  0.00    -0.530 OA
ENDBRANCH  15  16
ENDBRANCH  14  15
ENDBRANCH   6  14
TORSDOF 3
