REMARK  Name = ZINCrD00000hQ55h.0
REMARK                            x       y       z     vdW  Elec       q    Type
REMARK                         _______ _______ _______ _____ _____    ______ ____
ROOT
ATOM      1  C   LIG    1        3.998   2.801   1.364  0.00  0.00    +0.030 C 
ATOM      2  C   LIG    1        3.500   2.478  -0.046  0.00  0.00    +0.010 C 
ATOM      3  C   LIG    1        2.658   3.649  -0.617  0.00  0.00    +0.040 C 
ATOM      4  C   LIG    1        1.269   3.367   0.002  0.00  0.00    +0.240 C 
ATOM      5  N   LIG    1        1.143   1.898   0.001  0.00  0.00    -0.610 N 
ATOM      6  C   LIG    1       -0.014   1.209   0.009  0.00  0.00    +0.540 C 
ATOM      7  O   LIG    1        0.002  -0.004   0.002  0.00  0.00    -0.520 OA
ATOM      8  C   LIG    1        2.491   1.310  -0.015  0.00  0.00    +0.270 C 
ENDROOT
BRANCH   8   9
ATOM      9  C   LIG    1        2.704   0.482   1.226  0.00  0.00    -0.050 A 
ATOM     10  C   LIG    1        2.208   0.918   2.441  0.00  0.00    +0.010 A 
ATOM     11  C   LIG    1        2.398   0.157   3.579  0.00  0.00    +0.040 A 
ATOM     12  C   LIG    1        3.093  -1.034   3.507  0.00  0.00    -0.020 A 
ATOM     13  C   LIG    1        3.596  -1.469   2.291  0.00  0.00    +0.100 A 
ATOM     14  F   LIG    1        4.276  -2.634   2.219  0.00  0.00    -0.140 F 
ATOM     15  C   LIG    1        3.400  -0.709   1.151  0.00  0.00    -0.010 A 
ENDBRANCH   8   9
BRANCH   6  16
ATOM     16  C   LIG    1       -1.330   1.944   0.019  0.00  0.00    +0.000 C 
ATOM     17  C   LIG    1       -1.550   2.701  -1.311  0.00  0.00    +0.080 C 
ATOM     18  C   LIG    1       -3.034   2.563  -1.575  0.00  0.00    +0.520 C 
ATOM     19  N   LIG    1       -3.549   1.583  -0.813  0.00  0.00    -0.620 N 
ATOM     20  O   LIG    1       -3.666   3.239  -2.359  0.00  0.00    -0.520 OA
ATOM     21  C   LIG    1       -2.516   0.955   0.019  0.00  0.00    +0.310 C 
BRANCH  19  22
ATOM     22  C   LIG    1       -4.961   1.191  -0.814  0.00  0.00    +0.430 C 
BRANCH  22  23
ATOM     23  C   LIG    1       -5.707   1.996   0.218  0.00  0.00    -0.050 A 
ATOM     24  C   LIG    1       -6.308   3.181   0.009  0.00  0.00    -0.030 A 
ATOM     25  C   LIG    1       -6.880   3.574   1.240  0.00  0.00    -0.070 A 
ATOM     26  C   LIG    1       -6.595   2.605   2.129  0.00  0.00    +0.170 A 
ATOM     27  O   LIG    1       -5.889   1.649   1.503  0.00  0.00    -0.170 OA
ENDBRANCH  22  23
ENDBRANCH  19  22
ENDBRANCH   6  16
TORSDOF 4
