REMARK  Name = ZINCrD000000C2Pn.0
REMARK                            x       y       z     vdW  Elec       q    Type
REMARK                         _______ _______ _______ _____ _____    ______ ____
ROOT
ATOM      1  C   LIG    1       -0.959   8.028   0.113  0.00  0.00    +0.200 A 
ATOM      2  C   LIG    1       -2.120   7.280   0.256  0.00  0.00    +0.010 A 
ATOM      3  C   LIG    1       -3.339   7.917   0.384  0.00  0.00    +0.150 A 
ATOM      4  C   LIG    1       -3.405   9.298   0.360  0.00  0.00    -0.690 A 
ATOM      5  C   LIG    1       -2.251  10.046   0.213  0.00  0.00    +0.150 A 
ATOM      6  C   LIG    1       -1.029   9.415   0.089  0.00  0.00    -0.020 A 
ENDROOT
BRANCH   1   9
ATOM      7  O   LIG    1       -0.372   5.727   1.316  0.00  0.00    -0.480 OA
ATOM      8  C   LIG    1        0.516   6.245   0.664  0.00  0.00    +0.610 C 
ATOM      9  N   LIG    1        0.278   7.387  -0.012  0.00  0.00    -0.660 N 
ATOM     10  H   LIG    1        0.964   7.763  -0.585  0.00  0.00    +0.420 HD
BRANCH   8  11
ATOM     11  C   LIG    1        1.846   5.627   0.615  0.00  0.00    -0.070 A 
ATOM     12  C   LIG    1        2.809   5.647   1.618  0.00  0.00    +0.110 A 
ATOM     13  O   LIG    1        3.865   4.954   1.145  0.00  0.00    -0.180 OA
ATOM     14  C   LIG    1        3.570   4.532  -0.094  0.00  0.00    +0.450 A 
ATOM     15  N   LIG    1        2.377   4.926  -0.423  0.00  0.00    -0.450 NA
BRANCH  12  16
ATOM     16  C   LIG    1        2.696   6.288   2.931  0.00  0.00    -0.170 A 
ATOM     17  S   LIG    1        1.351   7.289   3.463  0.00  0.00    +0.190 S 
ATOM     18  C   LIG    1        2.111   7.535   5.029  0.00  0.00    -0.020 A 
ATOM     19  C   LIG    1        3.284   6.893   5.075  0.00  0.00    +0.010 A 
ATOM     20  C   LIG    1        3.619   6.202   3.934  0.00  0.00    +0.070 A 
ENDBRANCH  12  16
ENDBRANCH   8  11
ENDBRANCH   1   9
BRANCH   4  21
ATOM     21  S   LIG    1       -4.963  10.106   0.518  0.00  0.00    +2.700 S 
ATOM     22  O   LIG    1       -4.689  11.413   1.005  0.00  0.00    -0.960 OA
ATOM     23  O   LIG    1       -5.823   9.192   1.184  0.00  0.00    -0.950 OA
BRANCH  21  24
ATOM     24  N   LIG    1       -5.573  10.295  -1.010  0.00  0.00    -1.110 NA
ATOM     25  H   LIG    1       -5.695  11.185  -1.377  0.00  0.00    +0.420 HD
BRANCH  24  26
ATOM     26  C   LIG    1       -5.930   9.119  -1.807  0.00  0.00    +0.300 C 
BRANCH  26  27
ATOM     27  C   LIG    1       -6.798   9.549  -2.991  0.00  0.00    -0.060 C 
ATOM     28  C   LIG    1       -8.232   9.020  -3.045  0.00  0.00    +0.020 C 
ATOM     29  C   LIG    1       -7.179   8.477  -4.014  0.00  0.00    +0.030 C 
ENDBRANCH  26  27
ENDBRANCH  24  26
ENDBRANCH  21  24
ENDBRANCH   4  21
TORSDOF 7
