REMARK  Name = ZINCqH0000034FrW.0
REMARK                            x       y       z     vdW  Elec       q    Type
REMARK                         _______ _______ _______ _____ _____    ______ ____
ROOT
ATOM      1  C   LIG    1        4.071   5.029  -1.442  0.00  0.00    +0.240 C 
ENDROOT
BRANCH   1   2
ATOM      2  C   LIG    1        4.319   5.447  -2.868  0.00  0.00    -0.190 A 
ATOM      3  C   LIG    1        5.160   4.709  -3.687  0.00  0.00    +0.330 A 
ATOM      4  N   LIG    1        5.352   5.101  -4.935  0.00  0.00    -0.510 NA
ATOM      5  C   LIG    1        4.759   6.191  -5.402  0.00  0.00    +0.360 A 
ATOM      6  N   LIG    1        3.953   6.921  -4.644  0.00  0.00    -0.510 NA
ATOM      7  C   LIG    1        3.714   6.582  -3.389  0.00  0.00    +0.350 A 
BRANCH   5   8
ATOM      8  C   LIG    1        5.003   6.603  -6.806  0.00  0.00    -0.050 A 
ATOM      9  C   LIG    1        4.385   7.742  -7.317  0.00  0.00    +0.090 A 
ATOM     10  C   LIG    1        4.619   8.125  -8.622  0.00  0.00    +0.020 A 
ATOM     11  C   LIG    1        5.458   7.372  -9.426  0.00  0.00    -0.020 A 
ATOM     12  C   LIG    1        6.071   6.236  -8.924  0.00  0.00    +0.020 A 
ATOM     13 CL   LIG    1        5.744   7.854 -11.069  0.00  0.00    -0.060 Cl
ATOM     14  C   LIG    1        5.847   5.848  -7.619  0.00  0.00    +0.090 A 
ENDBRANCH   5   8
ENDBRANCH   1   2
BRANCH   1  16
ATOM     15  C   LIG    1        3.194   2.864  -2.080  0.00  0.00    +0.190 C 
ATOM     16  N   LIG    1        2.911   4.129  -1.389  0.00  0.00    -0.530 NA
BRANCH  16  17
ATOM     17  C   LIG    1        2.494   3.889  -0.001  0.00  0.00    +0.230 C 
BRANCH  17  18
ATOM     18  C   LIG    1        1.169   3.171   0.007  0.00  0.00    -0.060 A 
ATOM     19  C   LIG    1        0.022   3.900   0.021  0.00  0.00    +0.100 A 
ATOM     20  C   LIG    1       -1.219   3.238   0.030  0.00  0.00    +0.030 A 
ATOM     21  N   LIG    1       -2.494   3.590   0.043  0.00  0.00    -0.270 NA
ATOM     22  N   LIG    1       -3.220   2.527   0.045  0.00  0.00    -0.200 N 
ATOM     23  H   LIG    1       -4.190   2.539   0.054  0.00  0.00    +0.470 HD
ATOM     24  N   LIG    1       -2.520   1.446   0.033  0.00  0.00    -0.270 NA
ATOM     25  C   LIG    1       -1.236   1.768   0.018  0.00  0.00    +0.030 A 
ATOM     26  C   LIG    1       -0.013   1.076   0.008  0.00  0.00    +0.080 A 
ATOM     27  C   LIG    1        1.151   1.776   0.001  0.00  0.00    +0.040 A 
ENDBRANCH  17  18
ENDBRANCH  16  17
ENDBRANCH   1  16
TORSDOF 5
