REMARK  Name = ZINCrH00000tj1c8.0
REMARK                            x       y       z     vdW  Elec       q    Type
REMARK                         _______ _______ _______ _____ _____    ______ ____
ROOT
ATOM      1  N   LIG    1       -1.968   6.574  -0.371  0.00  0.00    -0.360 N 
ATOM      2  N   LIG    1       -0.654   6.087  -0.386  0.00  0.00    -0.240 NA
ATOM      3  C   LIG    1       -0.704   4.800  -0.607  0.00  0.00    +0.350 A 
ATOM      4  N   LIG    1       -2.029   4.427  -0.729  0.00  0.00    -0.480 N 
ATOM      5  C   LIG    1       -2.793   5.528  -0.582  0.00  0.00    +0.470 A 
ATOM      6  S   LIG    1       -4.503   5.588  -0.650  0.00  0.00    -0.570 S 
ENDROOT
BRANCH   3   7
ATOM      7  C   LIG    1        0.457   3.898  -0.704  0.00  0.00    +0.010 A 
ATOM      8  C   LIG    1        1.764   4.261  -0.584  0.00  0.00    +0.060 A 
ATOM      9  C   LIG    1        2.526   3.089  -0.744  0.00  0.00    -0.050 A 
ATOM     10  C   LIG    1        1.659   2.078  -0.951  0.00  0.00    +0.220 A 
ATOM     11  O   LIG    1        0.410   2.571  -0.931  0.00  0.00    -0.170 OA
ENDBRANCH   3   7
BRANCH   1  12
ATOM     12  C   LIG    1       -2.373   7.966  -0.159  0.00  0.00    +0.530 C 
BRANCH  12  20
ATOM     13  C   LIG    1       -1.421  10.539   0.619  0.00  0.00    +0.050 C 
ATOM     14  C   LIG    1       -2.413   9.752   1.477  0.00  0.00    +0.080 C 
ATOM     15  C   LIG    1       -2.182  10.077   2.955  0.00  0.00    +0.240 C 
ATOM     16  O   LIG    1       -3.061   9.283   3.756  0.00  0.00    -0.380 OA
ATOM     17  C   LIG    1       -2.894   7.875   3.570  0.00  0.00    +0.230 C 
ATOM     18  C   LIG    1       -3.133   7.527   2.098  0.00  0.00    +0.160 C 
ATOM     19  C   LIG    1       -3.842  10.135   1.087  0.00  0.00    +0.020 C 
ATOM     20  N   LIG    1       -2.215   8.312   1.260  0.00  0.00    -0.540 NA
ENDBRANCH  12  20
ENDBRANCH   1  12
BRANCH   4  21
ATOM     21  C   LIG    1       -2.520   3.069  -0.978  0.00  0.00    +0.390 C 
BRANCH  21  22
ATOM     22  C   LIG    1       -2.752   2.371   0.337  0.00  0.00    -0.130 A 
ATOM     23  C   LIG    1       -1.733   1.642   0.922  0.00  0.00    +0.030 A 
ATOM     24  C   LIG    1       -1.944   1.005   2.130  0.00  0.00    -0.010 A 
ATOM     25  C   LIG    1       -3.177   1.088   2.749  0.00  0.00    +0.020 A 
ATOM     26  C   LIG    1       -4.197   1.813   2.162  0.00  0.00    +0.010 A 
ATOM     27  C   LIG    1       -3.985   2.454   0.956  0.00  0.00    +0.060 A 
ENDBRANCH  21  22
ENDBRANCH   4  21
TORSDOF 5
