REMARK  Name = ZINCrg000000sP3I.0
REMARK                            x       y       z     vdW  Elec       q    Type
REMARK                         _______ _______ _______ _____ _____    ______ ____
ROOT
ATOM      1  C   LIG    1        1.453  -4.002   2.282  0.00  0.00    +0.190 A 
ATOM      2  C   LIG    1        0.889  -4.851   1.340  0.00  0.00    -0.090 A 
ATOM      3  C   LIG    1        1.008  -6.219   1.487  0.00  0.00    +0.160 A 
ATOM      4  C   LIG    1        1.678  -6.743   2.577  0.00  0.00    -0.720 A 
ATOM      5  C   LIG    1        2.236  -5.900   3.520  0.00  0.00    +0.170 A 
ATOM      6  C   LIG    1        2.125  -4.530   3.375  0.00  0.00    -0.010 A 
ENDROOT
BRANCH   4   7
ATOM      7  S   LIG    1        1.822  -8.489   2.764  0.00  0.00    +2.700 S 
ATOM      8  O   LIG    1        2.960  -8.713   3.585  0.00  0.00    -0.950 OA
ATOM      9  O   LIG    1        1.679  -9.046   1.465  0.00  0.00    -0.950 OA
BRANCH   7  10
ATOM     10  N   LIG    1        0.509  -8.998   3.637  0.00  0.00    -1.000 NA
ATOM     11  C   LIG    1        0.558  -9.068   5.106  0.00  0.00    +0.280 C 
ATOM     12  C   LIG    1       -0.673  -8.333   5.662  0.00  0.00    +0.220 C 
ATOM     13  O   LIG    1       -1.850  -8.854   5.040  0.00  0.00    -0.370 OA
ATOM     14  C   LIG    1       -1.903  -8.653   3.626  0.00  0.00    +0.220 C 
ATOM     15  C   LIG    1       -0.737  -9.399   2.966  0.00  0.00    +0.280 C 
ENDBRANCH   7  10
ENDBRANCH   4   7
BRANCH   1  16
ATOM     16  O   LIG    1        1.342  -2.655   2.137  0.00  0.00    -0.280 OA
BRANCH  16  17
ATOM     17  C   LIG    1        0.637  -2.182   0.988  0.00  0.00    +0.240 C 
BRANCH  17  20
ATOM     18  N   LIG    1        0.002  -0.004   0.002  0.00  0.00    -0.720 N 
ATOM     19  H   LIG    1       -0.427  -0.491  -0.719  0.00  0.00    +0.410 HD
ATOM     20  C   LIG    1        0.617  -0.675   0.996  0.00  0.00    +0.510 C 
ATOM     21  O   LIG    1        1.153  -0.066   1.897  0.00  0.00    -0.490 OA
BRANCH  18  22
ATOM     22  C   LIG    1       -0.018   1.461   0.010  0.00  0.00    +0.280 C 
ATOM     23  C   LIG    1       -0.768   1.972   1.257  0.00  0.00    +0.050 C 
ATOM     24  C   LIG    1       -1.536   3.220   0.752  0.00  0.00    +0.020 C 
ATOM     25  C   LIG    1       -1.983   2.796  -0.668  0.00  0.00    +0.040 C 
ATOM     26  C   LIG    1       -0.790   1.984  -1.214  0.00  0.00    +0.060 C 
BRANCH  22  28
ATOM     27  N   LIG    1        2.420   2.387  -0.008  0.00  0.00    -0.400 NA
ATOM     28  C   LIG    1        1.358   1.983  -0.000  0.00  0.00    +0.200 C 
ENDBRANCH  22  28
ENDBRANCH  18  22
ENDBRANCH  17  20
ENDBRANCH  16  17
ENDBRANCH   1  16
TORSDOF 7
