REMARK  Name = ZINCpk00000xI6Ur.0
REMARK                            x       y       z     vdW  Elec       q    Type
REMARK                         _______ _______ _______ _____ _____    ______ ____
ROOT
ATOM      1  N   LIG    1       -1.989   1.247   1.461  0.00  0.00    -1.100 NA
ATOM      2  S   LIG    1       -2.690   1.734   2.687  0.00  0.00    +2.560 S 
ATOM      3  C   LIG    1       -4.397   1.254   2.681  0.00  0.00    -0.520 A 
ATOM      4  C   LIG    1       -5.060   0.063   2.682  0.00  0.00    +0.180 A 
ATOM      5  C   LIG    1       -6.448   0.047   2.676  0.00  0.00    +0.070 A 
ATOM      6  C   LIG    1       -7.141   1.244   2.667  0.00  0.00    +0.080 A 
ATOM      7  C   LIG    1       -6.477   2.449   2.664  0.00  0.00    +0.120 A 
ATOM      8  C   LIG    1       -5.072   2.486   2.671  0.00  0.00    -0.120 A 
ATOM      9  C   LIG    1       -4.157   3.636   2.671  0.00  0.00    +0.530 C 
ATOM     10  O   LIG    1       -4.588   4.772   2.664  0.00  0.00    -0.460 OA
ATOM     11  O   LIG    1       -2.034   1.281   3.863  0.00  0.00    -0.920 OA
ATOM     12  N   LIG    1       -2.834   3.403   2.679  0.00  0.00    -0.910 N 
ATOM     13  C   LIG    1       -1.754   4.393   2.681  0.00  0.00    +0.390 C 
ENDROOT
BRANCH   1  14
ATOM     14  C   LIG    1       -0.726   1.580   1.245  0.00  0.00    +0.560 C 
ATOM     15  O   LIG    1       -0.137   2.282   2.044  0.00  0.00    -0.560 OA
BRANCH  14  21
ATOM     16  C   LIG    1       -0.559   0.542  -3.437  0.00  0.00    +0.550 C 
ATOM     17  N   LIG    1        0.022   1.221  -2.428  0.00  0.00    -0.610 N 
ATOM     18  C   LIG    1        1.440   1.598  -2.498  0.00  0.00    +0.260 C 
ATOM     19  C   LIG    1        2.149   1.089  -1.239  0.00  0.00    +0.010 C 
ATOM     20  C   LIG    1        1.419   1.615  -0.000  0.00  0.00    +0.040 C 
ATOM     21  C   LIG    1       -0.018   1.089   0.008  0.00  0.00    +0.020 C 
ATOM     22  C   LIG    1       -0.751   1.598  -1.237  0.00  0.00    +0.310 C 
ATOM     23  O   LIG    1       -1.705   0.153  -3.327  0.00  0.00    -0.540 OA
BRANCH  16  25
ATOM     24  C   LIG    1       -0.408  -0.310  -5.705  0.00  0.00    +0.140 C 
ATOM     25  C   LIG    1        0.195   0.272  -4.671  0.00  0.00    -0.090 C 
ENDBRANCH  16  25
ENDBRANCH  14  21
ENDBRANCH   1  14
TORSDOF 3
