REMARK  Name = ZINCvU00000006bQ.0
REMARK                            x       y       z     vdW  Elec       q    Type
REMARK                         _______ _______ _______ _____ _____    ______ ____
ROOT
ATOM      1  C   LIG    1       -3.063  -4.609   0.417  0.00  0.00    +0.080 A 
ATOM      2  C   LIG    1       -2.941  -4.881  -0.886  0.00  0.00    -0.050 A 
ATOM      3  S   LIG    1       -3.188  -3.382  -1.778  0.00  0.00    +0.160 S 
ATOM      4  C   LIG    1       -3.422  -2.537  -0.311  0.00  0.00    +0.060 A 
ATOM      5  N   LIG    1       -3.320  -3.346   0.690  0.00  0.00    -0.450 NA
ENDROOT
BRANCH   1   6
ATOM      6  C   LIG    1       -2.919  -5.661   1.486  0.00  0.00    +0.210 C 
BRANCH   6   7
ATOM      7  S   LIG    1       -4.535  -6.403   1.825  0.00  0.00    +0.030 S 
BRANCH   7  13
ATOM      8  N   LIG    1       -4.923  -8.426   3.722  0.00  0.00    -0.420 N 
ATOM      9  C   LIG    1       -4.132  -9.122   4.597  0.00  0.00    +0.200 A 
ATOM     10  N   LIG    1       -2.915  -8.678   4.455  0.00  0.00    -0.280 NA
ATOM     11  N   LIG    1       -2.880  -7.762   3.555  0.00  0.00    -0.290 NA
ATOM     12  C   LIG    1       -4.585 -10.199   5.548  0.00  0.00    +0.200 C 
ATOM     13  C   LIG    1       -4.085  -7.561   3.074  0.00  0.00    +0.160 A 
BRANCH   8  18
ATOM     14  C   LIG    1      -10.516  -9.009   2.948  0.00  0.00    +0.100 C 
ATOM     15  C   LIG    1       -9.031  -8.854   3.153  0.00  0.00    -0.070 A 
ATOM     16  C   LIG    1       -8.156  -9.172   2.131  0.00  0.00    +0.030 A 
ATOM     17  C   LIG    1       -6.795  -9.031   2.316  0.00  0.00    +0.040 A 
ATOM     18  C   LIG    1       -6.305  -8.570   3.531  0.00  0.00    +0.100 A 
ATOM     19  C   LIG    1       -7.186  -8.258   4.557  0.00  0.00    +0.030 A 
ATOM     20  C   LIG    1       -8.546  -8.395   4.364  0.00  0.00    +0.030 A 
ENDBRANCH   8  18
ENDBRANCH   7  13
ENDBRANCH   6   7
ENDBRANCH   1   6
BRANCH   4  21
ATOM     21  C   LIG    1       -3.711  -1.062  -0.201  0.00  0.00    +0.180 C 
BRANCH  21  22
ATOM     22  C   LIG    1       -2.414  -0.303  -0.090  0.00  0.00    +0.520 C 
ATOM     23  N   LIG    1       -2.427   1.041   0.019  0.00  0.00    -0.670 N 
ATOM     24  H   LIG    1       -3.271   1.512   0.106  0.00  0.00    +0.410 HD
ATOM     25  O   LIG    1       -1.359  -0.900  -0.098  0.00  0.00    -0.500 OA
BRANCH  23  26
ATOM     26  C   LIG    1       -1.224   1.755   0.006  0.00  0.00    +0.150 A 
ATOM     27  C   LIG    1       -0.102   1.218  -0.610  0.00  0.00    +0.010 A 
ATOM     28  C   LIG    1        1.082   1.928  -0.626  0.00  0.00    +0.030 A 
ATOM     29  C   LIG    1        1.153   3.171  -0.024  0.00  0.00    -0.010 A 
ATOM     30  C   LIG    1        0.038   3.707   0.596  0.00  0.00    +0.030 A 
ATOM     31  C   LIG    1       -1.149   3.002   0.614  0.00  0.00    -0.120 A 
ATOM     32  C   LIG    1       -2.363   3.587   1.289  0.00  0.00    +0.080 C 
ENDBRANCH  23  26
ENDBRANCH  21  22
ENDBRANCH   4  21
TORSDOF 7
