REMARK  Name = ZINCpk000005WOH1.0
REMARK                            x       y       z     vdW  Elec       q    Type
REMARK                         _______ _______ _______ _____ _____    ______ ____
ROOT
ATOM      1  C   LIG    1       -2.439   0.671   0.017  0.00  0.00    -0.030 C 
ATOM      2  C   LIG    1       -2.850   0.201  -1.389  0.00  0.00    +0.280 C 
ATOM      3  N   LIG    1       -4.244   0.331  -0.914  0.00  0.00    -0.650 N 
ATOM      4  C   LIG    1       -5.418  -0.230  -1.266  0.00  0.00    +0.540 C 
ATOM      5  O   LIG    1       -6.435   0.075  -0.680  0.00  0.00    -0.520 OA
ATOM      6  C   LIG    1       -3.833   1.319   0.103  0.00  0.00    +0.300 C 
ENDROOT
BRANCH   1   7
ATOM      7  C   LIG    1       -1.290   1.681   0.017  0.00  0.00    +0.290 C 
BRANCH   7  10
ATOM      8  O   LIG    1        1.130   2.872   0.007  0.00  0.00    -0.520 OA
ATOM      9  C   LIG    1        1.147   1.655   0.000  0.00  0.00    +0.600 C 
ATOM     10  N   LIG    1       -0.011   0.966   0.007  0.00  0.00    -0.730 N 
ATOM     11  H   LIG    1        0.002  -0.004   0.002  0.00  0.00    +0.400 HD
BRANCH   9  12
ATOM     12  C   LIG    1        2.427   0.940  -0.016  0.00  0.00    -0.300 A 
ATOM     13  C   LIG    1        3.660   1.505  -0.030  0.00  0.00    +0.310 A 
ATOM     14  N   LIG    1        4.646   0.643  -0.038  0.00  0.00    -0.480 NA
ATOM     15  C   LIG    1        4.337  -0.613  -0.043  0.00  0.00    +0.250 A 
ATOM     16  S   LIG    1        2.639  -0.810  -0.028  0.00  0.00    +0.160 S 
ENDBRANCH   9  12
ENDBRANCH   7  10
ENDBRANCH   1   7
BRANCH   4  17
ATOM     17  C   LIG    1       -5.467  -1.234  -2.388  0.00  0.00    +0.110 C 
BRANCH  17  18
ATOM     18  C   LIG    1       -6.886  -1.704  -2.580  0.00  0.00    -0.110 A 
ATOM     19  C   LIG    1       -7.693  -1.034  -3.440  0.00  0.00    +0.100 A 
ATOM     20  C   LIG    1       -9.023  -1.468  -3.627  0.00  0.00    -0.210 A 
ATOM     21  C   LIG    1      -10.088  -1.040  -4.397  0.00  0.00    +0.280 A 
ATOM     22  N   LIG    1      -11.123  -1.856  -4.159  0.00  0.00    -0.430 N 
ATOM     23  H   LIG    1      -11.998  -1.780  -4.570  0.00  0.00    +0.440 HD
ATOM     24  N   LIG    1      -10.755  -2.834  -3.228  0.00  0.00    -0.310 NA
ATOM     25  C   LIG    1       -9.497  -2.641  -2.877  0.00  0.00    +0.110 A 
ATOM     26  C   LIG    1       -8.601  -3.288  -1.999  0.00  0.00    +0.030 A 
ATOM     27  C   LIG    1       -7.333  -2.822  -1.872  0.00  0.00    +0.060 A 
ENDBRANCH  17  18
ENDBRANCH   4  17
TORSDOF 5
