REMARK  Name = ZINCrg000000rapS.0
REMARK                            x       y       z     vdW  Elec       q    Type
REMARK                         _______ _______ _______ _____ _____    ______ ____
ROOT
ATOM      1  N   LIG    1       -4.357   3.317  -6.651  0.00  0.00    -0.690 N 
ATOM      2  H   LIG    1       -4.603   2.425  -6.358  0.00  0.00    +0.410 HD
ATOM      3  C   LIG    1       -3.376   3.988  -6.016  0.00  0.00    +0.710 C 
ATOM      4  N   LIG    1       -2.674   3.386  -5.035  0.00  0.00    -0.620 N 
ATOM      5  C   LIG    1       -1.529   4.064  -4.411  0.00  0.00    +0.290 C 
ATOM      6  C   LIG    1       -0.299   3.156  -4.526  0.00  0.00    +0.300 C 
ATOM      7  N   LIG    1       -0.664   1.810  -4.062  0.00  0.00    -0.990 NA
ATOM      8  C   LIG    1       -1.805   1.130  -4.691  0.00  0.00    +0.300 C 
ATOM      9  C   LIG    1       -3.039   2.040  -4.572  0.00  0.00    +0.260 C 
ATOM     10  O   LIG    1       -3.123   5.135  -6.328  0.00  0.00    -0.560 OA
ENDROOT
BRANCH   1  15
ATOM     11  C   LIG    1       -5.931   5.852  -8.809  0.00  0.00    -0.070 A 
ATOM     12  C   LIG    1       -6.339   5.065  -9.879  0.00  0.00    -0.020 A 
ATOM     13  C   LIG    1       -6.089   3.706  -9.874  0.00  0.00    +0.050 A 
ATOM     14  C   LIG    1       -5.432   3.125  -8.806  0.00  0.00    -0.020 A 
ATOM     15  C   LIG    1       -5.022   3.906  -7.732  0.00  0.00    +0.180 A 
ATOM     16  C   LIG    1       -5.276   5.270  -7.731  0.00  0.00    +0.050 A 
BRANCH  11  18
ATOM     17  C   LIG    1       -7.108   7.835 -10.394  0.00  0.00    +0.130 C 
ATOM     18  S   LIG    1       -6.250   7.585  -8.816  0.00  0.00    -0.110 S 
ENDBRANCH  11  18
ENDBRANCH   1  15
BRANCH   7  19
ATOM     19  S   LIG    1        0.200   1.071  -2.858  0.00  0.00    +2.620 S 
ATOM     20  O   LIG    1        0.013  -0.318  -3.095  0.00  0.00    -0.940 OA
ATOM     21  O   LIG    1        1.490   1.661  -2.938  0.00  0.00    -0.930 OA
BRANCH  19  22
ATOM     22  C   LIG    1       -0.636   1.573  -1.328  0.00  0.00    -0.440 C 
ATOM     23  C   LIG    1        0.149   1.048  -0.113  0.00  0.00    +0.110 C 
ATOM     24  C   LIG    1       -0.416   1.780   1.131  0.00  0.00    -0.290 C 
ATOM     25  S   LIG    1       -0.597   3.503   0.533  0.00  0.00    +2.400 S 
ATOM     26  O   LIG    1       -1.843   4.029   0.970  0.00  0.00    -0.930 OA
ATOM     27  O   LIG    1        0.603   4.219   0.791  0.00  0.00    -0.920 OA
ATOM     28  C   LIG    1       -0.696   3.111  -1.251  0.00  0.00    -0.280 C 
ENDBRANCH  19  22
ENDBRANCH   7  19
TORSDOF 4
