REMARK  Name = ZINCpk00000FcW4T.0
REMARK                            x       y       z     vdW  Elec       q    Type
REMARK                         _______ _______ _______ _____ _____    ______ ____
ROOT
ATOM      1  C   LIG    1        4.394   6.529   2.507  0.00  0.00    +0.290 C 
ATOM      2  C   LIG    1        3.430   5.757   1.602  0.00  0.00    +0.190 C 
ATOM      3  N   LIG    1        2.133   6.449   1.572  0.00  0.00    -0.510 NA
ATOM      4  C   LIG    1        2.290   7.827   1.083  0.00  0.00    +0.160 C 
ATOM      5  C   LIG    1        3.265   8.578   1.993  0.00  0.00    +0.250 C 
ATOM      6  O   LIG    1        4.509   7.873   2.034  0.00  0.00    -0.390 OA
ENDROOT
BRANCH   1  11
ATOM      7  C   LIG    1        9.347   5.662   2.023  0.00  0.00    +0.200 C 
ATOM      8  C   LIG    1        7.870   5.497   2.273  0.00  0.00    +0.180 A 
ATOM      9  N   LIG    1        7.265   4.397   2.631  0.00  0.00    -0.290 NA
ATOM     10  N   LIG    1        6.004   4.618   2.754  0.00  0.00    -0.270 NA
ATOM     11  C   LIG    1        5.748   5.868   2.480  0.00  0.00    +0.180 A 
ATOM     12  N   LIG    1        6.924   6.460   2.162  0.00  0.00    -0.560 N 
ATOM     13  H   LIG    1        7.061   7.386   1.909  0.00  0.00    +0.430 HD
ENDBRANCH   1  11
BRANCH   3  14
ATOM     14  C   LIG    1        1.159   5.709   0.758  0.00  0.00    +0.190 C 
ATOM     15  C   LIG    1        1.571   5.732  -0.732  0.00  0.00    +0.020 C 
ATOM     16  C   LIG    1        1.145   4.322  -1.198  0.00  0.00    +0.270 C 
ATOM     17  N   LIG    1        1.165   3.488   0.009  0.00  0.00    -0.580 N 
ATOM     18  C   LIG    1        1.162   4.241   1.123  0.00  0.00    +0.530 C 
ATOM     19  O   LIG    1        1.164   3.806   2.255  0.00  0.00    -0.490 OA
BRANCH  17  20
ATOM     20  C   LIG    1        1.180   2.088   0.002  0.00  0.00    +0.110 A 
ATOM     21  C   LIG    1        2.388   1.405  -0.014  0.00  0.00    +0.050 A 
ATOM     22  C   LIG    1        2.399   0.023  -0.020  0.00  0.00    +0.020 A 
ATOM     23  C   LIG    1        1.209  -0.680  -0.013  0.00  0.00    +0.060 A 
ATOM     24  C   LIG    1        0.002  -0.004   0.002  0.00  0.00    -0.010 A 
ATOM     25  C   LIG    1       -0.017   1.379   0.010  0.00  0.00    +0.110 A 
ATOM     26  F   LIG    1       -1.195   2.039   0.019  0.00  0.00    -0.130 F 
ENDBRANCH  17  20
ENDBRANCH   3  14
TORSDOF 3
