REMARK  Name = ZINCpk00000FcW4T.1
REMARK                            x       y       z     vdW  Elec       q    Type
REMARK                         _______ _______ _______ _____ _____    ______ ____
ROOT
ATOM      1  C   LIG    1       -1.148  -1.017  -0.014  0.00  0.00    +0.300 C 
ATOM      2  C   LIG    1       -1.789  -1.011  -1.405  0.00  0.00    +0.180 C 
ATOM      3  N   LIG    1       -3.087  -1.699  -1.344  0.00  0.00    -0.510 NA
ATOM      4  C   LIG    1       -3.978  -1.045  -0.375  0.00  0.00    +0.170 C 
ATOM      5  C   LIG    1       -3.316  -1.051   1.005  0.00  0.00    +0.250 C 
ATOM      6  O   LIG    1       -2.042  -0.406   0.920  0.00  0.00    -0.370 OA
ENDROOT
BRANCH   1  10
ATOM      7  C   LIG    1        3.759  -0.024  -0.084  0.00  0.00    +0.200 C 
ATOM      8  C   LIG    1        2.265   0.172  -0.083  0.00  0.00    +0.290 A 
ATOM      9  N   LIG    1        1.366  -0.778  -0.041  0.00  0.00    -0.530 NA
ATOM     10  C   LIG    1        0.145  -0.244  -0.053  0.00  0.00    +0.230 A 
ATOM     11  N   LIG    1        0.251   1.057  -0.104  0.00  0.00    -0.290 NA
ATOM     12  N   LIG    1        1.624   1.352  -0.124  0.00  0.00    -0.480 N 
ATOM     13  H   LIG    1        2.029   2.233  -0.160  0.00  0.00    +0.440 HD
ENDBRANCH   1  10
BRANCH   3  14
ATOM     14  C   LIG    1       -3.711  -1.765  -2.672  0.00  0.00    +0.190 C 
ATOM     15  C   LIG    1       -3.852  -0.348  -3.275  0.00  0.00    +0.020 C 
ATOM     16  C   LIG    1       -3.575  -0.617  -4.773  0.00  0.00    +0.270 C 
ATOM     17  N   LIG    1       -2.749  -1.830  -4.809  0.00  0.00    -0.580 N 
ATOM     18  C   LIG    1       -2.812  -2.497  -3.643  0.00  0.00    +0.530 C 
ATOM     19  O   LIG    1       -2.232  -3.536  -3.406  0.00  0.00    -0.490 OA
BRANCH  17  20
ATOM     20  C   LIG    1       -1.994  -2.239  -5.914  0.00  0.00    +0.110 A 
ATOM     21  C   LIG    1       -2.555  -3.074  -6.870  0.00  0.00    +0.060 A 
ATOM     22  C   LIG    1       -1.809  -3.471  -7.963  0.00  0.00    +0.020 A 
ATOM     23  C   LIG    1       -0.500  -3.047  -8.100  0.00  0.00    +0.060 A 
ATOM     24  C   LIG    1        0.066  -2.220  -7.148  0.00  0.00    -0.010 A 
ATOM     25  C   LIG    1       -0.677  -1.813  -6.054  0.00  0.00    +0.110 A 
ATOM     26  F   LIG    1       -0.124  -1.004  -5.124  0.00  0.00    -0.130 F 
ENDBRANCH  17  20
ENDBRANCH   3  14
TORSDOF 3
