REMARK  Name = ZINCkj000005g3AC.1
REMARK                            x       y       z     vdW  Elec       q    Type
REMARK                         _______ _______ _______ _____ _____    ______ ____
ROOT
ATOM      1  N   LIG    1       -0.977   1.609   2.667  0.00  0.00    -0.390 N 
ATOM      2  C   LIG    1        0.361   2.202   2.547  0.00  0.00    +0.280 C 
ATOM      3  C   LIG    1        1.293   1.572   3.585  0.00  0.00    +0.200 C 
ATOM      4  N   LIG    1        0.753   1.808   4.931  0.00  0.00    -0.530 NA
ATOM      5  C   LIG    1       -0.597   1.241   5.058  0.00  0.00    +0.220 C 
ATOM      6  C   LIG    1        1.396   0.067   3.332  0.00  0.00    +0.030 C 
ATOM      7  C   LIG    1       -1.513   1.874   4.009  0.00  0.00    +0.170 C 
ATOM      8  C   LIG    1       -2.915   1.272   4.125  0.00  0.00    +0.100 C 
ATOM      9  H   LIG    1       -0.918   0.613   2.519  0.00  0.00    +0.420 HD
ENDROOT
BRANCH   1  11
ATOM     10  C   LIG    1       -1.378   1.819   0.260  0.00  0.00    +0.080 C 
ATOM     11  C   LIG    1       -1.867   2.201   1.659  0.00  0.00    +0.240 C 
ENDBRANCH   1  11
BRANCH   4  12
ATOM     12  C   LIG    1        1.650   1.266   5.960  0.00  0.00    +0.340 C 
BRANCH  12  13
ATOM     13  C   LIG    1        0.959   1.303   7.299  0.00  0.00    +0.160 A 
ATOM     14  N   LIG    1        0.143   0.400   7.784  0.00  0.00    -0.300 NA
ATOM     15  N   LIG    1       -0.237   0.792   8.951  0.00  0.00    -0.070 NA
ATOM     16  N   LIG    1        0.316   1.922   9.223  0.00  0.00    -0.070 NA
ATOM     17  N   LIG    1        1.065   2.269   8.232  0.00  0.00    -0.280 N 
BRANCH  17  18
ATOM     18  C   LIG    1        1.875   3.485   8.136  0.00  0.00    +0.160 C 
ATOM     19  C   LIG    1        3.358   3.110   8.118  0.00  0.00    +0.070 C 
ATOM     20  C   LIG    1        1.591   4.383   9.342  0.00  0.00    +0.080 C 
ATOM     21  C   LIG    1        1.522   4.234   6.849  0.00  0.00    +0.080 C 
ENDBRANCH  17  18
ENDBRANCH  12  13
ENDBRANCH   4  12
TORSDOF 4
