REMARK  Name = ZINCkj000005g3AC.0
REMARK                            x       y       z     vdW  Elec       q    Type
REMARK                         _______ _______ _______ _____ _____    ______ ____
ROOT
ATOM      1  N   LIG    1       -0.366   0.089  -0.122  0.00  0.00    -0.390 N 
ATOM      2  C   LIG    1       -0.270   1.546   0.039  0.00  0.00    +0.270 C 
ATOM      3  C   LIG    1        1.203   1.960   0.076  0.00  0.00    +0.130 C 
ATOM      4  N   LIG    1        1.857   1.543  -1.173  0.00  0.00    -0.510 NA
ATOM      5  C   LIG    1        1.748   0.090  -1.360  0.00  0.00    +0.210 C 
ATOM      6  C   LIG    1        1.303   3.479   0.223  0.00  0.00    +0.090 C 
ATOM      7  C   LIG    1        0.270  -0.309  -1.385  0.00  0.00    +0.170 C 
ATOM      8  C   LIG    1       -0.428   0.395  -2.551  0.00  0.00    +0.100 C 
ATOM      9  H   LIG    1        0.102  -0.366   0.648  0.00  0.00    +0.420 HD
ENDROOT
BRANCH   1  11
ATOM     10  C   LIG    1       -2.411  -0.010   1.222  0.00  0.00    +0.080 C 
ATOM     11  C   LIG    1       -1.780  -0.310  -0.139  0.00  0.00    +0.250 C 
ENDBRANCH   1  11
BRANCH   4  12
ATOM     12  C   LIG    1        3.261   1.973  -1.200  0.00  0.00    +0.380 C 
BRANCH  12  13
ATOM     13  C   LIG    1        3.998   1.355  -0.040  0.00  0.00    +0.130 A 
ATOM     14  N   LIG    1        3.745   1.535   1.234  0.00  0.00    -0.300 NA
ATOM     15  N   LIG    1        4.591   0.837   1.910  0.00  0.00    -0.070 NA
ATOM     16  N   LIG    1        5.378   0.217   1.101  0.00  0.00    -0.070 NA
ATOM     17  N   LIG    1        5.041   0.506  -0.110  0.00  0.00    -0.290 N 
BRANCH  17  18
ATOM     18  C   LIG    1        5.676   0.008  -1.333  0.00  0.00    +0.160 C 
ATOM     19  C   LIG    1        4.640  -0.733  -2.180  0.00  0.00    +0.070 C 
ATOM     20  C   LIG    1        6.812  -0.949  -0.964  0.00  0.00    +0.090 C 
ATOM     21  C   LIG    1        6.240   1.185  -2.131  0.00  0.00    +0.080 C 
ENDBRANCH  17  18
ENDBRANCH  12  13
ENDBRANCH   4  12
TORSDOF 4
