REMARK  Name = ZINCqH0000050JZX.0
REMARK                            x       y       z     vdW  Elec       q    Type
REMARK                         _______ _______ _______ _____ _____    ______ ____
ROOT
ATOM      1  C   LIG    1       -3.571  -1.268   0.029  0.00  0.00    +0.200 C 
ATOM      2  C   LIG    1       -3.926  -1.659  -1.410  0.00  0.00    +0.220 C 
ATOM      3  O   LIG    1       -4.348  -0.490  -2.119  0.00  0.00    -0.380 OA
ATOM      4  C   LIG    1       -5.467   0.171  -1.523  0.00  0.00    +0.260 C 
ATOM      5  O   LIG    1       -5.138   0.554  -0.185  0.00  0.00    -0.370 OA
ATOM      6  C   LIG    1       -5.816   1.418  -2.338  0.00  0.00    +0.100 C 
ATOM      7  C   LIG    1       -6.668  -0.777  -1.501  0.00  0.00    +0.010 C 
ATOM      8  C   LIG    1       -4.768  -0.545   0.654  0.00  0.00    +0.210 C 
ENDROOT
BRANCH   8   9
ATOM      9  C   LIG    1       -4.390  -0.031   2.020  0.00  0.00    -0.080 A 
ATOM     10  C   LIG    1       -3.750   1.187   2.147  0.00  0.00    +0.030 A 
ATOM     11  C   LIG    1       -3.408   1.661   3.400  0.00  0.00    +0.000 A 
ATOM     12  C   LIG    1       -3.696   0.910   4.525  0.00  0.00    +0.010 A 
ATOM     13  C   LIG    1       -4.330  -0.311   4.397  0.00  0.00    +0.010 A 
ATOM     14  C   LIG    1       -4.678  -0.782   3.144  0.00  0.00    +0.010 A 
ENDBRANCH   8   9
BRANCH   1  16
ATOM     15  C   LIG    1       -1.163  -0.896   0.008  0.00  0.00    +0.620 C 
ATOM     16  N   LIG    1       -2.408  -0.378   0.023  0.00  0.00    -0.700 N 
ATOM     17  H   LIG    1       -2.533   0.584   0.029  0.00  0.00    +0.410 HD
ATOM     18  O   LIG    1       -1.006  -2.102  -0.001  0.00  0.00    -0.520 OA
BRANCH  15  21
ATOM     19  C   LIG    1        1.837  -1.791  -0.025  0.00  0.00    +0.170 C 
ATOM     20  C   LIG    1        1.313  -0.378  -0.013  0.00  0.00    +0.090 A 
ATOM     21  C   LIG    1        0.002  -0.004   0.002  0.00  0.00    -0.130 A 
ATOM     22  O   LIG    1       -0.016   1.349   0.009  0.00  0.00    -0.190 OA
ATOM     23  C   LIG    1        1.252   1.773  -0.000  0.00  0.00    +0.230 A 
ATOM     24  N   LIG    1        2.049   0.738  -0.013  0.00  0.00    -0.480 NA
BRANCH  23  25
ATOM     25  C   LIG    1        1.691   3.214   0.003  0.00  0.00    +0.100 C 
ATOM     26  C   LIG    1        2.518   3.498  -1.253  0.00  0.00    +0.060 C 
ATOM     27  C   LIG    1        2.542   3.485   1.245  0.00  0.00    +0.060 C 
ENDBRANCH  23  25
ENDBRANCH  15  21
ENDBRANCH   1  16
TORSDOF 4
