REMARK  Name = ZINCpe00000bpww0.0
REMARK                            x       y       z     vdW  Elec       q    Type
REMARK                         _______ _______ _______ _____ _____    ______ ____
ROOT
ATOM      1  C   LIG    1       -2.571  -6.554   0.903  0.00  0.00    +0.250 C 
ATOM      2  C   LIG    1       -3.443  -5.431   0.281  0.00  0.00    +0.050 C 
ATOM      3  C   LIG    1       -2.443  -4.267   0.118  0.00  0.00    +0.250 C 
ATOM      4  N   LIG    1       -1.094  -4.851   0.090  0.00  0.00    -0.610 N 
ATOM      5  C   LIG    1        0.059  -4.161  -0.019  0.00  0.00    +0.590 C 
ATOM      6  O   LIG    1        1.115  -4.754  -0.123  0.00  0.00    -0.540 OA
ATOM      7  C   LIG    1       -1.211  -6.317   0.196  0.00  0.00    +0.270 C 
ENDROOT
BRANCH   5   8
ATOM      8  C   LIG    1        0.038  -2.686  -0.013  0.00  0.00    -0.310 A 
ATOM      9  C   LIG    1        1.230  -1.951   0.035  0.00  0.00    +0.440 A 
ATOM     10  N   LIG    1        1.170  -0.632   0.039  0.00  0.00    -0.570 NA
ATOM     11  C   LIG    1        0.002  -0.004  -0.000  0.00  0.00    +0.580 A 
ATOM     12  N   LIG    1       -1.149  -0.664  -0.041  0.00  0.00    -0.570 NA
ATOM     13  C   LIG    1       -1.173  -1.983  -0.053  0.00  0.00    +0.400 A 
BRANCH  11  14
ATOM     14  N   LIG    1       -0.017   1.375   0.006  0.00  0.00    -0.810 N 
ATOM     15  H   LIG    1       -0.863   1.849  -0.026  0.00  0.00    +0.420 HD
ATOM     16  H   LIG    1        0.816   1.871   0.040  0.00  0.00    +0.420 HD
ENDBRANCH  11  14
ENDBRANCH   5   8
BRANCH   1  17
ATOM     17  N   LIG    1       -3.107  -7.878   0.575  0.00  0.00    -0.610 N 
ATOM     18  C   LIG    1       -3.219  -8.259  -0.713  0.00  0.00    +0.520 C 
ATOM     19  O   LIG    1       -2.876  -7.507  -1.600  0.00  0.00    -0.510 OA
BRANCH  17  21
ATOM     20  C   LIG    1       -4.997  -8.551   1.973  0.00  0.00    +0.020 C 
ATOM     21  C   LIG    1       -3.521  -8.786   1.647  0.00  0.00    +0.260 C 
ENDBRANCH  17  21
BRANCH  18  22
ATOM     22  C   LIG    1       -3.770  -9.621  -1.050  0.00  0.00    +0.150 C 
BRANCH  22  23
ATOM     23  C   LIG    1       -3.790  -9.798  -2.546  0.00  0.00    +0.080 A 
ATOM     24  C   LIG    1       -3.197 -10.826  -3.160  0.00  0.00    -0.070 A 
ATOM     25  S   LIG    1       -3.461 -10.648  -4.893  0.00  0.00    +0.120 S 
ATOM     26  C   LIG    1       -4.344  -9.210  -4.619  0.00  0.00    +0.230 A 
ATOM     27  N   LIG    1       -4.399  -8.956  -3.356  0.00  0.00    -0.450 NA
ENDBRANCH  22  23
ENDBRANCH  18  22
ENDBRANCH   1  17
TORSDOF 6
