REMARK  Name = ZINCkj00000dEbda.0
REMARK                            x       y       z     vdW  Elec       q    Type
REMARK                         _______ _______ _______ _____ _____    ______ ____
ROOT
ATOM      1  N   LIG    1        1.699  -3.803  -2.671  0.00  0.00    -0.660 NA
ATOM      2  C   LIG    1        2.286  -4.230  -3.789  0.00  0.00    +0.490 A 
ATOM      3  C   LIG    1        2.770  -3.425  -4.840  0.00  0.00    -0.070 A 
ATOM      4  C   LIG    1        3.292  -4.234  -5.787  0.00  0.00    +0.340 A 
ATOM      5  N   LIG    1        3.160  -5.529  -5.383  0.00  0.00    -0.410 N 
ATOM      6  N   LIG    1        2.535  -5.537  -4.129  0.00  0.00    -0.500 N 
ATOM      7  H   LIG    1        2.318  -6.320  -3.599  0.00  0.00    +0.440 HD
ENDROOT
BRANCH   5   8
ATOM      8  C   LIG    1        3.601  -6.710  -6.130  0.00  0.00    +0.320 C 
ATOM      9  C   LIG    1        2.419  -7.684  -6.341  0.00  0.00    +0.080 C 
ATOM     10  C   LIG    1        3.075  -9.074  -6.146  0.00  0.00    +0.300 C 
ATOM     11  N   LIG    1        4.050  -8.839  -5.051  0.00  0.00    -0.520 N 
ATOM     12  H   LIG    1        3.578  -8.844  -4.158  0.00  0.00    +0.430 HD
ATOM     13  H   LIG    1        4.771  -9.544  -5.069  0.00  0.00    +0.440 HD
ATOM     14  C   LIG    1        4.634  -7.505  -5.310  0.00  0.00    +0.270 C 
ENDBRANCH   5   8
BRANCH   1  16
ATOM     15  O   LIG    1        1.900  -1.700  -3.303  0.00  0.00    -0.540 OA
ATOM     16  C   LIG    1        1.525  -2.501  -2.468  0.00  0.00    +0.500 C 
BRANCH  16  17
ATOM     17  C   LIG    1        0.862  -2.017  -1.204  0.00  0.00    +0.100 C 
BRANCH  17  18
ATOM     18  C   LIG    1        0.785  -0.489  -1.221  0.00  0.00    +0.160 C 
ATOM     19  C   LIG    1        0.002  -0.004   0.002  0.00  0.00    -0.010 C 
ATOM     20  C   LIG    1       -0.019   1.528   0.010  0.00  0.00    +0.010 C 
ATOM     21  C   LIG    1        1.422   2.047  -0.001  0.00  0.00    -0.020 C 
ATOM     22  C   LIG    1        2.151   1.482  -1.223  0.00  0.00    +0.200 C 
ATOM     23  O   LIG    1        2.106   0.054  -1.185  0.00  0.00    -0.370 OA
ENDBRANCH  17  18
ENDBRANCH  16  17
ENDBRANCH   1  16
TORSDOF 4
