REMARK  Name = ZINCnE000001UtHw.0
REMARK                            x       y       z     vdW  Elec       q    Type
REMARK                         _______ _______ _______ _____ _____    ______ ____
ROOT
ATOM      1  N   LIG    1       -5.280   4.308   5.583  0.00  0.00    -0.690 NA
ATOM      2  C   LIG    1       -4.385   3.809   4.773  0.00  0.00    +0.440 A 
ATOM      3  N   LIG    1       -3.231   3.163   5.130  0.00  0.00    -0.540 NA
ATOM      4  N   LIG    1       -2.588   2.806   3.935  0.00  0.00    -0.270 NA
ATOM      5  C   LIG    1       -3.316   3.216   2.951  0.00  0.00    +0.070 A 
ATOM      6  O   LIG    1       -4.416   3.836   3.425  0.00  0.00    -0.300 OA
ENDROOT
BRANCH   1   7
ATOM      7  C   LIG    1       -5.098   4.202   7.033  0.00  0.00    +0.200 C 
BRANCH   7   8
ATOM      8  C   LIG    1       -4.922   5.600   7.628  0.00  0.00    +0.050 C 
BRANCH   8  12
ATOM      9  C   LIG    1       -4.389   5.291  11.855  0.00  0.00    -0.030 A 
ATOM     10  C   LIG    1       -3.291   5.258  11.016  0.00  0.00    +0.000 A 
ATOM     11  C   LIG    1       -3.464   5.358   9.648  0.00  0.00    +0.000 A 
ATOM     12  C   LIG    1       -4.734   5.491   9.120  0.00  0.00    -0.060 A 
ATOM     13  C   LIG    1       -5.832   5.529   9.959  0.00  0.00    +0.000 A 
ATOM     14  C   LIG    1       -5.659   5.423  11.327  0.00  0.00    +0.000 A 
ENDBRANCH   8  12
ENDBRANCH   7   8
ENDBRANCH   1   7
BRANCH   5  15
ATOM     15  C   LIG    1       -2.984   3.034   1.493  0.00  0.00    +0.310 C 
BRANCH  15  16
ATOM     16  O   LIG    1       -1.741   2.339   1.370  0.00  0.00    -0.360 OA
BRANCH  16  17
ATOM     17  C   LIG    1       -1.332   2.114   0.020  0.00  0.00    +0.220 C 
BRANCH  17  18
ATOM     18  C   LIG    1       -0.017   1.378   0.010  0.00  0.00    -0.080 A 
ATOM     19  C   LIG    1        1.171   2.086   0.002  0.00  0.00    +0.020 A 
ATOM     20  C   LIG    1        2.377   1.411  -0.014  0.00  0.00    -0.010 A 
ATOM     21  C   LIG    1        2.396   0.029  -0.021  0.00  0.00    +0.000 A 
ATOM     22  C   LIG    1        1.208  -0.679  -0.014  0.00  0.00    -0.010 A 
ATOM     23  C   LIG    1        0.002  -0.004   0.002  0.00  0.00    +0.020 A 
ENDBRANCH  17  18
ENDBRANCH  16  17
ENDBRANCH  15  16
ENDBRANCH   5  15
TORSDOF 7
