REMARK  Name = ZINCkj000005kfWE.0
REMARK                            x       y       z     vdW  Elec       q    Type
REMARK                         _______ _______ _______ _____ _____    ______ ____
ROOT
ATOM      1  C   LIG    1       -1.119  -0.670   0.106  0.00  0.00    +0.630 C 
ATOM      2  N   LIG    1       -0.014   0.100   0.057  0.00  0.00    -0.620 N 
ATOM      3  C   LIG    1        0.003   1.567  -0.048  0.00  0.00    +0.280 C 
ATOM      4  C   LIG    1        1.482   2.005  -0.097  0.00  0.00    +0.070 C 
ATOM      5  C   LIG    1        2.208   0.724  -0.586  0.00  0.00    +0.170 C 
ATOM      6  C   LIG    1        1.376  -0.387   0.102  0.00  0.00    +0.300 C 
ATOM      7  O   LIG    1       -1.014  -1.880   0.194  0.00  0.00    -0.500 OA
ENDROOT
BRANCH   1  10
ATOM      8  C   LIG    1       -3.843  -2.202   0.198  0.00  0.00    +0.150 C 
ATOM      9  C   LIG    1       -3.642  -0.712   0.093  0.00  0.00    -0.060 A 
ATOM     10  C   LIG    1       -2.448  -0.052   0.053  0.00  0.00    -0.100 A 
ATOM     11  O   LIG    1       -2.704   1.269  -0.039  0.00  0.00    -0.160 OA
ATOM     12  C   LIG    1       -4.029   1.464  -0.066  0.00  0.00    +0.030 A 
ATOM     13  C   LIG    1       -4.646   0.265   0.017  0.00  0.00    -0.030 A 
BRANCH  12  14
ATOM     14  C   LIG    1       -4.717   2.801  -0.166  0.00  0.00    +0.310 C 
BRANCH  14  15
ATOM     15  O   LIG    1       -4.942   3.320   1.147  0.00  0.00    -0.570 OA
ATOM     16  H   LIG    1       -5.383   4.181   1.159  0.00  0.00    +0.400 HD
ENDBRANCH  14  15
ENDBRANCH  12  14
ENDBRANCH   1  10
BRANCH   5  17
ATOM     17  N   LIG    1        3.602   0.700  -0.125  0.00  0.00    -0.390 N 
ATOM     18  C   LIG    1        4.247  -0.582  -0.509  0.00  0.00    +0.270 C 
ATOM     19  C   LIG    1        5.758  -0.240  -0.482  0.00  0.00    +0.080 C 
ATOM     20  C   LIG    1        5.797   1.204  -1.033  0.00  0.00    +0.070 C 
ATOM     21  C   LIG    1        4.381   1.762  -0.798  0.00  0.00    +0.250 C 
ATOM     22  H   LIG    1        3.640   0.823   0.876  0.00  0.00    +0.430 HD
ENDBRANCH   5  17
TORSDOF 4
