REMARK  Name = ZINCtV00000L6jHn.0
REMARK                            x       y       z     vdW  Elec       q    Type
REMARK                         _______ _______ _______ _____ _____    ______ ____
ROOT
ATOM      1  N   LIG    1        3.912   3.238   0.743  0.00  0.00    -0.980 NA
ENDROOT
BRANCH   1   2
ATOM      2  S   LIG    1        4.793   3.557   2.109  0.00  0.00    +2.690 S 
ATOM      3  O   LIG    1        5.194   2.298   2.631  0.00  0.00    -0.950 OA
ATOM      4  O   LIG    1        4.045   4.506   2.856  0.00  0.00    -0.950 OA
BRANCH   2  10
ATOM      5  C   LIG    1        7.945   7.726   2.064  0.00  0.00    +0.090 C 
ATOM      6  C   LIG    1        7.674   6.314   1.613  0.00  0.00    -0.110 A 
ATOM      7  C   LIG    1        8.581   5.662   0.799  0.00  0.00    +0.070 A 
ATOM      8  C   LIG    1        8.332   4.366   0.386  0.00  0.00    -0.010 A 
ATOM      9  C   LIG    1        7.177   3.722   0.789  0.00  0.00    +0.020 A 
ATOM     10  C   LIG    1        6.267   4.377   1.599  0.00  0.00    -0.670 A 
ATOM     11  C   LIG    1        6.908   2.308   0.343  0.00  0.00    +0.100 C 
ATOM     12  C   LIG    1        6.517   5.671   2.013  0.00  0.00    +0.130 A 
ENDBRANCH   2  10
ENDBRANCH   1   2
BRANCH   1  13
ATOM     13  C   LIG    1        3.954   1.904   0.139  0.00  0.00    +0.290 C 
ATOM     14  C   LIG    1        3.394   1.970  -1.283  0.00  0.00    +0.070 C 
BRANCH  13  15
ATOM     15  C   LIG    1        3.125   0.953   0.963  0.00  0.00    -0.100 A 
ATOM     16  C   LIG    1        1.961   1.395   1.565  0.00  0.00    +0.010 A 
ATOM     17  C   LIG    1        1.200   0.522   2.320  0.00  0.00    +0.000 A 
ATOM     18  C   LIG    1        1.603  -0.791   2.475  0.00  0.00    +0.000 A 
ATOM     19  C   LIG    1        2.768  -1.232   1.874  0.00  0.00    +0.000 A 
ATOM     20  C   LIG    1        3.528  -0.359   1.118  0.00  0.00    +0.020 A 
ENDBRANCH  13  15
ENDBRANCH   1  13
BRANCH   1  21
ATOM     21  C   LIG    1        3.091   4.290   0.139  0.00  0.00    +0.350 C 
BRANCH  21  22
ATOM     22  C   LIG    1        3.374   5.603   0.822  0.00  0.00    -0.140 A 
ATOM     23  C   LIG    1        2.552   6.043   1.842  0.00  0.00    +0.150 A 
ATOM     24  C   LIG    1        2.815   7.245   2.473  0.00  0.00    +0.030 A 
ATOM     25  C   LIG    1        3.894   8.014   2.076  0.00  0.00    -0.010 A 
ATOM     26  C   LIG    1        4.714   7.576   1.051  0.00  0.00    +0.020 A 
ATOM     27 CL   LIG    1        4.220   9.526   2.864  0.00  0.00    -0.060 Cl
ATOM     28  C   LIG    1        4.454   6.371   0.424  0.00  0.00    -0.010 A 
ATOM     29 CL   LIG    1        5.482   5.822  -0.863  0.00  0.00    -0.050 Cl
ENDBRANCH  21  22
ENDBRANCH   1  21
TORSDOF 6
