REMARK  Name = ZINCvU0000000A4u.0
REMARK                            x       y       z     vdW  Elec       q    Type
REMARK                         _______ _______ _______ _____ _____    ______ ____
ROOT
ATOM      1  C   LIG    1        6.025   2.317  -2.185  0.00  0.00    +0.150 A 
ATOM      2  N   LIG    1        6.468   3.074  -1.206  0.00  0.00    -0.290 NA
ATOM      3  N   LIG    1        7.664   3.470  -1.460  0.00  0.00    -0.240 NA
ATOM      4  C   LIG    1        8.055   2.998  -2.621  0.00  0.00    +0.210 A 
ATOM      5  N   LIG    1        7.017   2.246  -3.121  0.00  0.00    -0.440 N 
ENDROOT
BRANCH   4   6
ATOM      6  C   LIG    1        9.363   3.231  -3.269  0.00  0.00    -0.010 A 
ATOM      7  C   LIG    1        9.422   3.626  -4.606  0.00  0.00    +0.060 A 
ATOM      8  C   LIG    1       10.645   3.842  -5.206  0.00  0.00    +0.050 A 
ATOM      9  C   LIG    1       11.814   3.667  -4.484  0.00  0.00    -0.010 A 
ATOM     10  C   LIG    1       11.763   3.275  -3.157  0.00  0.00    +0.050 A 
ATOM     11 CL   LIG    1       13.350   3.941  -5.246  0.00  0.00    -0.040 Cl
ATOM     12  C   LIG    1       10.545   3.062  -2.544  0.00  0.00    +0.010 A 
ATOM     13 CL   LIG    1       10.482   2.579  -0.878  0.00  0.00    -0.030 Cl
ENDBRANCH   4   6
BRANCH   5  14
ATOM     14  C   LIG    1        6.983   1.518  -4.393  0.00  0.00    +0.240 C 
ATOM     15  C   LIG    1        5.837   2.051  -5.255  0.00  0.00    +0.010 C 
ATOM     16  C   LIG    1        5.801   1.292  -6.582  0.00  0.00    +0.040 C 
ATOM     17  C   LIG    1        5.585  -0.198  -6.312  0.00  0.00    +0.010 C 
ATOM     18  C   LIG    1        6.732  -0.731  -5.450  0.00  0.00    +0.040 C 
ATOM     19  C   LIG    1        6.767   0.028  -4.122  0.00  0.00    +0.010 C 
ENDBRANCH   5  14
BRANCH   1  20
ATOM     20  S   LIG    1        4.444   1.546  -2.276  0.00  0.00    +0.090 S 
BRANCH  20  21
ATOM     21  C   LIG    1        3.733   2.100  -0.706  0.00  0.00    +0.100 C 
BRANCH  21  24
ATOM     22  N   LIG    1        1.611   1.828   0.536  0.00  0.00    -0.710 N 
ATOM     23  H   LIG    1        1.984   2.389   1.234  0.00  0.00    +0.410 HD
ATOM     24  C   LIG    1        2.339   1.545  -0.563  0.00  0.00    +0.540 C 
ATOM     25  O   LIG    1        1.872   0.845  -1.435  0.00  0.00    -0.510 OA
BRANCH  22  26
ATOM     26  C   LIG    1        0.256   1.289   0.676  0.00  0.00    +0.290 C 
ATOM     27  C   LIG    1       -0.613   1.786  -0.481  0.00  0.00    +0.080 C 
BRANCH  26  29
ATOM     28  C   LIG    1       -0.515   3.277   1.977  0.00  0.00    +0.050 C 
ATOM     29  C   LIG    1       -0.345   1.757   2.002  0.00  0.00    +0.000 C 
ATOM     30  C   LIG    1       -1.709   1.095   2.207  0.00  0.00    +0.050 C 
ENDBRANCH  26  29
BRANCH  26  31
ATOM     31  C   LIG    1        0.308  -0.182   0.653  0.00  0.00    +0.200 C 
ATOM     32  N   LIG    1        0.349  -1.317   0.635  0.00  0.00    -0.410 NA
ENDBRANCH  26  31
ENDBRANCH  22  26
ENDBRANCH  21  24
ENDBRANCH  20  21
ENDBRANCH   1  20
TORSDOF 8
