REMARK  Name = ZINCvU0000000Ckg.0
REMARK                            x       y       z     vdW  Elec       q    Type
REMARK                         _______ _______ _______ _____ _____    ______ ____
ROOT
ATOM      1  C   LIG    1       -0.876  -1.691   3.079  0.00  0.00    +0.360 A 
ATOM      2  C   LIG    1       -1.924  -2.522   3.565  0.00  0.00    -0.130 A 
ATOM      3  C   LIG    1       -3.065  -3.007   2.914  0.00  0.00    +0.070 A 
ATOM      4  C   LIG    1       -3.864  -3.782   3.653  0.00  0.00    -0.120 A 
ATOM      5  S   LIG    1       -3.219  -3.973   5.275  0.00  0.00    +0.210 S 
ATOM      6  C   LIG    1       -1.832  -2.961   4.897  0.00  0.00    +0.080 A 
ATOM      7  N   LIG    1       -0.792  -2.579   5.637  0.00  0.00    -0.480 NA
ATOM      8  C   LIG    1        0.149  -1.806   5.141  0.00  0.00    +0.340 A 
ATOM      9  C   LIG    1        1.303  -1.405   6.024  0.00  0.00    +0.190 C 
ATOM     10  N   LIG    1        0.118  -1.368   3.899  0.00  0.00    -0.500 NA
ENDROOT
BRANCH   4  11
ATOM     11  C   LIG    1       -5.119  -4.395   3.171  0.00  0.00    -0.030 A 
ATOM     12  C   LIG    1       -5.548  -4.176   1.861  0.00  0.00    +0.030 A 
ATOM     13  C   LIG    1       -6.718  -4.755   1.415  0.00  0.00    +0.020 A 
ATOM     14  C   LIG    1       -7.471  -5.544   2.267  0.00  0.00    +0.020 A 
ATOM     15  C   LIG    1       -7.055  -5.760   3.569  0.00  0.00    +0.020 A 
ATOM     16  C   LIG    1       -5.884  -5.191   4.025  0.00  0.00    +0.010 A 
ENDBRANCH   4  11
BRANCH   1  18
ATOM     17  N   LIG    1        0.022  -0.500   1.381  0.00  0.00    -0.140 NA
ATOM     18  N   LIG    1       -0.894  -1.227   1.791  0.00  0.00    -0.200 NA
BRANCH  17  19
ATOM     19  C   LIG    1        0.002  -0.004   0.002  0.00  0.00    +0.260 C 
BRANCH  19  22
ATOM     20  C   LIG    1        1.153   3.594   0.010  0.00  0.00    +0.110 A 
ATOM     21  C   LIG    1        1.171   2.209   0.003  0.00  0.00    +0.000 A 
ATOM     22  C   LIG    1       -0.018   1.503   0.010  0.00  0.00    -0.080 A 
ATOM     23  C   LIG    1       -1.225   2.176   0.020  0.00  0.00    +0.030 A 
ATOM     24  C   LIG    1       -1.249   3.558   0.032  0.00  0.00    -0.030 A 
ATOM     25  C   LIG    1       -0.062   4.272   0.025  0.00  0.00    +0.110 A 
BRANCH  20  27
ATOM     26  C   LIG    1        3.531   3.528  -0.012  0.00  0.00    +0.240 C 
ATOM     27  O   LIG    1        2.322   4.290   0.003  0.00  0.00    -0.300 OA
ENDBRANCH  20  27
BRANCH  25  28
ATOM     28  O   LIG    1       -0.084   5.632   0.031  0.00  0.00    -0.300 OA
BRANCH  28  29
ATOM     29  C   LIG    1       -1.367   6.260   0.046  0.00  0.00    +0.380 C 
BRANCH  29  30
ATOM     30  C   LIG    1       -1.198   7.722   0.052  0.00  0.00    +0.210 C 
ATOM     31  N   LIG    1       -1.067   8.850   0.056  0.00  0.00    -0.390 NA
ENDBRANCH  29  30
ENDBRANCH  28  29
ENDBRANCH  25  28
ENDBRANCH  19  22
ENDBRANCH  17  19
ENDBRANCH   1  18
TORSDOF 8
