REMARK  Name = ZINCvU0000000CKg.1
REMARK                            x       y       z     vdW  Elec       q    Type
REMARK                         _______ _______ _______ _____ _____    ______ ____
ROOT
ATOM      1  C   LIG    1        3.612   6.000  -0.120  0.00  0.00    -0.170 A 
ATOM      2  C   LIG    1        4.835   5.326  -0.131  0.00  0.00    +0.070 A 
ATOM      3  C   LIG    1        6.005   6.027  -0.325  0.00  0.00    +0.000 A 
ATOM      4  C   LIG    1        5.975   7.401  -0.510  0.00  0.00    +0.090 A 
ATOM      5  C   LIG    1        4.775   8.081  -0.502  0.00  0.00    -0.020 A 
ATOM      6  C   LIG    1        3.584   7.390  -0.314  0.00  0.00    +0.230 A 
ENDROOT
BRANCH   1   8
ATOM      7  O   LIG    1        1.293   5.846   0.095  0.00  0.00    -0.520 OA
ATOM      8  C   LIG    1        2.357   5.255   0.087  0.00  0.00    +0.570 C 
ATOM      9  N   LIG    1        2.387   3.920   0.266  0.00  0.00    -0.660 N 
ATOM     10  H   LIG    1        3.238   3.457   0.324  0.00  0.00    +0.420 HD
BRANCH   9  11
ATOM     11  C   LIG    1        1.192   3.200   0.370  0.00  0.00    +0.160 A 
ATOM     12  C   LIG    1        0.087   3.772   0.986  0.00  0.00    +0.100 A 
ATOM     13  C   LIG    1       -1.093   3.059   1.087  0.00  0.00    -0.160 A 
ATOM     14  C   LIG    1       -1.175   1.780   0.570  0.00  0.00    +0.080 A 
ATOM     15  C   LIG    1       -0.076   1.204  -0.040  0.00  0.00    +0.060 A 
ATOM     16  C   LIG    1        1.107   1.911  -0.144  0.00  0.00    -0.040 A 
ATOM     17 CL   LIG    1        2.485   1.192  -0.916  0.00  0.00    -0.050 Cl
BRANCH  13  18
ATOM     18  C   LIG    1       -2.292   3.680   1.756  0.00  0.00    +0.510 C 
ATOM     19  F   LIG    1       -1.865   4.578   2.739  0.00  0.00    -0.170 F 
ATOM     20  F   LIG    1       -3.067   2.676   2.347  0.00  0.00    -0.170 F 
ATOM     21  F   LIG    1       -3.057   4.360   0.803  0.00  0.00    -0.170 F 
ENDBRANCH  13  18
ENDBRANCH   9  11
ENDBRANCH   1   8
BRANCH   6  22
ATOM     22  N   LIG    1        2.374   8.072  -0.311  0.00  0.00    -1.040 N 
ATOM     23  H   LIG    1        1.660   7.789   0.280  0.00  0.00    +0.440 HD
BRANCH  22  24
ATOM     24  S   LIG    1        2.152   9.368  -1.318  0.00  0.00    +2.690 S 
ATOM     25  O   LIG    1        3.235  10.255  -1.074  0.00  0.00    -0.940 OA
ATOM     26  O   LIG    1        0.790   9.749  -1.186  0.00  0.00    -0.940 OA
BRANCH  24  27
ATOM     27  C   LIG    1        2.348   8.785  -2.969  0.00  0.00    -0.690 A 
ATOM     28  C   LIG    1        3.595   8.805  -3.565  0.00  0.00    +0.160 A 
ATOM     29  C   LIG    1        3.751   8.343  -4.858  0.00  0.00    -0.020 A 
ATOM     30  C   LIG    1        2.655   7.871  -5.561  0.00  0.00    +0.160 A 
ATOM     31  C   LIG    1        1.405   7.858  -4.965  0.00  0.00    -0.020 A 
ATOM     32  F   LIG    1        2.805   7.425  -6.828  0.00  0.00    -0.130 F 
ATOM     33  C   LIG    1        1.253   8.314  -3.670  0.00  0.00    +0.170 A 
ENDBRANCH  24  27
ENDBRANCH  22  24
ENDBRANCH   6  22
TORSDOF 6
