REMARK  Name = ZINCpe000000Sv1b.0
REMARK                            x       y       z     vdW  Elec       q    Type
REMARK                         _______ _______ _______ _____ _____    ______ ____
ROOT
ATOM      1  C   LIG    1       -1.480   3.853   2.555  0.00  0.00    -0.130 A 
ATOM      2  C   LIG    1       -2.020   2.989   3.514  0.00  0.00    +0.160 A 
ATOM      3  C   LIG    1       -2.647   3.507   4.625  0.00  0.00    +0.000 A 
ATOM      4  C   LIG    1       -2.751   4.886   4.785  0.00  0.00    +0.190 A 
ATOM      5  C   LIG    1       -2.218   5.744   3.826  0.00  0.00    -0.040 A 
ATOM      6  C   LIG    1       -1.590   5.237   2.724  0.00  0.00    +0.180 A 
ENDROOT
BRANCH   4   7
ATOM      7  N   LIG    1       -3.388   5.408   5.904  0.00  0.00    -0.500 N 
ATOM      8  C   LIG    1       -2.667   5.052   7.135  0.00  0.00    +0.170 C 
ATOM      9  C   LIG    1       -3.368   5.695   8.335  0.00  0.00    +0.250 C 
ATOM     10  O   LIG    1       -4.734   5.273   8.366  0.00  0.00    -0.380 OA
ATOM     11  C   LIG    1       -5.466   5.605   7.183  0.00  0.00    +0.250 C 
ATOM     12  C   LIG    1       -4.787   4.960   5.971  0.00  0.00    +0.170 C 
ENDBRANCH   4   7
BRANCH   5  13
ATOM     13  N   LIG    1       -2.332   7.209   4.001  0.00  0.00    +0.030 N 
ATOM     14  O   LIG    1       -2.891   7.663   4.983  0.00  0.00    -0.090 OA
ATOM     15  O   LIG    1       -1.867   7.960   3.163  0.00  0.00    -0.180 OA
ENDBRANCH   5  13
BRANCH   1  16
ATOM     16  C   LIG    1       -0.803   3.305   1.366  0.00  0.00    +0.520 C 
ATOM     17  O   LIG    1       -0.339   4.056   0.531  0.00  0.00    -0.490 OA
BRANCH  16  18
ATOM     18  O   LIG    1       -0.698   1.971   1.205  0.00  0.00    -0.330 OA
BRANCH  18  19
ATOM     19  C   LIG    1       -0.018   1.503   0.010  0.00  0.00    +0.270 C 
BRANCH  19  22
ATOM     20  N   LIG    1        0.585  -0.664  -1.018  0.00  0.00    -0.720 N 
ATOM     21  H   LIG    1        0.992  -0.170  -1.747  0.00  0.00    +0.410 HD
ATOM     22  C   LIG    1        0.002  -0.004   0.002  0.00  0.00    +0.520 C 
ATOM     23  O   LIG    1       -0.506  -0.622   0.913  0.00  0.00    -0.520 OA
BRANCH  20  24
ATOM     24  C   LIG    1        0.605  -2.129  -1.026  0.00  0.00    +0.310 C 
BRANCH  24  26
ATOM     25  C   LIG    1        2.328  -3.434  -2.162  0.00  0.00    +0.050 C 
ATOM     26  C   LIG    1        1.310  -2.615  -2.266  0.00  0.00    -0.070 C 
ENDBRANCH  24  26
ENDBRANCH  20  24
ENDBRANCH  19  22
ENDBRANCH  18  19
ENDBRANCH  16  18
ENDBRANCH   1  16
TORSDOF 8
