REMARK  Name = ZINCtV00001bB3BZ.0
REMARK                            x       y       z     vdW  Elec       q    Type
REMARK                         _______ _______ _______ _____ _____    ______ ____
ROOT
ATOM      1  C   LIG    1        6.020   2.382   0.119  0.00  0.00    -0.100 A 
ATOM      2  C   LIG    1        4.888   1.639  -0.067  0.00  0.00    +0.070 A 
ATOM      3  C   LIG    1        3.628   2.238   0.079  0.00  0.00    -0.120 A 
ATOM      4  C   LIG    1        3.539   3.598   0.409  0.00  0.00    +0.050 A 
ATOM      5  C   LIG    1        4.677   4.329   0.598  0.00  0.00    -0.090 A 
ATOM      6  C   LIG    1        5.924   3.729   0.453  0.00  0.00    +0.150 A 
ENDROOT
BRANCH   1   8
ATOM      7  C   LIG    1        7.201   0.265  -0.404  0.00  0.00    +0.030 C 
ATOM      8  C   LIG    1        7.374   1.740  -0.037  0.00  0.00    -0.020 C 
ATOM      9  C   LIG    1        8.147   1.852   1.279  0.00  0.00    +0.040 C 
ATOM     10  C   LIG    1        8.151   2.453  -1.146  0.00  0.00    +0.040 C 
ENDBRANCH   1   8
BRANCH   5  11
ATOM     11  C   LIG    1        4.582   5.789   0.960  0.00  0.00    -0.020 C 
ATOM     12  C   LIG    1        5.273   6.627  -0.118  0.00  0.00    +0.040 C 
ATOM     13  C   LIG    1        5.267   6.026   2.307  0.00  0.00    +0.050 C 
ATOM     14  C   LIG    1        3.111   6.196   1.057  0.00  0.00    +0.030 C 
ENDBRANCH   5  11
BRANCH   3  15
ATOM     15  C   LIG    1        2.412   1.448  -0.119  0.00  0.00    +0.260 C 
ATOM     16  C   LIG    1        1.281   1.727   0.618  0.00  0.00    -0.140 C 
BRANCH  16  17
ATOM     17  C   LIG    1        0.017   1.039   0.313  0.00  0.00    +0.580 C 
ATOM     18  N   LIG    1       -1.090   1.316   1.031  0.00  0.00    -0.670 N 
ATOM     19  H   LIG    1       -1.036   1.907   1.798  0.00  0.00    +0.410 HD
ATOM     20  O   LIG    1       -0.031   0.225  -0.589  0.00  0.00    -0.500 OA
BRANCH  18  21
ATOM     21  C   LIG    1       -2.317   0.752   0.668  0.00  0.00    +0.180 A 
ATOM     22  C   LIG    1       -2.356  -0.484   0.036  0.00  0.00    +0.040 A 
ATOM     23  C   LIG    1       -3.569  -1.039  -0.320  0.00  0.00    +0.060 A 
ATOM     24  C   LIG    1       -4.746  -0.366  -0.047  0.00  0.00    +0.000 A 
ATOM     25  C   LIG    1       -4.712   0.865   0.582  0.00  0.00    +0.060 A 
ATOM     26  C   LIG    1       -3.502   1.424   0.946  0.00  0.00    -0.130 A 
ATOM     27  I   LIG    1       -3.452   3.284   1.907  0.00  0.00    -0.040 I 
ENDBRANCH  18  21
ENDBRANCH  16  17
BRANCH  16  28
ATOM     28  C   LIG    1        1.337   2.686   1.679  0.00  0.00    +0.240 C 
ATOM     29  N   LIG    1        1.382   3.446   2.522  0.00  0.00    -0.390 NA
ENDBRANCH  16  28
ENDBRANCH   3  15
BRANCH   6  30
ATOM     30  O   LIG    1        7.051   4.461   0.636  0.00  0.00    -0.480 OA
ATOM     31  H   LIG    1        7.380   4.886  -0.168  0.00  0.00    +0.390 HD
ENDBRANCH   6  30
TORSDOF 7
