REMARK  Name = ZINCvU0000000C7r.0
REMARK                            x       y       z     vdW  Elec       q    Type
REMARK                         _______ _______ _______ _____ _____    ______ ____
ROOT
ATOM      1  N   LIG    1        0.004   1.081   4.952  0.00  0.00    -0.480 N 
ATOM      2  C   LIG    1        1.029   1.726   5.614  0.00  0.00    +0.060 A 
ATOM      3  C   LIG    1        1.693   2.930   5.427  0.00  0.00    +0.010 A 
ATOM      4  C   LIG    1        2.703   3.295   6.292  0.00  0.00    +0.040 A 
ATOM      5  C   LIG    1        3.059   2.466   7.346  0.00  0.00    +0.000 A 
ATOM      6  C   LIG    1        2.417   1.277   7.545  0.00  0.00    +0.070 A 
ATOM      7  C   LIG    1        1.390   0.887   6.682  0.00  0.00    +0.040 A 
ATOM      8  N   LIG    1        0.583  -0.204   6.618  0.00  0.00    -0.470 NA
ATOM      9  C   LIG    1       -0.231  -0.087   5.610  0.00  0.00    +0.260 A 
ENDROOT
BRANCH   1  10
ATOM     10  C   LIG    1       -0.705   1.566   3.765  0.00  0.00    +0.310 C 
BRANCH  10  11
ATOM     11  C   LIG    1        0.011   1.072   2.506  0.00  0.00    +0.020 C 
BRANCH  11  12
ATOM     12  C   LIG    1       -0.729   1.579   1.267  0.00  0.00    +0.040 C 
BRANCH  12  13
ATOM     13  C   LIG    1       -0.013   1.086   0.008  0.00  0.00    +0.190 C 
BRANCH  13  14
ATOM     14  O   LIG    1       -0.704   1.559  -1.150  0.00  0.00    -0.310 OA
BRANCH  14  18
ATOM     15  C   LIG    1       -0.971   1.734  -6.020  0.00  0.00    +0.110 C 
ATOM     16  C   LIG    1       -0.296   1.274  -4.754  0.00  0.00    -0.030 A 
ATOM     17  C   LIG    1       -0.818   1.628  -3.525  0.00  0.00    +0.000 A 
ATOM     18  C   LIG    1       -0.194   1.208  -2.360  0.00  0.00    +0.140 A 
ATOM     19  C   LIG    1        0.948   0.423  -2.430  0.00  0.00    -0.060 A 
ATOM     20  C   LIG    1        1.464   0.066  -3.661  0.00  0.00    +0.080 A 
ATOM     21  C   LIG    1        0.843   0.491  -4.822  0.00  0.00    -0.080 A 
ATOM     22 CL   LIG    1        1.495   0.042  -6.368  0.00  0.00    -0.070 Cl
ENDBRANCH  14  18
ENDBRANCH  13  14
ENDBRANCH  12  13
ENDBRANCH  11  12
ENDBRANCH  10  11
ENDBRANCH   1  10
BRANCH   9  23
ATOM     23  C   LIG    1       -1.278  -1.100   5.224  0.00  0.00    +0.400 C 
BRANCH  23  24
ATOM     24  N   LIG    1       -0.700  -2.068   4.290  0.00  0.00    -0.720 N 
ATOM     25  H   LIG    1        0.228  -1.987   4.019  0.00  0.00    +0.410 HD
ATOM     26  C   LIG    1       -1.456  -3.073   3.806  0.00  0.00    +0.610 C 
ATOM     27  O   LIG    1       -2.621  -3.176   4.146  0.00  0.00    -0.510 OA
BRANCH  26  28
ATOM     28  C   LIG    1       -0.877  -4.043   2.870  0.00  0.00    -0.090 A 
ATOM     29  C   LIG    1       -1.528  -5.106   2.312  0.00  0.00    +0.050 A 
ATOM     30  C   LIG    1       -0.600  -5.756   1.484  0.00  0.00    -0.060 A 
ATOM     31  C   LIG    1        0.564  -5.076   1.579  0.00  0.00    +0.210 A 
ATOM     32  O   LIG    1        0.393  -4.044   2.415  0.00  0.00    -0.170 OA
ENDBRANCH  26  28
ENDBRANCH  23  24
ENDBRANCH   9  23
TORSDOF 9
