REMARK  Name = ZINCvU00000004DP.0
REMARK                            x       y       z     vdW  Elec       q    Type
REMARK                         _______ _______ _______ _____ _____    ______ ____
ROOT
ATOM      1  C   LIG    1        3.833   5.979  -1.088  0.00  0.00    -0.000 A 
ATOM      2  C   LIG    1        3.602   5.194  -0.004  0.00  0.00    -0.080 A 
ATOM      3  C   LIG    1        3.867   6.029   1.166  0.00  0.00    -0.130 A 
ATOM      4  C   LIG    1        3.818   5.816   2.546  0.00  0.00    +0.070 A 
ATOM      5  C   LIG    1        4.136   6.835   3.400  0.00  0.00    +0.010 A 
ATOM      6  C   LIG    1        4.505   8.078   2.906  0.00  0.00    +0.060 A 
ATOM      7  C   LIG    1        4.559   8.308   1.548  0.00  0.00    +0.030 A 
ATOM      8  C   LIG    1        4.241   7.288   0.659  0.00  0.00    +0.070 A 
ATOM      9  O   LIG    1        4.203   7.213  -0.685  0.00  0.00    -0.180 OA
ENDROOT
BRANCH   1  12
ATOM     10  N   LIG    1        3.953   6.420  -3.485  0.00  0.00    -0.710 N 
ATOM     11  H   LIG    1        4.228   7.328  -3.280  0.00  0.00    +0.410 HD
ATOM     12  C   LIG    1        3.696   5.552  -2.487  0.00  0.00    +0.600 C 
ATOM     13  O   LIG    1        3.352   4.414  -2.745  0.00  0.00    -0.500 OA
BRANCH  10  14
ATOM     14  C   LIG    1        3.817   5.994  -4.880  0.00  0.00    +0.340 C 
BRANCH  14  18
ATOM     15  C   LIG    1        4.781   9.259  -7.469  0.00  0.00    +0.110 A 
ATOM     16  C   LIG    1        3.477   9.072  -7.042  0.00  0.00    -0.040 A 
ATOM     17  C   LIG    1        3.168   8.012  -6.208  0.00  0.00    +0.040 A 
ATOM     18  C   LIG    1        4.159   7.144  -5.792  0.00  0.00    -0.110 A 
ATOM     19  C   LIG    1        5.463   7.325  -6.216  0.00  0.00    -0.010 A 
ATOM     20  C   LIG    1        5.779   8.381  -7.055  0.00  0.00    +0.100 A 
BRANCH  15  22
ATOM     21  C   LIG    1        4.012  11.157  -8.678  0.00  0.00    +0.240 C 
ATOM     22  O   LIG    1        5.086  10.297  -8.293  0.00  0.00    -0.310 OA
ENDBRANCH  15  22
BRANCH  20  23
ATOM     23  O   LIG    1        7.061   8.560  -7.472  0.00  0.00    -0.310 OA
ATOM     24  C   LIG    1        8.032   7.621  -7.006  0.00  0.00    +0.240 C 
ENDBRANCH  20  23
ENDBRANCH  14  18
ENDBRANCH  10  14
ENDBRANCH   1  12
BRANCH   2  25
ATOM     25  C   LIG    1        3.166   3.751  -0.008  0.00  0.00    +0.170 C 
BRANCH  25  26
ATOM     26  S   LIG    1        1.358   3.666   0.009  0.00  0.00    +0.040 S 
BRANCH  26  27
ATOM     27  C   LIG    1        1.134   1.919   0.002  0.00  0.00    +0.020 A 
ATOM     28  N   LIG    1       -0.016   1.317   0.009  0.00  0.00    -0.450 NA
ATOM     29  C   LIG    1        0.002  -0.004   0.002  0.00  0.00    +0.080 A 
ATOM     30  C   LIG    1        1.222  -0.542  -0.013  0.00  0.00    -0.080 A 
ATOM     31  C   LIG    1       -1.255  -0.836   0.009  0.00  0.00    +0.160 C 
ATOM     32  S   LIG    1        2.399   0.769  -0.017  0.00  0.00    +0.130 S 
ENDBRANCH  26  27
ENDBRANCH  25  26
ENDBRANCH   2  25
TORSDOF 8
