REMARK  Name = ZINCpk000000nied.0
REMARK                            x       y       z     vdW  Elec       q    Type
REMARK                         _______ _______ _______ _____ _____    ______ ____
ROOT
ATOM      1  C   LIG    1       -1.193  -0.922   0.009  0.00  0.00    +0.170 C 
ENDROOT
BRANCH   1   2
ATOM      2  C   LIG    1       -2.090  -0.583   1.201  0.00  0.00    -0.080 C 
ATOM      3  C   LIG    1       -3.348  -1.479   1.204  0.00  0.00    +0.040 C 
ATOM      4  C   LIG    1       -4.520  -0.476   1.069  0.00  0.00    +0.210 C 
ATOM      5  O   LIG    1       -3.998   0.772   1.574  0.00  0.00    -0.370 OA
ATOM      6  C   LIG    1       -2.647   0.852   1.068  0.00  0.00    +0.250 C 
BRANCH   2   7
ATOM      7  C   LIG    1       -1.329  -0.736   2.493  0.00  0.00    +0.480 C 
ATOM      8  O   LIG    1       -1.718  -1.510   3.335  0.00  0.00    -0.500 OA
BRANCH   7   9
ATOM      9  O   LIG    1       -0.220  -0.011   2.709  0.00  0.00    -0.340 OA
BRANCH   9  11
ATOM     10  C   LIG    1        0.895  -1.672   4.097  0.00  0.00    +0.030 C 
ATOM     11  C   LIG    1        0.461  -0.210   3.975  0.00  0.00    +0.120 C 
ATOM     12  C   LIG    1       -0.487   0.138   5.125  0.00  0.00    +0.030 C 
ATOM     13  C   LIG    1        1.693   0.695   4.039  0.00  0.00    +0.070 C 
ENDBRANCH   9  11
ENDBRANCH   7   9
ENDBRANCH   2   7
ENDBRANCH   1   2
BRANCH   1  14
ATOM     14  C   LIG    1        0.002  -0.004   0.002  0.00  0.00    -0.010 A 
ATOM     15  C   LIG    1        1.305  -0.371  -0.012  0.00  0.00    +0.160 A 
ATOM     16  N   LIG    1        2.020   0.778  -0.013  0.00  0.00    -0.290 N 
ATOM     17  N   LIG    1        1.195   1.766   0.000  0.00  0.00    -0.080 NA
ATOM     18  N   LIG    1       -0.016   1.333   0.009  0.00  0.00    -0.250 NA
BRANCH  16  19
ATOM     19  C   LIG    1        3.481   0.880  -0.027  0.00  0.00    +0.330 C 
BRANCH  19  20
ATOM     20  C   LIG    1        3.921   1.747  -1.208  0.00  0.00    +0.310 C 
BRANCH  20  21
ATOM     21  N   LIG    1        5.382   1.849  -1.222  0.00  0.00    -0.460 N 
ATOM     22  C   LIG    1        6.249   1.008  -1.867  0.00  0.00    +0.120 A 
ATOM     23  C   LIG    1        7.492   1.464  -1.618  0.00  0.00    +0.150 A 
ATOM     24  N   LIG    1        7.387   2.552  -0.842  0.00  0.00    -0.490 NA
ATOM     25  C   LIG    1        6.126   2.792  -0.605  0.00  0.00    +0.400 A 
ENDBRANCH  20  21
ENDBRANCH  19  20
ENDBRANCH  16  19
ENDBRANCH   1  14
TORSDOF 8
