REMARK  Name = ZINCtV00000vppsp.0
REMARK                            x       y       z     vdW  Elec       q    Type
REMARK                         _______ _______ _______ _____ _____    ______ ____
ROOT
ATOM      1  C   LIG    1        0.677   1.578  -3.341  0.00  0.00    +0.430 A 
ATOM      2  C   LIG    1       -0.494   1.867  -2.596  0.00  0.00    -0.160 A 
ATOM      3  C   LIG    1       -1.558   2.475  -3.259  0.00  0.00    +0.110 A 
ATOM      4  S   LIG    1       -2.882   2.729  -2.137  0.00  0.00    +0.220 S 
ATOM      5  C   LIG    1       -1.985   2.015  -0.798  0.00  0.00    -0.200 A 
ATOM      6  C   LIG    1       -2.198   1.722   0.684  0.00  0.00    +0.130 C 
ATOM      7  C   LIG    1       -0.780   1.494   1.252  0.00  0.00    +0.050 C 
ATOM      8  C   LIG    1       -0.025   1.005  -0.001  0.00  0.00    +0.100 C 
ATOM      9  N   LIG    1       -1.436   2.763  -4.561  0.00  0.00    -0.490 NA
ATOM     10  C   LIG    1       -0.326   2.476  -5.216  0.00  0.00    +0.410 A 
ATOM     11  C   LIG    1       -0.779   1.619  -1.181  0.00  0.00    -0.070 A 
ATOM     12  N   LIG    1        0.713   1.895  -4.623  0.00  0.00    -0.570 NA
ENDROOT
BRANCH  10  13
ATOM     13  C   LIG    1       -0.235   2.812  -6.657  0.00  0.00    -0.040 A 
ATOM     14  C   LIG    1       -1.348   3.313  -7.330  0.00  0.00    +0.100 A 
ATOM     15  C   LIG    1       -1.257   3.629  -8.670  0.00  0.00    +0.020 A 
ATOM     16  C   LIG    1       -0.065   3.439  -9.349  0.00  0.00    -0.010 A 
ATOM     17  C   LIG    1        1.042   2.937  -8.686  0.00  0.00    +0.020 A 
ATOM     18 CL   LIG    1        0.042   3.833 -11.036  0.00  0.00    -0.060 Cl
ATOM     19  C   LIG    1        0.963   2.623  -7.345  0.00  0.00    +0.080 A 
ENDBRANCH  10  13
BRANCH   1  20
ATOM     20  O   LIG    1        1.742   0.987  -2.748  0.00  0.00    -0.220 OA
BRANCH  20  26
ATOM     21  C   LIG    1        3.815   1.847  -3.537  0.00  0.00    -0.050 A 
ATOM     22  C   LIG    1        4.965   1.684  -4.284  0.00  0.00    +0.120 A 
ATOM     23  C   LIG    1        5.180   0.506  -4.976  0.00  0.00    +0.050 A 
ATOM     24  C   LIG    1        4.245  -0.511  -4.922  0.00  0.00    +0.100 A 
ATOM     25  C   LIG    1        3.095  -0.355  -4.172  0.00  0.00    +0.040 A 
ATOM     26  C   LIG    1        2.874   0.828  -3.482  0.00  0.00    +0.160 A 
BRANCH  21  28
ATOM     27  O   LIG    1        4.410   4.003  -2.847  0.00  0.00    -0.150 OA
ATOM     28  N   LIG    1        3.585   3.108  -2.798  0.00  0.00    +0.030 N 
ATOM     29  O   LIG    1        2.570   3.252  -2.140  0.00  0.00    -0.150 OA
ENDBRANCH  21  28
ENDBRANCH  20  26
ENDBRANCH   1  20
TORSDOF 4
