REMARK  Name = ZINCrH000004t2KC.0
REMARK                            x       y       z     vdW  Elec       q    Type
REMARK                         _______ _______ _______ _____ _____    ______ ____
ROOT
ATOM      1  C   LIG    1       -0.844  -0.050  -1.148  0.00  0.00    +0.500 A 
ATOM      2  C   LIG    1       -0.321  -0.702  -2.232  0.00  0.00    -0.150 A 
ATOM      3  C   LIG    1        0.091   0.047  -3.344  0.00  0.00    +0.310 A 
ATOM      4  N   LIG    1       -0.026   1.367  -3.340  0.00  0.00    -0.500 NA
ATOM      5  C   LIG    1       -0.536   2.009  -2.285  0.00  0.00    +0.490 A 
ATOM      6  N   LIG    1       -0.755   3.296  -2.039  0.00  0.00    -0.540 NA
ATOM      7  C   LIG    1       -1.286   3.438  -0.831  0.00  0.00    +0.490 A 
ATOM      8  N   LIG    1       -1.419   2.263  -0.268  0.00  0.00    -0.350 NA
ATOM      9  N   LIG    1       -0.949   1.312  -1.183  0.00  0.00    -0.360 N 
ENDROOT
BRANCH   3  10
ATOM     10  C   LIG    1        0.660  -0.640  -4.528  0.00  0.00    -0.060 A 
ATOM     11  C   LIG    1        0.791  -2.028  -4.535  0.00  0.00    +0.050 A 
ATOM     12  C   LIG    1        1.318  -2.663  -5.642  0.00  0.00    +0.000 A 
ATOM     13  C   LIG    1        1.724  -1.924  -6.739  0.00  0.00    +0.030 A 
ATOM     14  C   LIG    1        1.601  -0.546  -6.735  0.00  0.00    +0.000 A 
ATOM     15  C   LIG    1        1.071   0.099  -5.636  0.00  0.00    +0.080 A 
ENDBRANCH   3  10
BRANCH   1  16
ATOM     16  N   LIG    1       -1.258  -0.755  -0.039  0.00  0.00    -0.700 N 
ATOM     17  H   LIG    1       -1.573  -0.282   0.747  0.00  0.00    +0.420 HD
BRANCH  16  18
ATOM     18  C   LIG    1       -1.223  -2.220  -0.047  0.00  0.00    +0.340 C 
BRANCH  18  22
ATOM     19  C   LIG    1       -4.260  -4.970  -2.936  0.00  0.00    +0.360 C 
ATOM     20  N   LIG    1       -3.766  -3.949  -2.007  0.00  0.00    -0.370 N 
ATOM     21  C   LIG    1       -2.488  -3.797  -1.602  0.00  0.00    +0.250 A 
ATOM     22  C   LIG    1       -2.449  -2.748  -0.748  0.00  0.00    -0.260 A 
ATOM     23  C   LIG    1       -3.746  -2.237  -0.634  0.00  0.00    +0.250 A 
ATOM     24  N   LIG    1       -4.536  -2.956  -1.389  0.00  0.00    -0.290 NA
ENDBRANCH  18  22
BRANCH  18  25
ATOM     25  C   LIG    1       -1.196  -2.738   1.392  0.00  0.00    -0.070 C 
ATOM     26  C   LIG    1        0.053  -2.209   2.100  0.00  0.00    +0.030 C 
ATOM     27  C   LIG    1       -1.168  -4.267   1.383  0.00  0.00    +0.040 C 
ATOM     28  C   LIG    1       -2.445  -2.255   2.132  0.00  0.00    +0.030 C 
ENDBRANCH  18  25
ENDBRANCH  16  18
ENDBRANCH   1  16
TORSDOF 5
