REMARK  Name = ZINCrg000000nIC1.0
REMARK                            x       y       z     vdW  Elec       q    Type
REMARK                         _______ _______ _______ _____ _____    ______ ____
ROOT
ATOM      1  C   LIG    1       -0.014   1.209   0.009  0.00  0.00    +0.520 C 
ATOM      2  N   LIG    1       -1.191   1.867   0.018  0.00  0.00    -0.720 N 
ATOM      3  H   LIG    1       -1.204   2.837   0.023  0.00  0.00    +0.400 HD
ATOM      4  O   LIG    1        0.002  -0.004   0.002  0.00  0.00    -0.530 OA
ENDROOT
BRANCH   1   9
ATOM      5  N   LIG    1        3.708   1.763   0.109  0.00  0.00    -1.000 NA
ATOM      6  C   LIG    1        3.856   2.701   1.231  0.00  0.00    +0.290 C 
ATOM      7  C   LIG    1        2.663   3.661   1.232  0.00  0.00    +0.020 C 
ATOM      8  C   LIG    1        1.363   2.853   1.255  0.00  0.00    +0.030 C 
ATOM      9  C   LIG    1        1.280   1.980   0.001  0.00  0.00    -0.030 C 
ATOM     10  C   LIG    1        2.458   1.001  -0.014  0.00  0.00    +0.330 C 
BRANCH   5  11
ATOM     11  S   LIG    1        4.927   1.570  -0.995  0.00  0.00    +2.600 S 
ATOM     12  O   LIG    1        4.738   0.255  -1.500  0.00  0.00    -0.950 OA
ATOM     13  O   LIG    1        6.106   1.918  -0.281  0.00  0.00    -0.950 OA
BRANCH  11  14
ATOM     14  C   LIG    1        4.574   2.801  -2.280  0.00  0.00    -0.370 C 
BRANCH  14  16
ATOM     15  C   LIG    1        5.345   3.760  -4.454  0.00  0.00    +0.030 C 
ATOM     16  C   LIG    1        5.643   2.721  -3.371  0.00  0.00    +0.040 C 
ENDBRANCH  14  16
ENDBRANCH  11  14
ENDBRANCH   5  11
ENDBRANCH   1   9
BRANCH   2  17
ATOM     17  C   LIG    1       -2.449   1.117   0.020  0.00  0.00    +0.230 C 
ATOM     18  C   LIG    1       -2.835   0.762  -1.419  0.00  0.00    +0.030 C 
ATOM     19  C   LIG    1       -4.181   0.032  -1.415  0.00  0.00    +0.220 C 
ATOM     20  N   LIG    1       -5.205   0.895  -0.813  0.00  0.00    -0.460 N 
ATOM     21  C   LIG    1       -4.880   1.211   0.583  0.00  0.00    +0.230 C 
ATOM     22  C   LIG    1       -3.555   1.975   0.640  0.00  0.00    +0.030 C 
BRANCH  20  23
ATOM     23  C   LIG    1       -6.460   0.319  -0.912  0.00  0.00    +0.490 A 
ATOM     24  N   LIG    1       -7.171   0.126   0.189  0.00  0.00    -0.550 NA
ATOM     25  C   LIG    1       -8.376  -0.417   0.129  0.00  0.00    +0.340 A 
ATOM     26  C   LIG    1       -8.886  -0.796  -1.103  0.00  0.00    -0.110 A 
ATOM     27  C   LIG    1       -8.113  -0.585  -2.234  0.00  0.00    +0.350 A 
ATOM     28  N   LIG    1       -6.918  -0.032  -2.105  0.00  0.00    -0.530 NA
ENDBRANCH  20  23
ENDBRANCH   2  17
TORSDOF 6
