REMARK  Name = ZINCtV00000wL3pQ.0
REMARK                            x       y       z     vdW  Elec       q    Type
REMARK                         _______ _______ _______ _____ _____    ______ ____
ROOT
ATOM      1  C   LIG    1        0.098   0.082   0.066  0.00  0.00    +0.200 A 
ATOM      2  N   LIG    1        1.133  -0.725   0.015  0.00  0.00    -0.480 NA
ATOM      3  C   LIG    1        0.712  -1.996  -0.001  0.00  0.00    +0.200 A 
ATOM      4  C   LIG    1       -0.646  -1.994   0.032  0.00  0.00    +0.020 A 
ATOM      5  N   LIG    1       -1.039  -0.667   0.074  0.00  0.00    -0.430 N 
ENDROOT
BRANCH   4   6
ATOM      6  C   LIG    1       -1.531  -3.177   0.024  0.00  0.00    +0.000 A 
ATOM      7  C   LIG    1       -2.903  -3.025  -0.186  0.00  0.00    +0.010 A 
ATOM      8  C   LIG    1       -3.723  -4.134  -0.199  0.00  0.00    +0.040 A 
ATOM      9  C   LIG    1       -3.190  -5.395   0.008  0.00  0.00    -0.040 A 
ATOM     10  C   LIG    1       -1.831  -5.552   0.223  0.00  0.00    +0.040 A 
ATOM     11 CL   LIG    1       -4.230  -6.785  -0.001  0.00  0.00    -0.060 Cl
ATOM     12  C   LIG    1       -1.000  -4.452   0.232  0.00  0.00    +0.050 A 
ENDBRANCH   4   6
BRANCH   1  13
ATOM     13  S   LIG    1        0.168   1.842   0.108  0.00  0.00    -0.000 S 
BRANCH  13  14
ATOM     14  C   LIG    1        1.961   2.086   0.071  0.00  0.00    +0.080 C 
BRANCH  14  15
ATOM     15  C   LIG    1        2.273   3.584   0.101  0.00  0.00    +0.120 C 
BRANCH  15  16
ATOM     16  C   LIG    1        3.788   3.790   0.069  0.00  0.00    +0.040 C 
ATOM     17  N   LIG    1        4.619   2.784  -0.597  0.00  0.00    -0.110 NA
ATOM     18  N   LIG    1        4.649   2.753   0.644  0.00  0.00    -0.110 NA
BRANCH  16  19
ATOM     19  C   LIG    1        4.274   5.241   0.094  0.00  0.00    +0.120 C 
BRANCH  19  20
ATOM     20  C   LIG    1        5.803   5.268   0.058  0.00  0.00    +0.160 C 
BRANCH  20  22
ATOM     21  C   LIG    1        6.643   7.777   0.100  0.00  0.00    +0.030 C 
ATOM     22  C   LIG    1        6.270   6.663   0.081  0.00  0.00    -0.190 C 
ENDBRANCH  20  22
ENDBRANCH  19  20
ENDBRANCH  16  19
ENDBRANCH  15  16
ENDBRANCH  14  15
ENDBRANCH  13  14
ENDBRANCH   1  13
BRANCH   5  23
ATOM     23  C   LIG    1       -2.415  -0.166   0.120  0.00  0.00    +0.360 C 
BRANCH  23  24
ATOM     24  C   LIG    1       -2.852   0.227  -1.268  0.00  0.00    -0.120 A 
ATOM     25  C   LIG    1       -2.515   1.469  -1.773  0.00  0.00    +0.040 A 
ATOM     26  C   LIG    1       -2.912   1.827  -3.048  0.00  0.00    +0.010 A 
ATOM     27  C   LIG    1       -3.655   0.948  -3.813  0.00  0.00    +0.020 A 
ATOM     28  C   LIG    1       -3.997  -0.291  -3.306  0.00  0.00    +0.010 A 
ATOM     29  C   LIG    1       -3.595  -0.652  -2.033  0.00  0.00    +0.020 A 
ENDBRANCH  23  24
ENDBRANCH   5  23
TORSDOF 10
