REMARK  Name = ZINCkj000005kvD4.0
REMARK                            x       y       z     vdW  Elec       q    Type
REMARK                         _______ _______ _______ _____ _____    ______ ____
ROOT
ATOM      1  C   LIG    1       -0.014   1.211   0.009  0.00  0.00    +0.590 C 
ATOM      2  N   LIG    1       -1.134   1.900   0.304  0.00  0.00    -0.540 N 
ATOM      3  C   LIG    1       -2.356   1.197   0.719  0.00  0.00    +0.330 C 
ATOM      4  C   LIG    1       -2.937   1.950   1.928  0.00  0.00    +0.150 C 
ATOM      5  C   LIG    1       -3.335   3.358   1.485  0.00  0.00    +0.120 C 
ATOM      6  C   LIG    1       -2.190   4.030   0.774  0.00  0.00    -0.130 A 
ATOM      7  C   LIG    1       -2.181   5.411   0.675  0.00  0.00    +0.040 A 
ATOM      8  C   LIG    1       -1.149   6.057   0.021  0.00  0.00    +0.000 A 
ATOM      9  C   LIG    1       -0.118   5.326  -0.540  0.00  0.00    +0.060 A 
ATOM     10  C   LIG    1       -0.118   3.949  -0.444  0.00  0.00    +0.030 A 
ATOM     11  C   LIG    1       -1.155   3.297   0.215  0.00  0.00    +0.150 A 
ATOM     12  O   LIG    1        1.025   1.803  -0.205  0.00  0.00    -0.450 OA
ENDROOT
BRANCH   1  18
ATOM     13  C   LIG    1        2.394  -3.016  -0.323  0.00  0.00    +0.160 C 
ATOM     14  C   LIG    1        1.095  -2.262  -0.206  0.00  0.00    +0.190 A 
ATOM     15  C   LIG    1       -0.112  -2.946  -0.155  0.00  0.00    -0.030 A 
ATOM     16  C   LIG    1       -1.285  -2.212  -0.048  0.00  0.00    +0.330 A 
ATOM     17  N   LIG    1       -1.218  -0.894   0.007  0.00  0.00    -0.520 NA
ATOM     18  C   LIG    1       -0.049  -0.273  -0.050  0.00  0.00    +0.280 A 
ATOM     19  N   LIG    1        1.089  -0.942  -0.152  0.00  0.00    -0.460 NA
ENDBRANCH   1  18
BRANCH   4  20
ATOM     20  N   LIG    1       -4.121   1.240   2.430  0.00  0.00    -0.630 N 
ATOM     21  H   LIG    1       -4.506   1.742   3.216  0.00  0.00    +0.440 HD
ATOM     22  H   LIG    1       -3.856   0.311   2.723  0.00  0.00    +0.440 HD
ATOM     23  H   LIG    1       -4.812   1.178   1.698  0.00  0.00    +0.440 HD
ENDBRANCH   4  20
TORSDOF 2
