REMARK  Name = ZINC9p0000002icn.0
REMARK                            x       y       z     vdW  Elec       q    Type
REMARK                         _______ _______ _______ _____ _____    ______ ____
ROOT
ATOM      1  C   LIG    1       -0.729   1.579   1.267  0.00  0.00    +0.010 C 
ATOM      2  C   LIG    1       -0.013   1.086   0.008  0.00  0.00    -0.010 C 
ATOM      3  C   LIG    1       -0.753   1.593  -1.232  0.00  0.00    +0.050 C 
ATOM      4  C   LIG    1       -0.773   3.123  -1.223  0.00  0.00    +0.040 C 
ATOM      5  C   LIG    1        0.662   3.652  -1.234  0.00  0.00    +0.060 C 
ATOM      6  C   LIG    1        1.402   3.145   0.006  0.00  0.00    +0.040 C 
ATOM      7  C   LIG    1        1.378   3.159  -2.493  0.00  0.00    +0.090 C 
ATOM      8  C   LIG    1        1.423   1.615  -0.003  0.00  0.00    +0.050 C 
ENDROOT
BRANCH   5   9
ATOM      9  N   LIG    1        0.642   5.121  -1.226  0.00  0.00    -0.640 N 
ATOM     10  H   LIG    1        0.170   5.446  -0.396  0.00  0.00    +0.430 HD
ATOM     11  H   LIG    1        0.154   5.455  -2.043  0.00  0.00    +0.430 HD
ATOM     12  H   LIG    1        1.589   5.470  -1.233  0.00  0.00    +0.430 HD
ENDBRANCH   5   9
TORSDOF 1
