REMARK  Name = ZINCAx0000000e8m.0
REMARK                            x       y       z     vdW  Elec       q    Type
REMARK                         _______ _______ _______ _____ _____    ______ ____
ROOT
ATOM      1  C   LIG    1       -2.609  11.242  -2.125  0.00  0.00    +0.310 C 
ENDROOT
BRANCH   1   2
ATOM      2  N   LIG    1       -2.433  12.202  -3.218  0.00  0.00    -0.570 N 
ATOM      3  C   LIG    1       -3.409  12.389  -4.114  0.00  0.00    +0.530 C 
ATOM      4  S   LIG    1       -2.828  13.609  -5.261  0.00  0.00    -0.010 S 
ATOM      5  C   LIG    1       -1.257  13.817  -4.461  0.00  0.00    -0.240 C 
ATOM      6  C   LIG    1       -0.241  14.644  -4.818  0.00  0.00    +0.250 C 
ATOM      7  O   LIG    1       -4.488  11.829  -4.137  0.00  0.00    -0.420 OA
ATOM      8  C   LIG    1       -1.311  12.893  -3.322  0.00  0.00    +0.560 C 
ATOM      9  O   LIG    1       -0.391  12.770  -2.535  0.00  0.00    -0.450 OA
BRANCH   6  10
ATOM     10  C   LIG    1        1.057  14.548  -4.139  0.00  0.00    -0.130 A 
ATOM     11  C   LIG    1        1.767  15.710  -3.812  0.00  0.00    +0.100 A 
ATOM     12  C   LIG    1        2.981  15.614  -3.170  0.00  0.00    -0.060 A 
ATOM     13  C   LIG    1        3.508  14.367  -2.857  0.00  0.00    +0.130 A 
ATOM     14  C   LIG    1        2.810  13.210  -3.184  0.00  0.00    +0.000 A 
ATOM     15  C   LIG    1        1.593  13.294  -3.821  0.00  0.00    +0.120 A 
BRANCH  13  16
ATOM     16  O   LIG    1        4.708  14.278  -2.229  0.00  0.00    -0.320 OA
BRANCH  16  17
ATOM     17  C   LIG    1        5.372  15.506  -1.921  0.00  0.00    +0.600 C 
ATOM     18  F   LIG    1        4.563  16.275  -1.079  0.00  0.00    -0.200 F 
ATOM     19  F   LIG    1        5.618  16.212  -3.104  0.00  0.00    -0.200 F 
ENDBRANCH  16  17
ENDBRANCH  13  16
ENDBRANCH   6  10
ENDBRANCH   1   2
BRANCH   1  20
ATOM     20  C   LIG    1       -2.111   9.865  -2.571  0.00  0.00    +0.270 C 
BRANCH  20  23
ATOM     21  O   LIG    1       -1.436   7.259  -2.698  0.00  0.00    -0.530 OA
ATOM     22  C   LIG    1       -1.916   7.620  -1.644  0.00  0.00    +0.530 C 
ATOM     23  N   LIG    1       -2.287   8.905  -1.478  0.00  0.00    -0.730 N 
ATOM     24  H   LIG    1       -2.671   9.194  -0.636  0.00  0.00    +0.400 HD
BRANCH  22  25
ATOM     25  C   LIG    1       -2.097   6.632  -0.520  0.00  0.00    +0.040 C 
BRANCH  25  26
ATOM     26  C   LIG    1       -1.599   5.256  -0.966  0.00  0.00    +0.320 C 
BRANCH  26  27
ATOM     27  N   LIG    1       -1.775   4.296   0.127  0.00  0.00    -0.580 N 
ATOM     28  C   LIG    1       -0.840   4.070   1.068  0.00  0.00    +0.540 C 
ATOM     29  C   LIG    1       -1.290   2.861   1.838  0.00  0.00    -0.010 C 
ATOM     30  C   LIG    1       -0.792   2.730   3.240  0.00  0.00    +0.100 C 
ATOM     31  C   LIG    1       -1.619   3.474   4.241  0.00  0.00    -0.020 C 
ATOM     32  C   LIG    1       -2.769   3.989   3.971  0.00  0.00    -0.050 C 
ATOM     33  C   LIG    1       -3.418   3.964   2.631  0.00  0.00    +0.080 C 
ATOM     34  C   LIG    1       -2.818   2.921   1.684  0.00  0.00    +0.040 C 
ATOM     35  O   LIG    1        0.171   4.713   1.249  0.00  0.00    -0.460 OA
ATOM     36  C   LIG    1       -2.895   3.566   0.290  0.00  0.00    +0.520 C 
ATOM     37  O   LIG    1       -3.795   3.440  -0.512  0.00  0.00    -0.460 OA
ENDBRANCH  26  27
ENDBRANCH  25  26
ENDBRANCH  22  25
ENDBRANCH  20  23
ENDBRANCH   1  20
TORSDOF 9
