REMARK  Name = ZINCpk00000C7UBo.0
REMARK                            x       y       z     vdW  Elec       q    Type
REMARK                         _______ _______ _______ _____ _____    ______ ____
ROOT
ATOM      1  N   LIG    1        2.986  -2.673  -0.436  0.00  0.00    -0.480 N 
ATOM      2  C   LIG    1        4.263  -2.240   0.153  0.00  0.00    +0.210 C 
ATOM      3  C   LIG    1        4.541  -0.802  -0.288  0.00  0.00    +0.130 C 
ATOM      4  C   LIG    1        3.333   0.056  -0.025  0.00  0.00    +0.220 A 
ATOM      5  N   LIG    1        3.466   1.375  -0.012  0.00  0.00    -0.530 NA
ATOM      6  C   LIG    1        2.422   2.160   0.209  0.00  0.00    +0.490 A 
ATOM      7  N   LIG    1        1.214   1.662   0.424  0.00  0.00    -0.550 NA
ATOM      8  C   LIG    1        1.014   0.355   0.427  0.00  0.00    +0.350 A 
ATOM      9  C   LIG    1        2.088  -0.496   0.200  0.00  0.00    -0.220 A 
ATOM     10  C   LIG    1        1.865  -1.983   0.212  0.00  0.00    +0.270 C 
ENDROOT
BRANCH   1  17
ATOM     11  C   LIG    1        2.731  -4.125  -2.861  0.00  0.00    +0.130 C 
ATOM     12  C   LIG    1        2.712  -4.801  -1.514  0.00  0.00    -0.100 A 
ATOM     13  C   LIG    1        2.568  -6.159  -1.424  0.00  0.00    +0.120 A 
ATOM     14  C   LIG    1        2.555  -6.748  -0.150  0.00  0.00    -0.070 A 
ATOM     15  C   LIG    1        2.688  -5.933   0.975  0.00  0.00    +0.330 A 
ATOM     16  N   LIG    1        2.829  -4.630   0.843  0.00  0.00    -0.500 NA
ATOM     17  C   LIG    1        2.840  -4.048  -0.348  0.00  0.00    +0.310 A 
BRANCH  14  18
ATOM     18  C   LIG    1        2.407  -8.165  -0.007  0.00  0.00    +0.250 C 
ATOM     19  N   LIG    1        2.290  -9.290   0.107  0.00  0.00    -0.400 NA
ENDBRANCH  14  18
ENDBRANCH   1  17
BRANCH   6  20
ATOM     20  N   LIG    1        2.598   3.533   0.215  0.00  0.00    -0.460 N 
ATOM     21  C   LIG    1        3.619   3.929   1.196  0.00  0.00    +0.190 C 
ATOM     22  C   LIG    1        3.824   5.445   1.127  0.00  0.00    +0.240 C 
ATOM     23  O   LIG    1        2.573   6.101   1.353  0.00  0.00    -0.380 OA
ATOM     24  C   LIG    1        1.556   5.738   0.415  0.00  0.00    +0.230 C 
ATOM     25  C   LIG    1        1.328   4.226   0.476  0.00  0.00    +0.190 C 
ENDBRANCH   6  20
TORSDOF 3
