REMARK  Name = ZINCrD0000075rDS.0
REMARK                            x       y       z     vdW  Elec       q    Type
REMARK                         _______ _______ _______ _____ _____    ______ ____
ROOT
ATOM      1  O   LIG    1       -0.664  -4.583  -1.051  0.00  0.00    -0.480 OA
ATOM      2  C   LIG    1       -0.709  -4.096  -2.161  0.00  0.00    +0.520 C 
ATOM      3  N   LIG    1       -0.669  -4.893  -3.248  0.00  0.00    -0.670 N 
ATOM      4  H   LIG    1       -0.624  -4.501  -4.134  0.00  0.00    +0.410 HD
ENDROOT
BRANCH   3   5
ATOM      5  C   LIG    1       -0.694  -6.284  -3.098  0.00  0.00    +0.200 A 
ATOM      6  C   LIG    1       -1.157  -6.848  -1.917  0.00  0.00    +0.030 A 
ATOM      7  C   LIG    1       -1.186  -8.221  -1.774  0.00  0.00    +0.080 A 
ATOM      8  C   LIG    1       -0.742  -9.034  -2.800  0.00  0.00    +0.000 A 
ATOM      9  C   LIG    1       -0.275  -8.475  -3.976  0.00  0.00    +0.090 A 
ATOM     10  C   LIG    1       -0.249  -7.103  -4.127  0.00  0.00    -0.220 A 
BRANCH  10  11
ATOM     11  C   LIG    1        0.261  -6.494  -5.408  0.00  0.00    +0.510 C 
ATOM     12  F   LIG    1        1.360  -5.675  -5.130  0.00  0.00    -0.170 F 
ATOM     13  F   LIG    1       -0.752  -5.731  -5.998  0.00  0.00    -0.180 F 
ATOM     14  F   LIG    1        0.648  -7.513  -6.286  0.00  0.00    -0.170 F 
ENDBRANCH  10  11
ENDBRANCH   3   5
BRANCH   2  15
ATOM     15  C   LIG    1       -0.810  -2.602  -2.325  0.00  0.00    +0.270 C 
BRANCH  15  16
ATOM     16  O   LIG    1       -0.836  -1.972  -1.017  0.00  0.00    -0.320 OA
BRANCH  16  17
ATOM     17  C   LIG    1       -0.924  -0.633  -0.987  0.00  0.00    +0.490 C 
ATOM     18  O   LIG    1       -0.978  -0.008  -2.020  0.00  0.00    -0.510 OA
BRANCH  17  19
ATOM     19  C   LIG    1       -0.956   0.091   0.334  0.00  0.00    +0.180 C 
BRANCH  19  20
ATOM     20  C   LIG    1       -1.057   1.575   0.092  0.00  0.00    -0.010 A 
ATOM     21  C   LIG    1       -2.271   2.219   0.243  0.00  0.00    +0.040 A 
ATOM     22  C   LIG    1       -2.363   3.580   0.021  0.00  0.00    +0.090 A 
ATOM     23  C   LIG    1       -1.242   4.297  -0.352  0.00  0.00    +0.040 A 
ATOM     24  C   LIG    1       -0.028   3.653  -0.503  0.00  0.00    +0.110 A 
ATOM     25  C   LIG    1        0.066   2.293  -0.275  0.00  0.00    -0.030 A 
BRANCH  25  26
ATOM     26  N   LIG    1        1.367   1.605  -0.431  0.00  0.00    +0.030 N 
ATOM     27  O   LIG    1        1.430   0.392  -0.331  0.00  0.00    -0.170 OA
ATOM     28  O   LIG    1        2.374   2.250  -0.660  0.00  0.00    -0.150 OA
ENDBRANCH  25  26
ENDBRANCH  19  20
ENDBRANCH  17  19
ENDBRANCH  16  17
ENDBRANCH  15  16
ENDBRANCH   2  15
TORSDOF 8
