REMARK  Name = ZINCqH00000023SY.0
REMARK                            x       y       z     vdW  Elec       q    Type
REMARK                         _______ _______ _______ _____ _____    ______ ____
ROOT
ATOM      1  N   LIG    1       -5.044   2.463  -0.478  0.00  0.00    -0.700 N 
ATOM      2  H   LIG    1       -5.003   3.330  -0.910  0.00  0.00    +0.410 HD
ATOM      3  C   LIG    1       -6.101   2.144   0.295  0.00  0.00    +0.610 C 
ATOM      4  O   LIG    1       -6.153   1.056   0.836  0.00  0.00    -0.520 OA
ENDROOT
BRANCH   1  14
ATOM      5  C   LIG    1       -2.971   3.160  -2.390  0.00  0.00    +0.050 C 
ATOM      6  C   LIG    1       -3.156   1.696  -1.986  0.00  0.00    -0.060 C 
ATOM      7  C   LIG    1       -2.012   1.130  -1.198  0.00  0.00    +0.140 C 
ATOM      8  O   LIG    1       -0.662   1.530  -1.241  0.00  0.00    -0.350 OA
ATOM      9  C   LIG    1        0.028   1.060  -0.066  0.00  0.00    +0.210 C 
ATOM     10  C   LIG    1       -0.619   1.536   1.229  0.00  0.00    +0.000 C 
ATOM     11  C   LIG    1       -2.137   1.267   1.254  0.00  0.00    +0.030 C 
ATOM     12  C   LIG    1       -2.673   1.909  -0.016  0.00  0.00    -0.070 C 
ATOM     13  C   LIG    1       -3.618   0.806  -3.142  0.00  0.00    +0.050 C 
ATOM     14  C   LIG    1       -3.958   1.498  -0.667  0.00  0.00    +0.270 C 
ENDBRANCH   1  14
BRANCH   3  15
ATOM     15  C   LIG    1       -7.189   3.110   0.484  0.00  0.00    -0.080 A 
ATOM     16  C   LIG    1       -8.313   2.915   1.233  0.00  0.00    -0.090 A 
ATOM     17  C   LIG    1       -9.072   4.093   1.137  0.00  0.00    -0.040 A 
ATOM     18  C   LIG    1       -8.389   4.940   0.335  0.00  0.00    +0.220 A 
ATOM     19  O   LIG    1       -7.255   4.345  -0.056  0.00  0.00    -0.160 OA
BRANCH  16  20
ATOM     20  C   LIG    1       -8.671   1.677   2.015  0.00  0.00    +0.310 C 
BRANCH  20  21
ATOM     21  O   LIG    1       -9.929   1.869   2.663  0.00  0.00    -0.310 OA
BRANCH  21  22
ATOM     22  C   LIG    1      -10.400   0.840   3.414  0.00  0.00    +0.130 A 
ATOM     23  C   LIG    1       -9.668  -0.334   3.521  0.00  0.00    -0.080 A 
ATOM     24  C   LIG    1      -10.146  -1.377   4.291  0.00  0.00    +0.050 A 
ATOM     25  C   LIG    1      -11.358  -1.257   4.944  0.00  0.00    -0.040 A 
ATOM     26  C   LIG    1      -12.092  -0.090   4.835  0.00  0.00    +0.050 A 
ATOM     27  C   LIG    1      -11.616   0.958   4.072  0.00  0.00    -0.020 A 
ENDBRANCH  21  22
ENDBRANCH  20  21
ENDBRANCH  16  20
ENDBRANCH   3  15
TORSDOF 5
