REMARK  Name = ZINCpe000000YC5l.0
REMARK                            x       y       z     vdW  Elec       q    Type
REMARK                         _______ _______ _______ _____ _____    ______ ____
ROOT
ATOM      1  C   LIG    1       -1.218   3.101   0.009  0.00  0.00    +0.210 C 
ATOM      2  C   LIG    1       -1.071   3.694  -1.406  0.00  0.00    +0.140 C 
ATOM      3  C   LIG    1       -2.372   4.430  -1.631  0.00  0.00    +0.020 C 
ATOM      4  N   LIG    1       -3.125   4.304  -0.586  0.00  0.00    -0.170 NA
ATOM      5  N   LIG    1       -2.554   3.548   0.436  0.00  0.00    -0.440 N 
ENDROOT
BRANCH   3   6
ATOM      6  C   LIG    1       -2.725   5.169  -2.843  0.00  0.00    +0.600 C 
ATOM      7  N   LIG    1       -3.943   5.736  -2.956  0.00  0.00    -0.570 N 
ATOM      8  C   LIG    1       -4.891   5.744  -1.827  0.00  0.00    +0.270 C 
ATOM      9  C   LIG    1       -5.438   7.167  -1.670  0.00  0.00    +0.220 C 
ATOM     10  O   LIG    1       -5.984   7.611  -2.913  0.00  0.00    -0.380 OA
ATOM     11  C   LIG    1       -5.021   7.733  -3.966  0.00  0.00    +0.240 C 
ATOM     12  C   LIG    1       -4.374   6.374  -4.205  0.00  0.00    +0.110 C 
ATOM     13  C   LIG    1       -5.196   5.454  -5.113  0.00  0.00    +0.020 C 
ATOM     14  C   LIG    1       -3.861   5.026  -5.748  0.00  0.00    +0.020 C 
ATOM     15  C   LIG    1       -3.297   6.384  -5.294  0.00  0.00    +0.050 C 
ATOM     16  O   LIG    1       -1.920   5.272  -3.750  0.00  0.00    -0.510 OA
ENDBRANCH   3   6
BRANCH   5  17
ATOM     17  C   LIG    1       -3.152   3.261   1.664  0.00  0.00    +0.220 A 
ATOM     18  C   LIG    1       -2.479   2.487   2.602  0.00  0.00    -0.050 A 
ATOM     19  C   LIG    1       -3.072   2.208   3.818  0.00  0.00    +0.050 A 
ATOM     20  C   LIG    1       -4.338   2.691   4.098  0.00  0.00    -0.030 A 
ATOM     21  C   LIG    1       -5.012   3.457   3.165  0.00  0.00    +0.050 A 
ATOM     22  C   LIG    1       -4.423   3.743   1.949  0.00  0.00    -0.020 A 
ENDBRANCH   5  17
BRANCH   1  26
ATOM     23  N   LIG    1        0.042   0.973  -0.033  0.00  0.00    -0.850 N 
ATOM     24  H   LIG    1        0.860   1.494  -0.005  0.00  0.00    +0.400 HD
ATOM     25  H   LIG    1        0.084   0.005  -0.063  0.00  0.00    +0.410 HD
ATOM     26  C   LIG    1       -1.153   1.596  -0.037  0.00  0.00    +0.510 C 
ATOM     27  O   LIG    1       -2.176   0.946  -0.077  0.00  0.00    -0.510 OA
ENDBRANCH   1  26
TORSDOF 3
