REMARK  Name = ZINCrH000004tnZj.0
REMARK                            x       y       z     vdW  Elec       q    Type
REMARK                         _______ _______ _______ _____ _____    ______ ____
ROOT
ATOM      1  C   LIG    1        1.784  -1.817  -0.024  0.00  0.00    +0.400 C 
ENDROOT
BRANCH   1   6
ATOM      2  C   LIG    1        1.279   1.770  -0.001  0.00  0.00    +0.040 A 
ATOM      3  C   LIG    1       -0.017   1.363   0.009  0.00  0.00    +0.170 A 
ATOM      4  N   LIG    1        0.002  -0.004   0.002  0.00  0.00    -0.550 N 
ATOM      5  H   LIG    1       -0.772  -0.589   0.006  0.00  0.00    +0.430 HD
ATOM      6  C   LIG    1        1.296  -0.391  -0.012  0.00  0.00    +0.190 A 
ATOM      7  N   LIG    1        2.056   0.668  -0.014  0.00  0.00    -0.460 NA
BRANCH   2  12
ATOM      8  C   LIG    1        3.552   4.776  -0.111  0.00  0.00    -0.030 A 
ATOM      9  C   LIG    1        2.626   5.815   0.008  0.00  0.00    +0.060 A 
ATOM     10  C   LIG    1        1.279   5.532   0.123  0.00  0.00    +0.020 A 
ATOM     11  C   LIG    1        0.840   4.223   0.120  0.00  0.00    +0.050 A 
ATOM     12  C   LIG    1        1.755   3.176   0.001  0.00  0.00    -0.000 A 
ATOM     13  C   LIG    1        3.113   3.452  -0.109  0.00  0.00    +0.090 A 
BRANCH   8  15
ATOM     14  N   LIG    1        6.056   5.302  -0.323  0.00  0.00    -0.410 NA
ATOM     15  C   LIG    1        4.949   5.069  -0.229  0.00  0.00    +0.250 C 
ENDBRANCH   8  15
ENDBRANCH   2  12
ENDBRANCH   1   6
BRANCH   1  16
ATOM     16  N   LIG    1        2.042  -2.234  -1.405  0.00  0.00    -0.730 N 
ATOM     17  H   LIG    1        1.892  -1.613  -2.135  0.00  0.00    +0.400 HD
ATOM     18  C   LIG    1        2.488  -3.480  -1.660  0.00  0.00    +0.530 C 
ATOM     19  O   LIG    1        2.675  -4.256  -0.747  0.00  0.00    -0.530 OA
BRANCH  18  20
ATOM     20  C   LIG    1        2.754  -3.908  -3.080  0.00  0.00    -0.070 C 
ATOM     21  C   LIG    1        1.463  -3.804  -3.895  0.00  0.00    +0.030 C 
ATOM     22  C   LIG    1        1.732  -4.239  -5.336  0.00  0.00    -0.010 C 
ATOM     23  C   LIG    1        2.799  -3.331  -5.952  0.00  0.00    +0.020 C 
ATOM     24  C   LIG    1        4.090  -3.435  -5.138  0.00  0.00    +0.000 C 
ATOM     25  C   LIG    1        4.584  -4.883  -5.149  0.00  0.00    +0.010 C 
ATOM     26  C   LIG    1        3.518  -5.791  -4.534  0.00  0.00    -0.010 C 
ATOM     27  C   LIG    1        2.227  -5.687  -5.348  0.00  0.00    +0.010 C 
ATOM     28  C   LIG    1        3.820  -3.000  -3.696  0.00  0.00    +0.040 C 
ATOM     29  C   LIG    1        3.248  -5.356  -3.092  0.00  0.00    +0.050 C 
ENDBRANCH  18  20
ENDBRANCH   1  16
TORSDOF 5
