REMARK  Name = ZINCrD00000F5Lox.0
REMARK                            x       y       z     vdW  Elec       q    Type
REMARK                         _______ _______ _______ _____ _____    ______ ____
ROOT
ATOM      1  N   LIG    1        6.005   6.148  -0.020  0.00  0.00    -0.720 N 
ATOM      2  H   LIG    1        5.055   6.308  -0.127  0.00  0.00    +0.400 HD
ATOM      3  C   LIG    1        6.465   4.890   0.129  0.00  0.00    +0.600 C 
ATOM      4  O   LIG    1        7.657   4.689   0.263  0.00  0.00    -0.520 OA
ENDROOT
BRANCH   1  13
ATOM      5  C   LIG    1        2.769  10.144  -3.531  0.00  0.00    +0.110 C 
ATOM      6  C   LIG    1        4.002   9.278  -3.503  0.00  0.00    +0.530 C 
ATOM      7  N   LIG    1        4.676   9.102  -2.349  0.00  0.00    -0.630 N 
ATOM      8  C   LIG    1        4.319   9.697  -1.034  0.00  0.00    +0.270 C 
ATOM      9  C   LIG    1        4.956   8.739  -0.025  0.00  0.00    -0.030 C 
ATOM     10  C   LIG    1        5.276   9.285   1.353  0.00  0.00    +0.030 C 
ATOM     11  C   LIG    1        5.977   8.159   2.132  0.00  0.00    +0.010 C 
ATOM     12  C   LIG    1        7.243   7.709   1.422  0.00  0.00    +0.020 C 
ATOM     13  C   LIG    1        6.942   7.275  -0.022  0.00  0.00    +0.260 C 
ATOM     14  C   LIG    1        6.319   8.464  -0.723  0.00  0.00    -0.010 C 
ATOM     15  C   LIG    1        5.898   8.281  -2.175  0.00  0.00    +0.260 C 
ATOM     16  O   LIG    1        4.388   8.739  -4.519  0.00  0.00    -0.540 OA
ENDBRANCH   1  13
BRANCH   3  17
ATOM     17  C   LIG    1        5.527   3.764   0.131  0.00  0.00    -0.310 A 
ATOM     18  C   LIG    1        5.854   2.442   0.273  0.00  0.00    +0.330 A 
ATOM     19  N   LIG    1        4.828   1.634   0.245  0.00  0.00    -0.460 NA
ATOM     20  C   LIG    1        3.651   2.168   0.081  0.00  0.00    +0.100 A 
ATOM     21  S   LIG    1        3.777   3.868  -0.048  0.00  0.00    +0.190 S 
BRANCH  20  22
ATOM     22  C   LIG    1        2.383   1.412   0.021  0.00  0.00    -0.080 A 
ATOM     23  C   LIG    1        1.172   2.084  -0.152  0.00  0.00    +0.060 A 
ATOM     24  C   LIG    1       -0.008   1.372  -0.207  0.00  0.00    +0.010 A 
ATOM     25  C   LIG    1        0.006  -0.007  -0.091  0.00  0.00    +0.070 A 
ATOM     26  C   LIG    1        1.201  -0.682   0.081  0.00  0.00    -0.010 A 
ATOM     27  C   LIG    1        2.391   0.018   0.138  0.00  0.00    +0.150 A 
ATOM     28  F   LIG    1        3.558  -0.642   0.305  0.00  0.00    -0.110 F 
ENDBRANCH  20  22
ENDBRANCH   3  17
TORSDOF 3
