REMARK  Name = ZINCpk00000eavsY.0
REMARK                            x       y       z     vdW  Elec       q    Type
REMARK                         _______ _______ _______ _____ _____    ______ ____
ROOT
ATOM      1  N   LIG    1        1.991  -0.417  -0.701  0.00  0.00    -0.550 N 
ATOM      2  C   LIG    1        0.808  -1.287  -0.685  0.00  0.00    +0.310 C 
ATOM      3  C   LIG    1       -0.291  -0.474   0.034  0.00  0.00    +0.000 C 
ATOM      4  C   LIG    1        0.168   0.979  -0.229  0.00  0.00    +0.090 C 
ATOM      5  C   LIG    1        1.660   0.862  -0.453  0.00  0.00    +0.520 C 
ATOM      6  O   LIG    1        2.443   1.787  -0.416  0.00  0.00    -0.500 OA
ENDROOT
BRANCH   1  11
ATOM      7  C   LIG    1        4.846  -2.657  -1.315  0.00  0.00    +0.150 A 
ATOM      8  C   LIG    1        5.879  -1.737  -1.425  0.00  0.00    -0.100 A 
ATOM      9  C   LIG    1        5.621  -0.386  -1.294  0.00  0.00    +0.080 A 
ATOM     10  C   LIG    1        4.333   0.054  -1.059  0.00  0.00    -0.040 A 
ATOM     11  C   LIG    1        3.295  -0.863  -0.944  0.00  0.00    +0.210 A 
ATOM     12  C   LIG    1        3.553  -2.220  -1.075  0.00  0.00    -0.060 A 
BRANCH   7  14
ATOM     13  C   LIG    1        6.457  -4.364  -1.691  0.00  0.00    +0.250 C 
ATOM     14  O   LIG    1        5.102  -3.986  -1.444  0.00  0.00    -0.320 OA
ENDBRANCH   7  14
ENDBRANCH   1  11
BRANCH   3  15
ATOM     15  C   LIG    1       -0.306  -0.776   1.510  0.00  0.00    +0.520 C 
ATOM     16  N   LIG    1       -1.249  -0.226   2.301  0.00  0.00    -0.610 N 
ATOM     17  C   LIG    1       -2.298   0.613   1.716  0.00  0.00    +0.280 C 
ATOM     18  O   LIG    1        0.530  -1.514   1.987  0.00  0.00    -0.530 OA
BRANCH  16  19
ATOM     19  C   LIG    1       -1.226  -0.468   3.746  0.00  0.00    +0.370 C 
BRANCH  19  20
ATOM     20  C   LIG    1       -0.399   0.597   4.420  0.00  0.00    -0.270 A 
ATOM     21  C   LIG    1        0.931   0.537   4.662  0.00  0.00    +0.250 A 
ATOM     22  N   LIG    1        1.289   1.685   5.276  0.00  0.00    -0.370 N 
ATOM     23  N   LIG    1        0.140   2.471   5.424  0.00  0.00    -0.300 NA
ATOM     24  C   LIG    1        2.640   2.042   5.716  0.00  0.00    +0.360 C 
ATOM     25  C   LIG    1       -0.871   1.819   4.910  0.00  0.00    +0.240 A 
ENDBRANCH  19  20
ENDBRANCH  16  19
ENDBRANCH   3  15
TORSDOF 5
