REMARK  Name = ZINCqH0000001Q3Y.0
REMARK                            x       y       z     vdW  Elec       q    Type
REMARK                         _______ _______ _______ _____ _____    ______ ____
ROOT
ATOM      1  N   LIG    1        0.062   0.716  -0.101  0.00  0.00    -0.730 N 
ATOM      2  H   LIG    1        0.000  -0.251  -0.140  0.00  0.00    +0.410 HD
ATOM      3  C   LIG    1        1.268   1.316  -0.136  0.00  0.00    +0.520 C 
ATOM      4  O   LIG    1        1.345   2.526  -0.086  0.00  0.00    -0.530 OA
ENDROOT
BRANCH   1   5
ATOM      5  C   LIG    1       -1.157   1.524  -0.009  0.00  0.00    +0.400 C 
BRANCH   5  14
ATOM      6  N   LIG    1       -3.077   0.255  -1.092  0.00  0.00    -0.470 N 
ATOM      7  C   LIG    1       -4.091  -0.578  -0.663  0.00  0.00    +0.060 A 
ATOM      8  C   LIG    1       -5.121  -1.254  -1.302  0.00  0.00    +0.010 A 
ATOM      9  C   LIG    1       -5.996  -2.022  -0.562  0.00  0.00    +0.030 A 
ATOM     10  C   LIG    1       -5.852  -2.123   0.814  0.00  0.00    +0.000 A 
ATOM     11  C   LIG    1       -4.843  -1.465   1.459  0.00  0.00    +0.070 A 
ATOM     12  C   LIG    1       -3.946  -0.681   0.731  0.00  0.00    +0.040 A 
ATOM     13  N   LIG    1       -2.870   0.074   1.073  0.00  0.00    -0.470 NA
ATOM     14  C   LIG    1       -2.361   0.619   0.006  0.00  0.00    +0.260 A 
BRANCH   6  16
ATOM     15  C   LIG    1       -2.557  -0.568  -3.335  0.00  0.00    +0.040 C 
ATOM     16  C   LIG    1       -2.818   0.668  -2.473  0.00  0.00    +0.230 C 
ATOM     17  C   LIG    1       -4.034   1.421  -3.017  0.00  0.00    +0.050 C 
ENDBRANCH   6  16
ENDBRANCH   5  14
ENDBRANCH   1   5
BRANCH   3  18
ATOM     18  C   LIG    1        2.521   0.485  -0.236  0.00  0.00    +0.070 C 
BRANCH  18  19
ATOM     19  C   LIG    1        3.743   1.405  -0.258  0.00  0.00    +0.110 C 
BRANCH  19  20
ATOM     20  C   LIG    1        4.996   0.574  -0.358  0.00  0.00    -0.050 A 
ATOM     21  C   LIG    1        5.632   0.146   0.794  0.00  0.00    +0.020 A 
ATOM     22  C   LIG    1        6.777  -0.620   0.709  0.00  0.00    +0.060 A 
ATOM     23  C   LIG    1        7.299  -0.953  -0.542  0.00  0.00    -0.030 A 
ATOM     24  C   LIG    1        6.654  -0.513  -1.700  0.00  0.00    +0.060 A 
ATOM     25  C   LIG    1        5.508   0.246  -1.601  0.00  0.00    +0.010 A 
BRANCH  23  26
ATOM     26  C   LIG    1        8.490  -1.742  -0.638  0.00  0.00    +0.250 C 
ATOM     27  N   LIG    1        9.435  -2.368  -0.713  0.00  0.00    -0.410 NA
ENDBRANCH  23  26
ENDBRANCH  19  20
ENDBRANCH  18  19
ENDBRANCH   3  18
TORSDOF 7
