REMARK  Name = ZINCrD00000l2oJR.0
REMARK                            x       y       z     vdW  Elec       q    Type
REMARK                         _______ _______ _______ _____ _____    ______ ____
ROOT
ATOM      1  C   LIG    1        8.337   2.649  -0.063  0.00  0.00    +0.490 C 
ATOM      2  O   LIG    1        8.294   3.856  -0.056  0.00  0.00    -0.490 OA
ENDROOT
BRANCH   1   3
ATOM      3  C   LIG    1        9.669   1.943  -0.080  0.00  0.00    +0.000 C 
ATOM      4  C   LIG    1       10.511   2.054  -1.352  0.00  0.00    +0.100 C 
ATOM      5  C   LIG    1       10.929   2.811  -0.089  0.00  0.00    +0.040 C 
BRANCH   5   6
ATOM      6  C   LIG    1       10.743   4.307  -0.081  0.00  0.00    -0.000 A 
ATOM      7  C   LIG    1       10.053   4.923  -1.108  0.00  0.00    +0.050 A 
ATOM      8  C   LIG    1        9.883   6.295  -1.101  0.00  0.00    +0.040 A 
ATOM      9  C   LIG    1       10.402   7.050  -0.066  0.00  0.00    +0.010 A 
ATOM     10  C   LIG    1       11.091   6.434   0.961  0.00  0.00    +0.060 A 
ATOM     11  C   LIG    1       11.258   5.062   0.956  0.00  0.00    -0.170 A 
BRANCH  11  12
ATOM     12  C   LIG    1       12.004   4.389   2.079  0.00  0.00    +0.510 C 
ATOM     13  F   LIG    1       13.119   3.720   1.563  0.00  0.00    -0.180 F 
ATOM     14  F   LIG    1       11.162   3.471   2.715  0.00  0.00    -0.180 F 
ATOM     15  F   LIG    1       12.425   5.353   3.002  0.00  0.00    -0.180 F 
ENDBRANCH  11  12
ENDBRANCH   5   6
ENDBRANCH   1   3
BRANCH   1  16
ATOM     16  O   LIG    1        7.200   1.936  -0.056  0.00  0.00    -0.330 OA
BRANCH  16  17
ATOM     17  C   LIG    1        5.955   2.683  -0.040  0.00  0.00    +0.270 C 
BRANCH  17  19
ATOM     18  O   LIG    1        4.995   0.527  -0.043  0.00  0.00    -0.440 OA
ATOM     19  C   LIG    1        4.793   1.722  -0.034  0.00  0.00    +0.510 C 
ATOM     20  N   LIG    1        3.530   2.192  -0.020  0.00  0.00    -0.680 N 
ATOM     21  H   LIG    1        3.369   3.148  -0.013  0.00  0.00    +0.410 HD
ATOM     22  C   LIG    1        2.492   1.333  -0.015  0.00  0.00    +0.590 C 
ATOM     23  O   LIG    1        2.695   0.133  -0.023  0.00  0.00    -0.450 OA
BRANCH  22  24
ATOM     24  C   LIG    1        1.119   1.843   0.001  0.00  0.00    -0.290 A 
ATOM     25  C   LIG    1       -0.013   1.076   0.008  0.00  0.00    +0.120 A 
ATOM     26  C   LIG    1       -1.171   1.816   0.017  0.00  0.00    +0.000 A 
ATOM     27  C   LIG    1       -0.997   3.143   0.028  0.00  0.00    -0.040 A 
ATOM     28  S   LIG    1        0.662   3.541   0.014  0.00  0.00    +0.200 S 
ENDBRANCH  22  24
ENDBRANCH  17  19
ENDBRANCH  16  17
ENDBRANCH   1  16
TORSDOF 7
