REMARK  Name = ZINCpe00000VVGjy.0
REMARK                            x       y       z     vdW  Elec       q    Type
REMARK                         _______ _______ _______ _____ _____    ______ ____
ROOT
ATOM      1  N   LIG    1        5.452   0.498  -2.398  0.00  0.00    -1.000 NA
ATOM      2  C   LIG    1        5.023  -0.745  -3.054  0.00  0.00    +0.280 C 
ATOM      3  C   LIG    1        3.586  -0.552  -3.567  0.00  0.00    +0.290 C 
ATOM      4  N   LIG    1        3.523   0.706  -4.324  0.00  0.00    -0.590 N 
ATOM      5  C   LIG    1        3.958   1.948  -3.670  0.00  0.00    +0.280 C 
ATOM      6  C   LIG    1        3.076   0.720  -5.595  0.00  0.00    +0.590 C 
ATOM      7  O   LIG    1        2.956   1.776  -6.186  0.00  0.00    -0.540 OA
ATOM      8  C   LIG    1        5.389   1.756  -3.155  0.00  0.00    +0.300 C 
ENDROOT
BRANCH   6   9
ATOM      9  C   LIG    1        2.733  -0.542  -6.268  0.00  0.00    -0.280 A 
ATOM     10  C   LIG    1        3.159  -0.789  -7.572  0.00  0.00    +0.210 A 
ATOM     11  C   LIG    1        2.818  -2.000  -8.176  0.00  0.00    -0.080 A 
ATOM     12  C   LIG    1        2.075  -2.913  -7.500  0.00  0.00    +0.330 A 
ATOM     13  N   LIG    1        1.653  -2.677  -6.235  0.00  0.00    -0.600 N 
ATOM     14  H   LIG    1        1.122  -3.347  -5.777  0.00  0.00    +0.420 HD
ATOM     15  C   LIG    1        1.958  -1.527  -5.604  0.00  0.00    +0.520 A 
ATOM     16  O   LIG    1        1.568  -1.333  -4.465  0.00  0.00    -0.530 OA
ENDBRANCH   6   9
BRANCH   1  17
ATOM     17  S   LIG    1        6.002   0.481  -0.836  0.00  0.00    +2.690 S 
ATOM     18  O   LIG    1        6.458  -0.842  -0.586  0.00  0.00    -0.950 OA
ATOM     19  O   LIG    1        6.826   1.629  -0.688  0.00  0.00    -0.950 OA
BRANCH  17  25
ATOM     20  C   LIG    1        1.993  -1.337   1.983  0.00  0.00    +0.090 C 
ATOM     21  C   LIG    1        2.785  -0.155   1.487  0.00  0.00    -0.100 A 
ATOM     22  C   LIG    1        2.417   1.126   1.853  0.00  0.00    +0.070 A 
ATOM     23  C   LIG    1        3.141   2.211   1.394  0.00  0.00    +0.000 A 
ATOM     24  C   LIG    1        4.235   2.014   0.573  0.00  0.00    +0.110 A 
ATOM     25  C   LIG    1        4.607   0.732   0.211  0.00  0.00    -0.670 A 
ATOM     26  C   LIG    1        3.883  -0.353   0.671  0.00  0.00    +0.120 A 
ENDBRANCH  17  25
ENDBRANCH   1  17
TORSDOF 3
