REMARK  Name = ZINCrH000004p3Ou.0
REMARK                            x       y       z     vdW  Elec       q    Type
REMARK                         _______ _______ _______ _____ _____    ______ ____
ROOT
ATOM      1  C   LIG    1       -0.816   1.435   1.261  0.00  0.00    +0.520 C 
ATOM      2  N   LIG    1       -0.242   1.246   2.466  0.00  0.00    -0.680 N 
ATOM      3  H   LIG    1        0.582   0.738   2.536  0.00  0.00    +0.410 HD
ATOM      4  O   LIG    1       -1.894   1.986   1.183  0.00  0.00    -0.520 OA
ENDROOT
BRANCH   2   5
ATOM      5  C   LIG    1       -0.833   1.782   3.615  0.00  0.00    +0.150 A 
ATOM      6  C   LIG    1       -1.514   2.991   3.545  0.00  0.00    +0.020 A 
ATOM      7  C   LIG    1       -2.102   3.519   4.675  0.00  0.00    +0.050 A 
ATOM      8  C   LIG    1       -2.004   2.844   5.890  0.00  0.00    -0.030 A 
ATOM      9  C   LIG    1       -1.317   1.633   5.959  0.00  0.00    +0.070 A 
ATOM     10  C   LIG    1       -0.735   1.106   4.825  0.00  0.00    -0.020 A 
BRANCH   8  11
ATOM     11  C   LIG    1       -2.631   3.412   7.109  0.00  0.00    +0.090 A 
ATOM     12  C   LIG    1       -3.324   4.575   7.179  0.00  0.00    +0.160 A 
ATOM     13  N   LIG    1       -3.736   4.732   8.496  0.00  0.00    -0.420 N 
ATOM     14  C   LIG    1       -4.446   5.633   9.257  0.00  0.00    +0.220 A 
ATOM     15  C   LIG    1       -4.614   5.385  10.544  0.00  0.00    +0.010 A 
ATOM     16  S   LIG    1       -3.791   3.844  10.844  0.00  0.00    +0.160 S 
ATOM     17  C   LIG    1       -3.265   3.643   9.165  0.00  0.00    +0.160 A 
ATOM     18  N   LIG    1       -2.615   2.860   8.338  0.00  0.00    -0.440 NA
ENDBRANCH   8  11
ENDBRANCH   2   5
BRANCH   1  19
ATOM     19  C   LIG    1       -0.119   0.961   0.012  0.00  0.00    +0.060 C 
BRANCH  19  21
ATOM     20  C   LIG    1       -0.218   0.929  -2.485  0.00  0.00    +0.040 C 
ATOM     21  C   LIG    1       -0.979   1.296  -1.209  0.00  0.00    +0.250 C 
BRANCH  21  22
ATOM     22  N   LIG    1       -2.229   0.535  -1.150  0.00  0.00    -0.590 N 
ATOM     23  C   LIG    1       -3.481   1.280  -1.111  0.00  0.00    +0.270 C 
ATOM     24  C   LIG    1       -4.650   0.384  -1.522  0.00  0.00    +0.010 C 
ATOM     25  C   LIG    1       -4.591  -0.909  -0.699  0.00  0.00    +0.030 C 
ATOM     26  C   LIG    1       -3.351  -1.698  -1.126  0.00  0.00    +0.060 C 
ATOM     27  C   LIG    1       -2.150  -0.796  -1.141  0.00  0.00    +0.520 C 
ATOM     28  O   LIG    1       -1.050  -1.306  -1.141  0.00  0.00    -0.560 OA
ENDBRANCH  21  22
ENDBRANCH  19  21
ENDBRANCH   1  19
TORSDOF 5
