REMARK  Name = ZINCrH00000tj0ZO.0
REMARK                            x       y       z     vdW  Elec       q    Type
REMARK                         _______ _______ _______ _____ _____    ______ ____
ROOT
ATOM      1  N   LIG    1        2.438   6.888   0.016  0.00  0.00    -0.630 N 
ATOM      2  H   LIG    1        3.407   6.893   0.006  0.00  0.00    +0.430 HD
ATOM      3  C   LIG    1        1.757   8.052   0.029  0.00  0.00    +0.510 C 
ATOM      4  O   LIG    1        0.545   8.045   0.041  0.00  0.00    -0.470 OA
ENDROOT
BRANCH   1   8
ATOM      5  C   LIG    1        1.168   3.571   0.010  0.00  0.00    +0.080 A 
ATOM      6  N   LIG    1        0.111   4.348   0.025  0.00  0.00    -0.360 NA
ATOM      7  O   LIG    1        0.418   5.517   0.028  0.00  0.00    +0.120 OA
ATOM      8  C   LIG    1        1.750   5.683   0.016  0.00  0.00    +0.220 A 
ATOM      9  C   LIG    1        2.295   4.433   0.010  0.00  0.00    -0.080 A 
BRANCH   5  14
ATOM     10  C   LIG    1        1.222  -2.189  -0.021  0.00  0.00    +0.090 C 
ATOM     11  C   LIG    1        1.208  -0.682  -0.013  0.00  0.00    -0.070 A 
ATOM     12  C   LIG    1        0.002  -0.004   0.002  0.00  0.00    +0.010 A 
ATOM     13  C   LIG    1       -0.017   1.376   0.010  0.00  0.00    +0.040 A 
ATOM     14  C   LIG    1        1.182   2.086   0.002  0.00  0.00    -0.030 A 
ATOM     15  C   LIG    1        2.393   1.399  -0.013  0.00  0.00    +0.040 A 
ATOM     16  C   LIG    1        2.401   0.019  -0.021  0.00  0.00    +0.010 A 
ENDBRANCH   5  14
ENDBRANCH   1   8
BRANCH   3  17
ATOM     17  C   LIG    1        2.504   9.361   0.028  0.00  0.00    +0.240 C 
BRANCH  17  18
ATOM     18  N   LIG    1        1.543  10.472   0.043  0.00  0.00    -0.500 NA
ATOM     19  C   LIG    1        0.852  10.555   1.343  0.00  0.00    +0.200 C 
ATOM     20  C   LIG    1        1.097  11.973   1.901  0.00  0.00    +0.010 C 
ATOM     21  C   LIG    1        1.434  12.796   0.630  0.00  0.00    +0.030 C 
ATOM     22  C   LIG    1        2.220  11.761  -0.213  0.00  0.00    +0.210 C 
BRANCH  22  23
ATOM     23  C   LIG    1        2.145  12.111  -1.677  0.00  0.00    +0.010 A 
ATOM     24  C   LIG    1        1.641  11.328  -2.652  0.00  0.00    -0.030 A 
ATOM     25  C   LIG    1        1.761  12.034  -3.865  0.00  0.00    -0.070 A 
ATOM     26  C   LIG    1        2.342  13.219  -3.587  0.00  0.00    +0.140 A 
ATOM     27  N   LIG    1        2.580  13.271  -2.245  0.00  0.00    -0.450 N 
ATOM     28  C   LIG    1        3.200  14.391  -1.532  0.00  0.00    +0.300 C 
ENDBRANCH  22  23
ENDBRANCH  17  18
ENDBRANCH   3  17
TORSDOF 5
