REMARK  Name = ZINCtV000002IDJj.0
REMARK                            x       y       z     vdW  Elec       q    Type
REMARK                         _______ _______ _______ _____ _____    ______ ____
ROOT
ATOM      1  C   LIG    1       -7.224   5.358   0.371  0.00  0.00    -0.050 A 
ATOM      2  C   LIG    1       -7.257   3.962   0.372  0.00  0.00    +0.100 A 
ATOM      3  C   LIG    1       -6.084   3.246   0.266  0.00  0.00    -0.010 A 
ATOM      4  C   LIG    1       -4.869   3.913   0.159  0.00  0.00    +0.170 A 
ATOM      5  C   LIG    1       -4.832   5.303   0.163  0.00  0.00    +0.020 A 
ATOM      6  C   LIG    1       -6.001   6.024   0.263  0.00  0.00    +0.060 A 
ENDROOT
BRANCH   1  13
ATOM      7  C   LIG    1      -13.681   9.531   0.950  0.00  0.00    +0.100 C 
ATOM      8  C   LIG    1      -12.634   8.451   0.856  0.00  0.00    -0.060 A 
ATOM      9  C   LIG    1      -13.010   7.116   0.889  0.00  0.00    +0.030 A 
ATOM     10  C   LIG    1      -12.078   6.127   0.805  0.00  0.00    +0.080 A 
ATOM     11  C   LIG    1      -10.707   6.442   0.683  0.00  0.00    +0.080 A 
ATOM     12  N   LIG    1       -9.656   5.609   0.589  0.00  0.00    -0.460 NA
ATOM     13  C   LIG    1       -8.479   6.128   0.484  0.00  0.00    +0.160 A 
ATOM     14  S   LIG    1       -8.582   7.883   0.503  0.00  0.00    +0.070 S 
ATOM     15  C   LIG    1      -10.335   7.792   0.651  0.00  0.00    -0.170 A 
ATOM     16  C   LIG    1      -11.304   8.789   0.739  0.00  0.00    +0.050 A 
ENDBRANCH   1  13
BRANCH   4  17
ATOM     17  N   LIG    1       -3.682   3.185   0.052  0.00  0.00    -0.670 N 
ATOM     18  H   LIG    1       -3.593   2.333   0.507  0.00  0.00    +0.410 HD
ATOM     19  C   LIG    1       -2.660   3.666  -0.684  0.00  0.00    +0.560 C 
ATOM     20  O   LIG    1       -2.804   4.684  -1.332  0.00  0.00    -0.500 OA
BRANCH  19  21
ATOM     21  C   LIG    1       -1.365   2.954  -0.703  0.00  0.00    -0.140 A 
ATOM     22  C   LIG    1       -1.198   1.782   0.036  0.00  0.00    +0.090 A 
ATOM     23  C   LIG    1        0.016   1.126   0.017  0.00  0.00    +0.030 A 
ATOM     24  C   LIG    1        1.062   1.622  -0.739  0.00  0.00    +0.110 A 
ATOM     25  C   LIG    1        0.902   2.781  -1.477  0.00  0.00    -0.190 A 
ATOM     26  C   LIG    1       -0.304   3.450  -1.464  0.00  0.00    +0.140 A 
BRANCH  25  27
ATOM     27  C   LIG    1        2.048   3.314  -2.298  0.00  0.00    +0.510 C 
ATOM     28  F   LIG    1        2.378   4.601  -1.858  0.00  0.00    -0.170 F 
ATOM     29  F   LIG    1        1.673   3.365  -3.645  0.00  0.00    -0.170 F 
ATOM     30  F   LIG    1        3.156   2.473  -2.154  0.00  0.00    -0.170 F 
ENDBRANCH  25  27
ENDBRANCH  19  21
ENDBRANCH   4  17
TORSDOF 4
