REMARK  Name = ZINCc70000001ExY.0
REMARK                            x       y       z     vdW  Elec       q    Type
REMARK                         _______ _______ _______ _____ _____    ______ ____
ROOT
ATOM      1  N   LIG    1       -1.283   4.452  -2.808  0.00  0.00    -0.350 N 
ATOM      2  C   LIG    1       -1.071   4.048  -1.538  0.00  0.00    +0.370 A 
ATOM      3  C   LIG    1       -1.508   2.771  -1.433  0.00  0.00    -0.820 A 
ATOM      4  C   LIG    1       -2.013   2.385  -2.679  0.00  0.00    +0.330 A 
ATOM      5  N   LIG    1       -1.879   3.392  -3.504  0.00  0.00    -0.290 NA
ENDROOT
BRANCH   1   7
ATOM      6  C   LIG    1       -2.095   6.745  -3.062  0.00  0.00    +0.050 C 
ATOM      7  C   LIG    1       -0.955   5.769  -3.360  0.00  0.00    +0.250 C 
ATOM      8  C   LIG    1        0.337   6.282  -2.720  0.00  0.00    +0.060 C 
ENDBRANCH   1   7
BRANCH   3   9
ATOM      9  S   LIG    1       -1.456   1.774   0.019  0.00  0.00    +2.740 S 
ATOM     10  O   LIG    1       -1.406   2.671   1.120  0.00  0.00    -0.970 OA
ATOM     11  O   LIG    1       -2.469   0.789  -0.135  0.00  0.00    -0.960 OA
BRANCH   9  12
ATOM     12  N   LIG    1       -0.011   0.966   0.007  0.00  0.00    -1.250 NA
ATOM     13  H   LIG    1        0.822   1.462   0.002  0.00  0.00    +0.420 HD
ATOM     14  H   LIG    1        0.002  -0.004   0.002  0.00  0.00    +0.420 HD
ENDBRANCH   9  12
ENDBRANCH   3   9
TORSDOF 3
