REMARK  Name = ZINCvU00000006mN.0
REMARK                            x       y       z     vdW  Elec       q    Type
REMARK                         _______ _______ _______ _____ _____    ______ ____
ROOT
ATOM      1  C   LIG    1        4.721  -0.002  -0.049  0.00  0.00    +0.210 A 
ATOM      2  N   LIG    1        3.566  -0.628  -0.134  0.00  0.00    -0.450 NA
ATOM      3  C   LIG    1        2.405   0.025  -0.220  0.00  0.00    +0.130 A 
ATOM      4  C   LIG    1        1.186  -0.671  -0.309  0.00  0.00    +0.050 A 
ATOM      5  C   LIG    1        0.018   0.022  -0.396  0.00  0.00    +0.030 A 
ATOM      6  C   LIG    1        0.007   1.415  -0.397  0.00  0.00    +0.020 A 
ATOM      7  C   LIG    1        1.170   2.123  -0.312  0.00  0.00    +0.060 A 
ATOM      8  C   LIG    1        2.388   1.442  -0.222  0.00  0.00    -0.070 A 
ATOM      9  C   LIG    1        3.660   2.160  -0.129  0.00  0.00    -0.070 A 
ATOM     10  C   LIG    1        4.816   1.398  -0.043  0.00  0.00    +0.020 A 
ENDROOT
BRANCH   1  14
ATOM     11  C   LIG    1        8.287  -2.303   0.218  0.00  0.00    +0.150 A 
ATOM     12  C   LIG    1        7.056  -2.941   0.127  0.00  0.00    -0.020 A 
ATOM     13  C   LIG    1        5.899  -2.197   0.041  0.00  0.00    +0.110 A 
ATOM     14  C   LIG    1        5.964  -0.804   0.044  0.00  0.00    -0.100 A 
ATOM     15  C   LIG    1        7.202  -0.167   0.130  0.00  0.00    +0.070 A 
ATOM     16  C   LIG    1        8.355  -0.916   0.222  0.00  0.00    -0.080 A 
BRANCH  11  18
ATOM     17  C   LIG    1       10.657  -2.318   0.394  0.00  0.00    +0.240 C 
ATOM     18  O   LIG    1        9.426  -3.038   0.303  0.00  0.00    -0.310 OA
ENDBRANCH  11  18
ENDBRANCH   1  14
BRANCH   9  19
ATOM     19  C   LIG    1        3.711   3.638  -0.127  0.00  0.00    +0.570 C 
ATOM     20  N   LIG    1        4.881   4.271   0.088  0.00  0.00    -0.660 N 
ATOM     21  H   LIG    1        5.702   3.761   0.167  0.00  0.00    +0.410 HD
ATOM     22  O   LIG    1        2.698   4.281  -0.320  0.00  0.00    -0.500 OA
BRANCH  20  23
ATOM     23  C   LIG    1        4.911   5.666   0.197  0.00  0.00    +0.130 A 
ATOM     24  C   LIG    1        6.018   6.374  -0.253  0.00  0.00    +0.010 A 
ATOM     25  C   LIG    1        6.046   7.751  -0.149  0.00  0.00    +0.040 A 
ATOM     26  C   LIG    1        4.972   8.426   0.415  0.00  0.00    +0.130 A 
ATOM     27  C   LIG    1        3.867   7.718   0.870  0.00  0.00    +0.010 A 
ATOM     28  C   LIG    1        3.837   6.342   0.761  0.00  0.00    +0.040 A 
BRANCH  26  29
ATOM     29  N   LIG    1        5.002   9.822   0.524  0.00  0.00    -0.680 N 
ATOM     30  H   LIG    1        4.566  10.260   1.272  0.00  0.00    +0.410 HD
ATOM     31  C   LIG    1        5.638  10.558  -0.408  0.00  0.00    +0.510 C 
ATOM     32  O   LIG    1        6.103  10.021  -1.392  0.00  0.00    -0.520 OA
ATOM     33  C   LIG    1        5.773  12.048  -0.230  0.00  0.00    +0.110 C 
ENDBRANCH  26  29
ENDBRANCH  20  23
ENDBRANCH   9  19
TORSDOF 5
