REMARK  Name = ZINCrg00000N2y15.0
REMARK                            x       y       z     vdW  Elec       q    Type
REMARK                         _______ _______ _______ _____ _____    ______ ____
ROOT
ATOM      1  C   LIG    1       -0.775   1.695   1.294  0.00  0.00    +0.250 C 
ATOM      2  C   LIG    1       -2.260   1.669   0.843  0.00  0.00    +0.020 C 
ATOM      3  C   LIG    1       -2.219   2.142  -0.625  0.00  0.00    +0.020 C 
ATOM      4  C   LIG    1       -0.801   1.846  -1.143  0.00  0.00    +0.240 C 
ATOM      5  C   LIG    1       -0.029   1.203   0.029  0.00  0.00    +0.020 C 
ENDROOT
BRANCH   1   7
ATOM      6  C   LIG    1       -0.965  -0.622   2.310  0.00  0.00    +0.300 C 
ATOM      7  N   LIG    1       -0.553   0.780   2.416  0.00  0.00    -0.590 N 
ATOM      8  C   LIG    1        0.030   1.227   3.546  0.00  0.00    +0.610 C 
ATOM      9  O   LIG    1        0.441   2.370   3.606  0.00  0.00    -0.530 OA
BRANCH   8  10
ATOM     10  C   LIG    1        0.169   0.332   4.708  0.00  0.00    +0.000 A 
ATOM     11  N   LIG    1       -0.136  -0.947   4.759  0.00  0.00    -0.200 NA
ATOM     12  N   LIG    1        0.103  -1.452   5.915  0.00  0.00    -0.420 N 
ATOM     13  H   LIG    1       -0.052  -2.381   6.149  0.00  0.00    +0.450 HD
ATOM     14  C   LIG    1        0.602  -0.510   6.775  0.00  0.00    +0.070 A 
ATOM     15  C   LIG    1        1.011  -0.518   8.105  0.00  0.00    +0.010 A 
ATOM     16  C   LIG    1        1.475   0.643   8.682  0.00  0.00    +0.050 A 
ATOM     17  C   LIG    1        1.539   1.823   7.952  0.00  0.00    -0.010 A 
ATOM     18  C   LIG    1        1.142   1.853   6.644  0.00  0.00    +0.100 A 
ATOM     19  C   LIG    1        0.670   0.691   6.041  0.00  0.00    -0.110 A 
ENDBRANCH   8  10
ENDBRANCH   1   7
BRANCH   4  20
ATOM     20  N   LIG    1       -0.863   0.915  -2.273  0.00  0.00    -0.720 N 
ATOM     21  H   LIG    1       -0.794  -0.040  -2.119  0.00  0.00    +0.400 HD
ATOM     22  C   LIG    1       -1.017   1.387  -3.526  0.00  0.00    +0.520 C 
ATOM     23  O   LIG    1       -1.104   2.581  -3.718  0.00  0.00    -0.520 OA
BRANCH  22  24
ATOM     24  C   LIG    1       -1.081   0.430  -4.688  0.00  0.00    +0.190 C 
BRANCH  24  25
ATOM     25  C   LIG    1       -1.255   1.206  -5.969  0.00  0.00    +0.240 A 
ATOM     26  N   LIG    1       -2.399   1.533  -6.510  0.00  0.00    -0.300 NA
ATOM     27  N   LIG    1       -2.104   2.248  -7.682  0.00  0.00    -0.480 N 
ATOM     28  H   LIG    1       -2.741   2.629  -8.306  0.00  0.00    +0.440 HD
ATOM     29  C   LIG    1       -0.763   2.294  -7.770  0.00  0.00    +0.490 A 
ATOM     30  N   LIG    1       -0.267   1.665  -6.736  0.00  0.00    -0.540 NA
ENDBRANCH  24  25
ENDBRANCH  22  24
ENDBRANCH   4  20
TORSDOF 5
