REMARK  Name = ZINCrg00000N2y15.1
REMARK                            x       y       z     vdW  Elec       q    Type
REMARK                         _______ _______ _______ _____ _____    ______ ____
ROOT
ATOM      1  C   LIG    1       -6.447   2.620  -3.310  0.00  0.00    +0.260 C 
ATOM      2  C   LIG    1       -6.567   1.393  -2.373  0.00  0.00    +0.010 C 
ATOM      3  C   LIG    1       -5.136   0.821  -2.313  0.00  0.00    +0.030 C 
ATOM      4  C   LIG    1       -4.184   1.979  -2.661  0.00  0.00    +0.250 C 
ATOM      5  C   LIG    1       -5.071   3.215  -2.920  0.00  0.00    +0.020 C 
ENDROOT
BRANCH   1   7
ATOM      6  C   LIG    1       -7.681   4.161  -1.716  0.00  0.00    +0.300 C 
ATOM      7  N   LIG    1       -7.524   3.579  -3.051  0.00  0.00    -0.600 N 
ATOM      8  C   LIG    1       -8.370   3.926  -4.041  0.00  0.00    +0.610 C 
ATOM      9  O   LIG    1       -8.194   3.502  -5.168  0.00  0.00    -0.530 OA
BRANCH   8  10
ATOM     10  C   LIG    1       -9.508   4.818  -3.759  0.00  0.00    +0.000 A 
ATOM     11  N   LIG    1       -9.769   5.428  -2.622  0.00  0.00    -0.200 NA
ATOM     12  N   LIG    1      -10.835   6.141  -2.693  0.00  0.00    -0.420 N 
ATOM     13  H   LIG    1      -11.190   6.668  -1.961  0.00  0.00    +0.450 HD
ATOM     14  C   LIG    1      -11.407   6.057  -3.936  0.00  0.00    +0.070 A 
ATOM     15  C   LIG    1      -12.538   6.605  -4.531  0.00  0.00    +0.010 A 
ATOM     16  C   LIG    1      -12.833   6.303  -5.842  0.00  0.00    +0.050 A 
ATOM     17  C   LIG    1      -12.014   5.456  -6.577  0.00  0.00    -0.010 A 
ATOM     18  C   LIG    1      -10.897   4.906  -6.011  0.00  0.00    +0.100 A 
ATOM     19  C   LIG    1      -10.581   5.199  -4.688  0.00  0.00    -0.110 A 
ENDBRANCH   8  10
ENDBRANCH   1   7
BRANCH   4  20
ATOM     20  N   LIG    1       -3.278   2.238  -1.540  0.00  0.00    -0.730 N 
ATOM     21  H   LIG    1       -3.505   2.910  -0.877  0.00  0.00    +0.400 HD
ATOM     22  C   LIG    1       -2.128   1.544  -1.428  0.00  0.00    +0.520 C 
ATOM     23  O   LIG    1       -1.844   0.705  -2.256  0.00  0.00    -0.510 OA
BRANCH  22  24
ATOM     24  C   LIG    1       -1.196   1.811  -0.275  0.00  0.00    +0.190 C 
BRANCH  24  25
ATOM     25  C   LIG    1        0.007   0.909  -0.383  0.00  0.00    +0.180 A 
ATOM     26  N   LIG    1       -0.007  -0.393  -0.476  0.00  0.00    -0.260 NA
ATOM     27  N   LIG    1        1.198  -0.834  -0.557  0.00  0.00    -0.290 NA
ATOM     28  C   LIG    1        2.036   0.165  -0.518  0.00  0.00    +0.380 A 
ATOM     29  N   LIG    1        1.304   1.300  -0.406  0.00  0.00    -0.580 N 
ATOM     30  H   LIG    1        1.641   2.209  -0.354  0.00  0.00    +0.430 HD
ENDBRANCH  24  25
ENDBRANCH  22  24
ENDBRANCH   4  20
TORSDOF 5
