REMARK  Name = ZINCrD00000F5Lkp.0
REMARK                            x       y       z     vdW  Elec       q    Type
REMARK                         _______ _______ _______ _____ _____    ______ ____
ROOT
ATOM      1  N   LIG    1       -0.150   1.576  -0.857  0.00  0.00    -0.610 N 
ATOM      2  C   LIG    1        1.095   2.015  -0.593  0.00  0.00    +0.510 C 
ATOM      3  C   LIG    1        1.634   0.699  -0.099  0.00  0.00    +0.180 C 
ATOM      4  O   LIG    1        1.609   3.107  -0.714  0.00  0.00    -0.480 OA
ATOM      5  C   LIG    1        0.212   0.230  -0.408  0.00  0.00    +0.290 C 
ENDROOT
BRANCH   5   6
ATOM      6  C   LIG    1       -0.545  -0.206   0.819  0.00  0.00    -0.140 A 
ATOM      7  C   LIG    1       -0.965   0.733   1.742  0.00  0.00    +0.120 A 
ATOM      8  C   LIG    1       -1.664   0.334   2.866  0.00  0.00    -0.020 A 
ATOM      9  C   LIG    1       -1.936  -1.008   3.074  0.00  0.00    +0.140 A 
ATOM     10  C   LIG    1       -1.511  -1.950   2.152  0.00  0.00    -0.040 A 
ATOM     11  F   LIG    1       -2.615  -1.397   4.174  0.00  0.00    -0.130 F 
ATOM     12  C   LIG    1       -0.816  -1.549   1.025  0.00  0.00    +0.150 A 
ATOM     13  F   LIG    1       -0.401  -2.467   0.125  0.00  0.00    -0.130 F 
ENDBRANCH   5   6
BRANCH   1  14
ATOM     14  C   LIG    1       -1.370   2.192  -1.384  0.00  0.00    +0.340 C 
BRANCH  14  15
ATOM     15  C   LIG    1       -2.143   2.852  -0.240  0.00  0.00    +0.150 C 
BRANCH  15  16
ATOM     16  O   LIG    1       -1.334   3.865   0.359  0.00  0.00    -0.380 OA
BRANCH  16  18
ATOM     17  C   LIG    1       -1.013   5.604   2.007  0.00  0.00    +0.040 C 
ATOM     18  C   LIG    1       -1.966   4.548   1.445  0.00  0.00    +0.160 C 
ENDBRANCH  16  18
ENDBRANCH  15  16
ENDBRANCH  14  15
ENDBRANCH   1  14
BRANCH   3  19
ATOM     19  O   LIG    1        1.972   0.683   1.289  0.00  0.00    -0.260 OA
BRANCH  19  20
ATOM     20  C   LIG    1        3.290   0.569   1.603  0.00  0.00    +0.090 A 
ATOM     21  C   LIG    1        4.247   0.600   0.602  0.00  0.00    -0.030 A 
ATOM     22  C   LIG    1        5.587   0.484   0.922  0.00  0.00    +0.010 A 
ATOM     23  C   LIG    1        5.975   0.337   2.240  0.00  0.00    +0.020 A 
ATOM     24  C   LIG    1        5.025   0.305   3.245  0.00  0.00    -0.030 A 
ATOM     25  C   LIG    1        3.681   0.427   2.931  0.00  0.00    +0.110 A 
BRANCH  25  26
ATOM     26  O   LIG    1        2.746   0.403   3.918  0.00  0.00    -0.310 OA
ATOM     27  C   LIG    1        3.221   0.254   5.258  0.00  0.00    +0.250 C 
ENDBRANCH  25  26
ENDBRANCH  19  20
ENDBRANCH   3  19
TORSDOF 8
