REMARK  Name = ZINCqH0000033Afn.0
REMARK                            x       y       z     vdW  Elec       q    Type
REMARK                         _______ _______ _______ _____ _____    ______ ____
ROOT
ATOM      1  N   LIG    1       -6.012   1.356   0.039  0.00  0.00    -0.620 N 
ATOM      2  H   LIG    1       -6.156   2.316   0.044  0.00  0.00    +0.430 HD
ATOM      3  C   LIG    1       -4.757   0.864   0.030  0.00  0.00    +0.510 C 
ATOM      4  O   LIG    1       -4.577  -0.336   0.023  0.00  0.00    -0.470 OA
ENDROOT
BRANCH   1   8
ATOM      5  C   LIG    1       -8.737  -1.341   0.037  0.00  0.00    -0.360 A 
ATOM      6  C   LIG    1       -9.249  -0.072   0.047  0.00  0.00    +0.200 A 
ATOM      7  N   LIG    1       -8.340   0.868   0.048  0.00  0.00    -0.510 NA
ATOM      8  C   LIG    1       -7.094   0.494   0.040  0.00  0.00    +0.250 A 
ATOM      9  C   LIG    1      -10.729   0.216   0.056  0.00  0.00    +0.180 C 
ATOM     10  S   LIG    1       -6.980  -1.211   0.023  0.00  0.00    +0.340 S 
BRANCH   5  11
ATOM     11  C   LIG    1       -9.509  -2.582   0.034  0.00  0.00    +0.550 C 
ATOM     12  O   LIG    1      -10.725  -2.542   0.040  0.00  0.00    -0.500 OA
BRANCH  11  13
ATOM     13  O   LIG    1       -8.874  -3.772   0.024  0.00  0.00    -0.350 OA
BRANCH  13  15
ATOM     14  C   LIG    1       -8.800  -6.188   0.011  0.00  0.00    +0.070 C 
ATOM     15  C   LIG    1       -9.691  -4.944   0.021  0.00  0.00    +0.200 C 
ENDBRANCH  13  15
ENDBRANCH  11  13
ENDBRANCH   5  11
ENDBRANCH   1   8
BRANCH   3  16
ATOM     16  C   LIG    1       -3.579   1.803   0.029  0.00  0.00    +0.270 C 
BRANCH  16  17
ATOM     17  O   LIG    1       -2.367   1.046   0.019  0.00  0.00    -0.290 OA
BRANCH  17  18
ATOM     18  C   LIG    1       -1.202   1.746   0.017  0.00  0.00    +0.130 A 
ATOM     19  C   LIG    1       -0.013   1.076   0.008  0.00  0.00    +0.000 A 
ATOM     20  C   LIG    1        1.192   1.799   0.000  0.00  0.00    -0.010 A 
ATOM     21  C   LIG    1        2.435   1.143  -0.015  0.00  0.00    +0.020 A 
ATOM     22  C   LIG    1        3.582   1.876  -0.022  0.00  0.00    +0.030 A 
ATOM     23  C   LIG    1        3.544   3.269  -0.015  0.00  0.00    -0.010 A 
ATOM     24  C   LIG    1        2.359   3.937   0.000  0.00  0.00    +0.030 A 
ATOM     25  C   LIG    1        1.153   3.216   0.008  0.00  0.00    -0.080 A 
ATOM     26  C   LIG    1       -0.090   3.873   0.023  0.00  0.00    +0.070 A 
ATOM     27  C   LIG    1       -1.238   3.144   0.030  0.00  0.00    -0.060 A 
ENDBRANCH  17  18
ENDBRANCH  16  17
ENDBRANCH   3  16
TORSDOF 7
