REMARK  Name = ZINCvU0000000IZk.0
REMARK                            x       y       z     vdW  Elec       q    Type
REMARK                         _______ _______ _______ _____ _____    ______ ____
ROOT
ATOM      1  O   LIG    1        4.817  -0.042   1.081  0.00  0.00    -0.490 OA
ATOM      2  C   LIG    1        4.903   1.121   0.751  0.00  0.00    +0.520 C 
ATOM      3  N   LIG    1        6.073   1.606   0.289  0.00  0.00    -0.660 N 
ATOM      4  H   LIG    1        6.138   2.533   0.011  0.00  0.00    +0.420 HD
ENDROOT
BRANCH   3   5
ATOM      5  C   LIG    1        7.195   0.771   0.211  0.00  0.00    +0.140 A 
ATOM      6  C   LIG    1        7.037  -0.607   0.204  0.00  0.00    +0.040 A 
ATOM      7  C   LIG    1        8.146  -1.429   0.126  0.00  0.00    +0.040 A 
ATOM      8  C   LIG    1        9.413  -0.881   0.055  0.00  0.00    +0.010 A 
ATOM      9  C   LIG    1        9.579   0.491   0.060  0.00  0.00    +0.040 A 
ATOM     10  C   LIG    1        8.473   1.322   0.133  0.00  0.00    +0.050 A 
BRANCH  10  11
ATOM     11  O   LIG    1        8.633   2.672   0.134  0.00  0.00    -0.260 OA
BRANCH  11  12
ATOM     12  C   LIG    1        8.615   3.317   1.330  0.00  0.00    +0.110 A 
ATOM     13  C   LIG    1        8.329   2.616   2.492  0.00  0.00    -0.060 A 
ATOM     14  C   LIG    1        8.315   3.272   3.708  0.00  0.00    +0.050 A 
ATOM     15  C   LIG    1        8.577   4.629   3.765  0.00  0.00    -0.020 A 
ATOM     16  C   LIG    1        8.858   5.331   2.607  0.00  0.00    +0.050 A 
ATOM     17  C   LIG    1        8.877   4.678   1.390  0.00  0.00    -0.010 A 
ENDBRANCH  11  12
ENDBRANCH  10  11
ENDBRANCH   3   5
BRANCH   2  18
ATOM     18  C   LIG    1        3.702   2.026   0.856  0.00  0.00    +0.270 C 
BRANCH  18  19
ATOM     19  O   LIG    1        2.574   1.273   1.375  0.00  0.00    -0.320 OA
BRANCH  19  20
ATOM     20  C   LIG    1        1.412   1.941   1.531  0.00  0.00    +0.510 C 
ATOM     21  O   LIG    1        1.345   3.120   1.240  0.00  0.00    -0.500 OA
BRANCH  20  22
ATOM     22  C   LIG    1        0.232   1.246   2.051  0.00  0.00    -0.010 C 
ATOM     23  C   LIG    1       -0.932   1.913   2.202  0.00  0.00    +0.200 C 
BRANCH  23  24
ATOM     24  C   LIG    1       -2.116   1.215   2.717  0.00  0.00    +0.110 A 
ATOM     25  N   LIG    1       -3.275   1.760   2.898  0.00  0.00    -0.430 NA
ATOM     26  C   LIG    1       -4.260   0.997   3.374  0.00  0.00    +0.080 A 
ATOM     27  C   LIG    1       -5.601   1.354   3.655  0.00  0.00    +0.080 A 
ATOM     28  C   LIG    1       -6.474   0.431   4.140  0.00  0.00    +0.030 A 
ATOM     29  C   LIG    1       -6.071  -0.878   4.371  0.00  0.00    +0.050 A 
ATOM     30  C   LIG    1       -4.775  -1.257   4.109  0.00  0.00    +0.060 A 
ATOM     31  C   LIG    1       -3.863  -0.327   3.610  0.00  0.00    -0.170 A 
ATOM     32  S   LIG    1       -2.165  -0.484   3.169  0.00  0.00    +0.100 S 
ENDBRANCH  23  24
ENDBRANCH  20  22
ENDBRANCH  19  20
ENDBRANCH  18  19
ENDBRANCH   2  18
TORSDOF 8
