REMARK  Name = ZINCrD000000AsT1.0
REMARK                            x       y       z     vdW  Elec       q    Type
REMARK                         _______ _______ _______ _____ _____    ______ ____
ROOT
ATOM      1  S   LIG    1        0.922   3.963   0.015  0.00  0.00    +0.020 S 
ENDROOT
BRANCH   1   2
ATOM      2  C   LIG    1        2.528   4.688   0.003  0.00  0.00    +0.150 A 
ATOM      3  C   LIG    1        2.659   6.074   0.004  0.00  0.00    -0.020 A 
ATOM      4  C   LIG    1        3.925   6.630  -0.001  0.00  0.00    +0.200 A 
ATOM      5  C   LIG    1        5.022   5.779  -0.016  0.00  0.00    -0.750 A 
ATOM      6  C   LIG    1        4.819   4.413  -0.021  0.00  0.00    +0.390 A 
ATOM      7  N   LIG    1        3.600   3.910  -0.011  0.00  0.00    -0.510 NA
BRANCH   5   8
ATOM      8  S   LIG    1        6.658   6.435  -0.029  0.00  0.00    +2.720 S 
ATOM      9  O   LIG    1        7.501   5.422   0.502  0.00  0.00    -0.950 OA
ATOM     10  O   LIG    1        6.570   7.741   0.523  0.00  0.00    -0.950 OA
BRANCH   8  11
ATOM     11  N   LIG    1        7.096   6.626  -1.614  0.00  0.00    -1.010 NA
ATOM     12  C   LIG    1        7.774   5.618  -2.443  0.00  0.00    +0.270 C 
ATOM     13  C   LIG    1        8.001   6.246  -3.834  0.00  0.00    +0.030 C 
ATOM     14  C   LIG    1        7.955   7.768  -3.538  0.00  0.00    +0.040 C 
ATOM     15  C   LIG    1        6.878   7.836  -2.427  0.00  0.00    +0.270 C 
ENDBRANCH   8  11
ENDBRANCH   5   8
ENDBRANCH   1   2
BRANCH   1  16
ATOM     16  C   LIG    1        1.278   2.184   0.002  0.00  0.00    +0.090 C 
BRANCH  16  18
ATOM     17  O   LIG    1       -1.077   2.006   0.018  0.00  0.00    -0.450 OA
ATOM     18  C   LIG    1       -0.017   1.413   0.010  0.00  0.00    +0.440 C 
BRANCH  18  19
ATOM     19  C   LIG    1        0.002  -0.004   0.002  0.00  0.00    -0.270 A 
ATOM     20  C   LIG    1        1.115  -0.817  -0.013  0.00  0.00    +0.330 A 
ATOM     21  N   LIG    1        0.733  -2.108  -0.015  0.00  0.00    -0.570 N 
ATOM     22  H   LIG    1        1.341  -2.864  -0.024  0.00  0.00    +0.420 HD
ATOM     23  C   LIG    1       -0.644  -2.209  -0.003  0.00  0.00    +0.070 A 
ATOM     24  C   LIG    1       -1.516  -3.293   0.001  0.00  0.00    +0.000 A 
ATOM     25  C   LIG    1       -2.877  -3.080   0.015  0.00  0.00    +0.030 A 
ATOM     26  C   LIG    1       -3.391  -1.792   0.026  0.00  0.00    +0.000 A 
ATOM     27  C   LIG    1       -2.543  -0.706   0.022  0.00  0.00    +0.060 A 
ATOM     28  C   LIG    1       -1.166  -0.907   0.014  0.00  0.00    -0.060 A 
ENDBRANCH  18  19
ENDBRANCH  16  18
ENDBRANCH   1  16
TORSDOF 6
