REMARK  Name = ZINCqH00000070fK.0
REMARK                            x       y       z     vdW  Elec       q    Type
REMARK                         _______ _______ _______ _____ _____    ______ ____
ROOT
ATOM      1  N   LIG    1       -0.984  -0.979   0.007  0.00  0.00    -0.430 N 
ATOM      2  C   LIG    1        0.002  -0.004   0.002  0.00  0.00    +0.060 A 
ATOM      3  C   LIG    1       -0.017   1.382   0.010  0.00  0.00    +0.010 A 
ATOM      4  C   LIG    1        1.171   2.085   0.002  0.00  0.00    +0.030 A 
ATOM      5  C   LIG    1        2.384   1.414  -0.014  0.00  0.00    +0.010 A 
ATOM      6  C   LIG    1        2.422   0.037  -0.021  0.00  0.00    +0.060 A 
ATOM      7  C   LIG    1        1.229  -0.689  -0.013  0.00  0.00    +0.060 A 
ATOM      8  N   LIG    1        0.946  -2.018  -0.017  0.00  0.00    -0.490 NA
ATOM      9  C   LIG    1       -0.353  -2.193  -0.006  0.00  0.00    +0.250 A 
ENDROOT
BRANCH   1  13
ATOM     10  C   LIG    1       -5.105  -0.331   0.051  0.00  0.00    +0.150 A 
ATOM     11  C   LIG    1       -4.510  -0.934  -1.047  0.00  0.00    +0.000 A 
ATOM     12  C   LIG    1       -3.146  -1.149  -1.062  0.00  0.00    +0.080 A 
ATOM     13  C   LIG    1       -2.370  -0.761   0.022  0.00  0.00    +0.070 A 
ATOM     14  C   LIG    1       -2.967  -0.162   1.123  0.00  0.00    +0.070 A 
ATOM     15  C   LIG    1       -4.330   0.057   1.135  0.00  0.00    -0.060 A 
BRANCH  10  17
ATOM     16  C   LIG    1       -6.994   0.505   1.229  0.00  0.00    +0.240 C 
ATOM     17  O   LIG    1       -6.448  -0.121   0.066  0.00  0.00    -0.310 OA
ENDBRANCH  10  17
ENDBRANCH   1  13
BRANCH   9  18
ATOM     18  S   LIG    1       -1.165  -3.757  -0.006  0.00  0.00    +0.080 S 
BRANCH  18  19
ATOM     19  C   LIG    1        0.272  -4.857  -0.025  0.00  0.00    +0.120 C 
BRANCH  19  20
ATOM     20  C   LIG    1       -0.193  -6.290  -0.029  0.00  0.00    +0.550 C 
ATOM     21  N   LIG    1        0.710  -7.292  -0.042  0.00  0.00    -0.610 N 
ATOM     22  C   LIG    1        2.171  -7.128  -0.062  0.00  0.00    +0.230 C 
ATOM     23  C   LIG    1        2.789  -8.541  -0.097  0.00  0.00    +0.040 C 
ATOM     24  C   LIG    1        1.639  -9.407  -0.675  0.00  0.00    +0.040 C 
ATOM     25  C   LIG    1        0.395  -8.732  -0.047  0.00  0.00    +0.250 C 
ATOM     26  O   LIG    1       -1.379  -6.543  -0.019  0.00  0.00    -0.520 OA
ENDBRANCH  19  20
ENDBRANCH  18  19
ENDBRANCH   9  18
TORSDOF 5
