REMARK  Name = ZINCpe000000YTVE.0
REMARK                            x       y       z     vdW  Elec       q    Type
REMARK                         _______ _______ _______ _____ _____    ______ ____
ROOT
ATOM      1  O   LIG    1       -2.304   0.248   0.432  0.00  0.00    -0.440 OA
ATOM      2  C   LIG    1       -1.388  -0.527   0.259  0.00  0.00    +0.520 C 
ATOM      3  N   LIG    1       -1.612  -1.855   0.297  0.00  0.00    -0.690 N 
ATOM      4  H   LIG    1       -0.879  -2.475   0.159  0.00  0.00    +0.410 HD
ATOM      5  C   LIG    1       -2.855  -2.323   0.527  0.00  0.00    +0.700 C 
ATOM      6  N   LIG    1       -3.079  -3.651   0.565  0.00  0.00    -0.740 N 
ATOM      7  H   LIG    1       -2.346  -4.271   0.426  0.00  0.00    +0.400 HD
ATOM      8  O   LIG    1       -3.774  -1.546   0.700  0.00  0.00    -0.530 OA
ENDROOT
BRANCH   6   9
ATOM      9  C   LIG    1       -4.430  -4.159   0.815  0.00  0.00    +0.410 C 
BRANCH   9  10
ATOM     10  C   LIG    1       -4.410  -5.666   0.806  0.00  0.00    -0.040 A 
ATOM     11  C   LIG    1       -4.194  -6.456   1.874  0.00  0.00    -0.030 A 
ATOM     12  C   LIG    1       -4.265  -7.792   1.416  0.00  0.00    -0.070 A 
ATOM     13  C   LIG    1       -4.511  -7.738   0.095  0.00  0.00    +0.190 A 
ATOM     14  O   LIG    1       -4.598  -6.448  -0.269  0.00  0.00    -0.170 OA
ENDBRANCH   9  10
ENDBRANCH   6   9
BRANCH   2  15
ATOM     15  C   LIG    1        0.002  -0.004   0.002  0.00  0.00    +0.220 C 
BRANCH  15  16
ATOM     16  N   LIG    1       -0.018   1.465   0.010  0.00  0.00    -0.530 NA
ATOM     17  C   LIG    1       -0.799   1.987  -1.120  0.00  0.00    +0.190 C 
ATOM     18  C   LIG    1       -0.862   3.514  -1.031  0.00  0.00    +0.220 C 
ATOM     19  N   LIG    1        0.503   4.059  -1.041  0.00  0.00    -0.480 N 
ATOM     20  C   LIG    1        1.284   3.537   0.089  0.00  0.00    +0.220 C 
ATOM     21  C   LIG    1        1.347   2.010   0.000  0.00  0.00    +0.190 C 
BRANCH  19  22
ATOM     22  C   LIG    1        0.484   5.449  -1.033  0.00  0.00    +0.310 A 
ATOM     23  C   LIG    1       -0.207   6.134  -2.027  0.00  0.00    -0.050 A 
ATOM     24  C   LIG    1       -0.218   7.518  -2.007  0.00  0.00    +0.090 A 
ATOM     25  C   LIG    1        0.465   8.171  -0.990  0.00  0.00    -0.070 A 
ATOM     26  C   LIG    1        1.130   7.427  -0.036  0.00  0.00    +0.290 A 
ATOM     27  N   LIG    1        1.119   6.109  -0.077  0.00  0.00    -0.520 NA
ENDBRANCH  19  22
ENDBRANCH  15  16
ENDBRANCH   2  15
TORSDOF 5
