REMARK  Name = ZINCb70000004Tc9.0
REMARK                            x       y       z     vdW  Elec       q    Type
REMARK                         _______ _______ _______ _____ _____    ______ ____
ROOT
ATOM      1  C   LIG    1       -0.634  -2.555  -1.170  0.00  0.00    -0.040 C 
ATOM      2  C   LIG    1       -1.586  -1.367  -1.390  0.00  0.00    +0.090 C 
ATOM      3  C   LIG    1       -1.173  -0.878   0.009  0.00  0.00    +0.260 C 
ATOM      4  C   LIG    1       -0.849  -2.344   0.341  0.00  0.00    +0.070 C 
ENDROOT
BRANCH   3   5
ATOM      5  N   LIG    1        0.002  -0.004   0.002  0.00  0.00    -0.280 N 
ATOM      6  C   LIG    1        1.293  -0.411  -0.013  0.00  0.00    +0.120 A 
ATOM      7  C   LIG    1        2.043   0.716  -0.014  0.00  0.00    +0.150 A 
ATOM      8  N   LIG    1        1.186   1.743   0.000  0.00  0.00    -0.260 NA
ATOM      9  N   LIG    1       -0.015   1.283   0.009  0.00  0.00    -0.070 NA
ENDBRANCH   3   5
BRANCH   1  10
ATOM     10  C   LIG    1       -1.185  -3.885  -1.688  0.00  0.00    +0.280 C 
BRANCH  10  11
ATOM     11  N   LIG    1       -0.162  -4.929  -1.541  0.00  0.00    -0.640 N 
ATOM     12  H   LIG    1        0.657  -4.674  -2.072  0.00  0.00    +0.440 HD
ATOM     13  H   LIG    1       -0.525  -5.806  -1.883  0.00  0.00    +0.440 HD
ATOM     14  H   LIG    1        0.085  -5.023  -0.567  0.00  0.00    +0.440 HD
ENDBRANCH  10  11
ENDBRANCH   1  10
TORSDOF 3
