REMARK  Name = ZINCpk00000y6wRT.0
REMARK                            x       y       z     vdW  Elec       q    Type
REMARK                         _______ _______ _______ _____ _____    ______ ____
ROOT
ATOM      1  N   LIG    1       -0.915   7.359  -2.294  0.00  0.00    -0.640 N 
ATOM      2  H   LIG    1       -0.170   7.855  -1.920  0.00  0.00    +0.410 HD
ATOM      3  C   LIG    1       -1.127   6.081  -1.924  0.00  0.00    +0.500 C 
ATOM      4  O   LIG    1       -2.059   5.461  -2.392  0.00  0.00    -0.520 OA
ENDROOT
BRANCH   1   7
ATOM      5  C   LIG    1       -0.637  10.263  -3.276  0.00  0.00    +0.150 C 
ATOM      6  C   LIG    1       -1.679   9.251  -3.676  0.00  0.00    +0.050 A 
ATOM      7  C   LIG    1       -1.774   7.975  -3.223  0.00  0.00    +0.010 A 
ATOM      8  C   LIG    1       -2.885   7.381  -3.841  0.00  0.00    +0.270 A 
ATOM      9  N   LIG    1       -3.434   8.262  -4.638  0.00  0.00    -0.280 NA
ATOM     10  N   LIG    1       -2.696   9.450  -4.559  0.00  0.00    -0.320 N 
BRANCH  10  11
ATOM     11  C   LIG    1       -2.960  10.634  -5.261  0.00  0.00    +0.150 A 
ATOM     12  C   LIG    1       -4.267  11.080  -5.404  0.00  0.00    +0.020 A 
ATOM     13  C   LIG    1       -4.524  12.250  -6.092  0.00  0.00    +0.030 A 
ATOM     14  C   LIG    1       -3.482  12.972  -6.645  0.00  0.00    +0.010 A 
ATOM     15  C   LIG    1       -2.180  12.527  -6.509  0.00  0.00    +0.030 A 
ATOM     16  C   LIG    1       -1.916  11.360  -5.818  0.00  0.00    +0.000 A 
ENDBRANCH  10  11
ENDBRANCH   1   7
BRANCH   3  17
ATOM     17  C   LIG    1       -0.207   5.422  -0.930  0.00  0.00    +0.330 C 
BRANCH  17  18
ATOM     18  N   LIG    1       -0.647   4.044  -0.696  0.00  0.00    -0.590 N 
ATOM     19  C   LIG    1       -1.613   3.757   0.376  0.00  0.00    +0.280 C 
ATOM     20  C   LIG    1       -0.883   3.044   1.516  0.00  0.00    +0.010 C 
ATOM     21  C   LIG    1       -0.840   1.546   1.277  0.00  0.00    +0.030 C 
ATOM     22  C   LIG    1        0.013   1.139   0.089  0.00  0.00    +0.050 C 
ATOM     23  C   LIG    1       -0.612   1.629  -1.220  0.00  0.00    +0.180 C 
ATOM     24  C   LIG    1       -0.169   3.058  -1.457  0.00  0.00    +0.490 C 
ATOM     25  O   LIG    1        0.622   3.306  -2.342  0.00  0.00    -0.530 OA
BRANCH  23  26
ATOM     26  O   LIG    1       -0.176   0.802  -2.300  0.00  0.00    -0.540 OA
ATOM     27  H   LIG    1       -0.535   1.057  -3.161  0.00  0.00    +0.390 HD
ENDBRANCH  23  26
ENDBRANCH  17  18
ENDBRANCH   3  17
TORSDOF 5
