REMARK  Name = ZINCpe000000YZIF.0
REMARK                            x       y       z     vdW  Elec       q    Type
REMARK                         _______ _______ _______ _____ _____    ______ ____
ROOT
ATOM      1  O   LIG    1       -1.268  -2.999   2.340  0.00  0.00    -0.510 OA
ATOM      2  C   LIG    1       -1.728  -3.639   1.418  0.00  0.00    +0.510 C 
ATOM      3  N   LIG    1       -2.486  -4.725   1.665  0.00  0.00    -0.610 N 
ATOM      4  C   LIG    1       -3.056  -5.507   0.559  0.00  0.00    +0.280 C 
ATOM      5  C   LIG    1       -2.652  -6.978   0.742  0.00  0.00    +0.020 C 
ATOM      6  C   LIG    1       -3.083  -7.450   2.132  0.00  0.00    +0.110 C 
ATOM      7  C   LIG    1       -2.368  -6.618   3.200  0.00  0.00    +0.030 C 
ATOM      8  C   LIG    1       -2.764  -5.147   3.045  0.00  0.00    +0.290 C 
ENDROOT
BRANCH   6   9
ATOM      9  C   LIG    1       -2.723  -8.903   2.303  0.00  0.00    +0.180 A 
ATOM     10  N   LIG    1       -3.406  -9.797   2.964  0.00  0.00    -0.290 NA
ATOM     11  N   LIG    1       -2.807 -10.934   2.902  0.00  0.00    -0.290 NA
ATOM     12  C   LIG    1       -1.714 -10.816   2.199  0.00  0.00    +0.380 A 
ATOM     13  N   LIG    1       -1.631  -9.525   1.795  0.00  0.00    -0.580 N 
ATOM     14  H   LIG    1       -0.932  -9.127   1.253  0.00  0.00    +0.430 HD
ENDBRANCH   6   9
BRANCH   2  15
ATOM     15  C   LIG    1       -1.452  -3.219  -0.003  0.00  0.00    +0.410 C 
BRANCH  15  16
ATOM     16  N   LIG    1       -0.611  -2.019  -0.003  0.00  0.00    -0.130 N 
ATOM     17  N   LIG    1        0.676  -2.012  -0.015  0.00  0.00    -0.050 NA
ATOM     18  N   LIG    1        1.088  -0.790  -0.012  0.00  0.00    -0.270 NA
ATOM     19  C   LIG    1        0.002  -0.004   0.002  0.00  0.00    +0.220 A 
ATOM     20  N   LIG    1       -1.044  -0.806   0.013  0.00  0.00    -0.290 NA
BRANCH  19  21
ATOM     21  C   LIG    1       -0.018   1.480   0.010  0.00  0.00    -0.020 A 
ATOM     22  C   LIG    1       -1.232   2.163   0.020  0.00  0.00    +0.050 A 
ATOM     23  C   LIG    1       -1.245   3.543   0.032  0.00  0.00    +0.010 A 
ATOM     24  C   LIG    1       -0.056   4.248   0.024  0.00  0.00    +0.030 A 
ATOM     25  C   LIG    1        1.153   3.576   0.010  0.00  0.00    +0.010 A 
ATOM     26  C   LIG    1        1.177   2.196   0.003  0.00  0.00    +0.060 A 
ENDBRANCH  19  21
ENDBRANCH  15  16
ENDBRANCH   2  15
TORSDOF 4
