REMARK  Name = ZINCvU0000000Brw.0
REMARK                            x       y       z     vdW  Elec       q    Type
REMARK                         _______ _______ _______ _____ _____    ______ ____
ROOT
ATOM      1  C   LIG    1       -0.120   9.398   2.009  0.00  0.00    +0.560 C 
ATOM      2  N   LIG    1       -0.188   8.213   1.372  0.00  0.00    -0.720 N 
ATOM      3  H   LIG    1       -0.919   7.603   1.558  0.00  0.00    +0.400 HD
ATOM      4  O   LIG    1        0.797  10.162   1.777  0.00  0.00    -0.510 OA
ENDROOT
BRANCH   1  10
ATOM      5  C   LIG    1       -1.090  11.001   3.659  0.00  0.00    -0.050 A 
ATOM      6  C   LIG    1       -2.078  11.340   4.576  0.00  0.00    -0.020 A 
ATOM      7  C   LIG    1       -3.113  10.466   4.831  0.00  0.00    +0.060 A 
ATOM      8  C   LIG    1       -3.181   9.247   4.174  0.00  0.00    -0.010 A 
ATOM      9  C   LIG    1       -2.214   8.895   3.258  0.00  0.00    +0.070 A 
ATOM     10  C   LIG    1       -1.158   9.769   2.988  0.00  0.00    -0.130 A 
BRANCH   5  11
ATOM     11  S   LIG    1        0.238  12.113   3.335  0.00  0.00    +0.030 S 
BRANCH  11  12
ATOM     12  C   LIG    1       -0.129  13.515   4.425  0.00  0.00    +0.110 C 
BRANCH  12  16
ATOM     13  C   LIG    1        1.896  17.563   2.390  0.00  0.00    +0.180 C 
ATOM     14  C   LIG    1        1.818  16.388   3.331  0.00  0.00    +0.050 A 
ATOM     15  N   LIG    1        0.845  15.543   3.377  0.00  0.00    -0.470 NA
ATOM     16  C   LIG    1        0.935  14.570   4.262  0.00  0.00    +0.090 A 
ATOM     17  C   LIG    1        2.044  14.600   5.007  0.00  0.00    -0.070 A 
ATOM     18  S   LIG    1        3.007  15.983   4.491  0.00  0.00    +0.130 S 
ENDBRANCH  12  16
ENDBRANCH  11  12
ENDBRANCH   5  11
ENDBRANCH   1  10
BRANCH   2  19
ATOM     19  C   LIG    1        0.844   7.844   0.399  0.00  0.00    +0.290 C 
ATOM     20  C   LIG    1        0.490   8.433  -0.968  0.00  0.00    +0.040 C 
BRANCH  19  21
ATOM     21  C   LIG    1        0.922   6.343   0.295  0.00  0.00    -0.110 A 
ATOM     22  C   LIG    1        2.154   5.722   0.185  0.00  0.00    +0.040 A 
ATOM     23  C   LIG    1        2.229   4.346   0.089  0.00  0.00    +0.020 A 
ATOM     24  C   LIG    1        1.067   3.586   0.102  0.00  0.00    +0.150 A 
ATOM     25  C   LIG    1       -0.168   4.213   0.206  0.00  0.00    -0.010 A 
ATOM     26  C   LIG    1       -0.236   5.589   0.308  0.00  0.00    +0.020 A 
BRANCH  24  27
ATOM     27  N   LIG    1        1.139   2.192   0.003  0.00  0.00    -0.670 N 
ATOM     28  H   LIG    1        0.453   1.704  -0.477  0.00  0.00    +0.410 HD
ATOM     29  C   LIG    1        2.164   1.529   0.575  0.00  0.00    +0.540 C 
ATOM     30  O   LIG    1        3.064   2.145   1.106  0.00  0.00    -0.520 OA
BRANCH  29  31
ATOM     31  C   LIG    1        2.189   0.022   0.559  0.00  0.00    -0.070 C 
ATOM     32  C   LIG    1        2.001  -0.701   1.894  0.00  0.00    +0.060 C 
ATOM     33  C   LIG    1        3.378  -0.672   1.226  0.00  0.00    +0.080 C 
ENDBRANCH  29  31
ENDBRANCH  24  27
ENDBRANCH  19  21
ENDBRANCH   2  19
TORSDOF 8
