REMARK  Name = ZINCvU0000000HY1.0
REMARK                            x       y       z     vdW  Elec       q    Type
REMARK                         _______ _______ _______ _____ _____    ______ ____
ROOT
ATOM      1  N   LIG    1        4.901   1.346   2.534  0.00  0.00    -0.680 N 
ATOM      2  H   LIG    1        4.230   1.961   2.868  0.00  0.00    +0.420 HD
ENDROOT
BRANCH   1   3
ATOM      3  C   LIG    1        6.010   1.829   1.863  0.00  0.00    +0.500 A 
ATOM      4  C   LIG    1        6.124   3.209   1.562  0.00  0.00    -0.230 A 
ATOM      5  C   LIG    1        5.218   4.314   1.847  0.00  0.00    -0.020 A 
ATOM      6  C   LIG    1        5.643   5.500   1.415  0.00  0.00    -0.030 A 
ATOM      7  S   LIG    1        7.204   5.368   0.627  0.00  0.00    +0.170 S 
ATOM      8  C   LIG    1        7.270   3.632   0.887  0.00  0.00    +0.120 A 
ATOM      9  N   LIG    1        8.197   2.726   0.549  0.00  0.00    -0.540 NA
ATOM     10  C   LIG    1        8.044   1.456   0.846  0.00  0.00    +0.560 A 
ATOM     11  N   LIG    1        6.980   1.008   1.488  0.00  0.00    -0.580 NA
BRANCH   5  12
ATOM     12  C   LIG    1        3.930   4.134   2.559  0.00  0.00    -0.050 A 
ATOM     13  C   LIG    1        2.966   3.263   2.052  0.00  0.00    +0.030 A 
ATOM     14  C   LIG    1        1.772   3.095   2.723  0.00  0.00    +0.020 A 
ATOM     15  C   LIG    1        1.525   3.797   3.889  0.00  0.00    +0.010 A 
ATOM     16  C   LIG    1        2.476   4.667   4.394  0.00  0.00    +0.010 A 
ATOM     17  C   LIG    1        3.676   4.839   3.735  0.00  0.00    +0.030 A 
ENDBRANCH   5  12
ENDBRANCH   1   3
BRANCH   1  18
ATOM     18  C   LIG    1        4.741  -0.096   2.741  0.00  0.00    +0.300 C 
BRANCH  18  23
ATOM     19  C   LIG    1        7.101  -1.589   7.801  0.00  0.00    +0.090 C 
ATOM     20  C   LIG    1        6.487  -1.199   6.481  0.00  0.00    -0.080 A 
ATOM     21  C   LIG    1        6.734  -1.957   5.352  0.00  0.00    +0.000 A 
ATOM     22  C   LIG    1        6.170  -1.600   4.142  0.00  0.00    +0.030 A 
ATOM     23  C   LIG    1        5.357  -0.485   4.061  0.00  0.00    -0.100 A 
ATOM     24  C   LIG    1        5.113   0.276   5.189  0.00  0.00    +0.010 A 
ATOM     25  C   LIG    1        5.674  -0.083   6.400  0.00  0.00    +0.000 A 
ENDBRANCH  18  23
BRANCH  18  26
ATOM     26  C   LIG    1        3.252  -0.447   2.750  0.00  0.00    +0.190 C 
BRANCH  26  27
ATOM     27  N   LIG    1        2.633   0.012   1.499  0.00  0.00    -0.530 NA
ATOM     28  C   LIG    1        3.140  -0.750   0.349  0.00  0.00    +0.160 C 
ATOM     29  C   LIG    1        2.516  -0.201  -0.936  0.00  0.00    +0.230 C 
ATOM     30  O   LIG    1        1.091  -0.262  -0.832  0.00  0.00    -0.380 OA
ATOM     31  C   LIG    1        0.563   0.471   0.277  0.00  0.00    +0.220 C 
ATOM     32  C   LIG    1        1.167  -0.072   1.575  0.00  0.00    +0.150 C 
ENDBRANCH  26  27
ENDBRANCH  18  26
ENDBRANCH   1  18
TORSDOF 6
