REMARK  Name = ZINCrD00000l9M0K.0
REMARK                            x       y       z     vdW  Elec       q    Type
REMARK                         _______ _______ _______ _____ _____    ______ ____
ROOT
ATOM      1  C   LIG    1       -0.432   0.673   2.357  0.00  0.00    +0.210 C 
ENDROOT
BRANCH   1   8
ATOM      2  N   LIG    1       -0.346   0.906   7.158  0.00  0.00    -0.860 N 
ATOM      3  H   LIG    1       -0.451   1.402   7.985  0.00  0.00    +0.420 HD
ATOM      4  H   LIG    1       -0.098  -0.032   7.183  0.00  0.00    +0.400 HD
ATOM      5  C   LIG    1       -0.544   1.519   5.974  0.00  0.00    +0.700 C 
ATOM      6  N   LIG    1       -0.397   0.830   4.825  0.00  0.00    -0.690 N 
ATOM      7  H   LIG    1       -0.149  -0.107   4.850  0.00  0.00    +0.410 HD
ATOM      8  C   LIG    1       -0.595   1.444   3.642  0.00  0.00    +0.530 C 
ATOM      9  O   LIG    1       -0.905   2.615   3.611  0.00  0.00    -0.450 OA
ATOM     10  O   LIG    1       -0.855   2.694   5.943  0.00  0.00    -0.530 OA
ENDBRANCH   1   8
BRANCH   1  11
ATOM     11  C   LIG    1       -1.401  -0.480   2.336  0.00  0.00    -0.090 A 
ATOM     12  C   LIG    1       -2.725  -0.264   2.003  0.00  0.00    +0.060 A 
ATOM     13  C   LIG    1       -3.614  -1.323   1.980  0.00  0.00    +0.000 A 
ATOM     14  C   LIG    1       -3.180  -2.597   2.297  0.00  0.00    +0.010 A 
ATOM     15  C   LIG    1       -1.857  -2.812   2.635  0.00  0.00    +0.000 A 
ATOM     16  C   LIG    1       -0.967  -1.754   2.654  0.00  0.00    +0.000 A 
ENDBRANCH   1  11
BRANCH   1  17
ATOM     17  N   LIG    1       -0.700   1.560   1.217  0.00  0.00    -0.660 NA
ATOM     18  H   LIG    1       -0.442   2.511   1.430  0.00  0.00    +0.360 HD
BRANCH  17  19
ATOM     19  C   LIG    1       -0.013   1.086   0.008  0.00  0.00    +0.270 C 
BRANCH  19  20
ATOM     20  C   LIG    1       -0.742   1.585  -1.213  0.00  0.00    -0.060 A 
ATOM     21  C   LIG    1       -1.257   2.868  -1.234  0.00  0.00    +0.030 A 
ATOM     22  C   LIG    1       -1.922   3.327  -2.356  0.00  0.00    +0.000 A 
ATOM     23  C   LIG    1       -2.079   2.501  -3.452  0.00  0.00    +0.000 A 
ATOM     24  C   LIG    1       -1.568   1.216  -3.429  0.00  0.00    +0.000 A 
ATOM     25  C   LIG    1       -0.899   0.759  -2.310  0.00  0.00    +0.010 A 
ENDBRANCH  19  20
BRANCH  19  26
ATOM     26  C   LIG    1        1.401   1.607  -0.003  0.00  0.00    -0.120 A 
ATOM     27  C   LIG    1        1.663   2.902   0.406  0.00  0.00    +0.010 A 
ATOM     28  C   LIG    1        2.961   3.379   0.401  0.00  0.00    +0.010 A 
ATOM     29  C   LIG    1        3.995   2.565  -0.023  0.00  0.00    +0.000 A 
ATOM     30  C   LIG    1        3.732   1.272  -0.437  0.00  0.00    +0.000 A 
ATOM     31  C   LIG    1        2.435   0.793  -0.426  0.00  0.00    +0.010 A 
ENDBRANCH  19  26
ENDBRANCH  17  19
ENDBRANCH   1  17
TORSDOF 6
