REMARK  Name = ZINCrH000004j5zq.0
REMARK                            x       y       z     vdW  Elec       q    Type
REMARK                         _______ _______ _______ _____ _____    ______ ____
ROOT
ATOM      1  C   LIG    1       -2.909   3.487   3.014  0.00  0.00    +0.440 A 
ATOM      2  N   LIG    1       -2.438   4.642   3.449  0.00  0.00    -0.610 NA
ATOM      3  C   LIG    1       -2.638   5.012   4.712  0.00  0.00    +0.630 A 
ATOM      4  N   LIG    1       -3.313   4.218   5.535  0.00  0.00    -0.640 NA
ATOM      5  C   LIG    1       -3.785   3.056   5.095  0.00  0.00    +0.630 A 
ATOM      6  N   LIG    1       -3.585   2.696   3.829  0.00  0.00    -0.630 NA
ENDROOT
BRANCH   5   7
ATOM      7  N   LIG    1       -4.487   2.228   5.947  0.00  0.00    -0.800 N 
ATOM      8  H   LIG    1       -4.831   1.380   5.624  0.00  0.00    +0.420 HD
ATOM      9  H   LIG    1       -4.635   2.493   6.868  0.00  0.00    +0.420 HD
ENDBRANCH   5   7
BRANCH   3  10
ATOM     10  N   LIG    1       -2.145   6.220   5.165  0.00  0.00    -0.630 N 
ATOM     11  H   LIG    1       -1.585   6.762   4.588  0.00  0.00    +0.430 HD
BRANCH  10  12
ATOM     12  C   LIG    1       -2.453   6.660   6.456  0.00  0.00    +0.150 A 
ATOM     13  C   LIG    1       -3.685   6.357   7.020  0.00  0.00    +0.020 A 
ATOM     14  C   LIG    1       -3.984   6.789   8.297  0.00  0.00    +0.020 A 
ATOM     15  C   LIG    1       -3.062   7.533   9.010  0.00  0.00    -0.100 A 
ATOM     16  C   LIG    1       -1.836   7.842   8.450  0.00  0.00    +0.030 A 
ATOM     17  C   LIG    1       -3.394   8.008  10.401  0.00  0.00    +0.100 C 
ATOM     18  C   LIG    1       -1.529   7.408   7.175  0.00  0.00    -0.010 A 
ENDBRANCH  10  12
ENDBRANCH   3  10
BRANCH   1  19
ATOM     19  C   LIG    1       -2.680   3.072   1.583  0.00  0.00    +0.300 C 
BRANCH  19  20
ATOM     20  N   LIG    1       -1.424   2.317   1.487  0.00  0.00    -0.530 NA
ATOM     21  C   LIG    1       -1.520   1.042   2.209  0.00  0.00    +0.190 C 
BRANCH  20  22
ATOM     22  C   LIG    1       -1.046   2.101   0.084  0.00  0.00    +0.240 C 
BRANCH  22  26
ATOM     23  C   LIG    1        2.921   0.530  -0.108  0.00  0.00    -0.080 A 
ATOM     24  C   LIG    1        1.841  -0.329  -0.019  0.00  0.00    +0.000 A 
ATOM     25  C   LIG    1        0.558   0.179   0.045  0.00  0.00    +0.010 A 
ATOM     26  C   LIG    1        0.354   1.546   0.020  0.00  0.00    -0.080 A 
ATOM     27  C   LIG    1        1.433   2.405  -0.068  0.00  0.00    +0.030 A 
ATOM     28  C   LIG    1        2.717   1.897  -0.133  0.00  0.00    +0.000 A 
BRANCH  23  30
ATOM     29  C   LIG    1        4.707  -0.251  -1.641  0.00  0.00    +0.030 C 
ATOM     30  C   LIG    1        4.321  -0.025  -0.178  0.00  0.00    +0.050 C 
ENDBRANCH  23  30
ENDBRANCH  22  26
ENDBRANCH  20  22
ENDBRANCH  19  20
ENDBRANCH   1  19
TORSDOF 8
