REMARK  Name = ZINCnE000001TBW4.0
REMARK                            x       y       z     vdW  Elec       q    Type
REMARK                         _______ _______ _______ _____ _____    ______ ____
ROOT
ATOM      1  C   LIG    1        5.173  -2.938   0.376  0.00  0.00    -0.110 C 
ATOM      2  C   LIG    1        6.232  -2.166  -0.420  0.00  0.00    +0.260 C 
ATOM      3  O   LIG    1        6.164  -0.790  -0.046  0.00  0.00    -0.320 OA
ATOM      4  C   LIG    1        4.945  -0.192  -0.043  0.00  0.00    +0.160 A 
ATOM      5  C   LIG    1        4.890   1.200  -0.036  0.00  0.00    -0.030 A 
ATOM      6  C   LIG    1        3.675   1.849  -0.023  0.00  0.00    +0.060 A 
ATOM      7  C   LIG    1        2.494   1.109  -0.016  0.00  0.00    -0.120 A 
ATOM      8  C   LIG    1        2.550  -0.282  -0.018  0.00  0.00    +0.070 A 
ATOM      9  C   LIG    1        3.771  -0.929  -0.039  0.00  0.00    -0.150 A 
ATOM     10  C   LIG    1        3.791  -2.437  -0.052  0.00  0.00    +0.110 C 
ENDROOT
BRANCH   7  11
ATOM     11  C   LIG    1        1.182   1.801   0.000  0.00  0.00    +0.030 A 
ATOM     12  C   LIG    1       -0.013   1.076   0.008  0.00  0.00    +0.010 A 
ATOM     13  C   LIG    1       -1.211   1.760   0.017  0.00  0.00    +0.280 A 
ATOM     14  N   LIG    1       -1.238   3.079   0.029  0.00  0.00    -0.460 NA
ATOM     15  C   LIG    1       -0.133   3.801   0.023  0.00  0.00    +0.040 A 
ATOM     16  C   LIG    1        1.107   3.198   0.008  0.00  0.00    +0.020 A 
BRANCH  15  17
ATOM     17  C   LIG    1       -0.229   5.305   0.031  0.00  0.00    +0.520 C 
ATOM     18  F   LIG    1        0.888   5.839   0.683  0.00  0.00    -0.170 F 
ATOM     19  F   LIG    1       -1.392   5.695   0.704  0.00  0.00    -0.170 F 
ATOM     20  F   LIG    1       -0.270   5.777  -1.285  0.00  0.00    -0.170 F 
ENDBRANCH  15  17
ENDBRANCH   7  11
BRANCH   1  22
ATOM     21  O   LIG    1        6.379  -4.896  -0.179  0.00  0.00    -0.690 OA
ATOM     22  C   LIG    1        5.291  -4.412   0.084  0.00  0.00    +0.500 C 
ATOM     23  O   LIG    1        4.299  -5.120   0.112  0.00  0.00    -0.690 OA
ENDBRANCH   1  22
TORSDOF 3
