REMARK  Name = ZINCvU0000000DnE.0
REMARK                            x       y       z     vdW  Elec       q    Type
REMARK                         _______ _______ _______ _____ _____    ______ ____
ROOT
ATOM      1  C   LIG    1        7.569   1.519  -0.577  0.00  0.00    +0.150 A 
ATOM      2  N   LIG    1        7.566   0.216  -0.405  0.00  0.00    -0.290 NA
ATOM      3  N   LIG    1        8.761  -0.247  -0.507  0.00  0.00    -0.260 NA
ATOM      4  C   LIG    1        9.604   0.733  -0.741  0.00  0.00    +0.240 A 
ATOM      5  N   LIG    1        8.867   1.895  -0.793  0.00  0.00    -0.410 N 
ENDROOT
BRANCH   4   6
ATOM      6  C   LIG    1       11.066   0.610  -0.914  0.00  0.00    -0.030 A 
ATOM      7  C   LIG    1       11.637  -0.631  -1.199  0.00  0.00    +0.070 A 
ATOM      8  C   LIG    1       13.003  -0.737  -1.364  0.00  0.00    +0.010 A 
ATOM      9  C   LIG    1       13.807   0.382  -1.238  0.00  0.00    +0.030 A 
ATOM     10  C   LIG    1       13.248   1.614  -0.951  0.00  0.00    +0.010 A 
ATOM     11  C   LIG    1       11.884   1.735  -0.788  0.00  0.00    +0.030 A 
ENDBRANCH   4   6
BRANCH   5  12
ATOM     12  C   LIG    1        9.346   3.193  -1.021  0.00  0.00    +0.100 A 
ATOM     13  C   LIG    1        9.848   3.540  -2.268  0.00  0.00    +0.040 A 
ATOM     14  C   LIG    1       10.314   4.821  -2.491  0.00  0.00    +0.040 A 
ATOM     15  C   LIG    1       10.292   5.754  -1.471  0.00  0.00    +0.040 A 
ATOM     16  C   LIG    1        9.798   5.410  -0.226  0.00  0.00    +0.040 A 
ATOM     17  C   LIG    1        9.325   4.132   0.001  0.00  0.00    +0.030 A 
ENDBRANCH   5  12
BRANCH   1  18
ATOM     18  S   LIG    1        6.166   2.583  -0.531  0.00  0.00    +0.100 S 
BRANCH  18  19
ATOM     19  C   LIG    1        4.862   1.369  -0.207  0.00  0.00    +0.120 C 
BRANCH  19  22
ATOM     20  N   LIG    1        2.409   1.364   0.112  0.00  0.00    -0.670 N 
ATOM     21  H   LIG    1        2.466   0.414   0.301  0.00  0.00    +0.420 HD
ATOM     22  C   LIG    1        3.531   2.072  -0.124  0.00  0.00    +0.540 C 
ATOM     23  O   LIG    1        3.470   3.274  -0.269  0.00  0.00    -0.490 OA
BRANCH  20  30
ATOM     24  C   LIG    1        0.035   1.306  -0.377  0.00  0.00    -0.050 A 
ATOM     25  C   LIG    1       -1.203   1.953  -0.406  0.00  0.00    +0.110 A 
ATOM     26  C   LIG    1       -1.308   3.257   0.028  0.00  0.00    +0.030 A 
ATOM     27  C   LIG    1       -0.188   3.936   0.482  0.00  0.00    +0.010 A 
ATOM     28  C   LIG    1        1.045   3.310   0.511  0.00  0.00    +0.040 A 
ATOM     29 CL   LIG    1       -0.334   5.580   1.018  0.00  0.00    -0.050 Cl
ATOM     30  C   LIG    1        1.167   1.996   0.084  0.00  0.00    +0.210 A 
BRANCH  24  32
ATOM     31  N   LIG    1        0.240  -1.127  -1.171  0.00  0.00    -0.400 NA
ATOM     32  C   LIG    1        0.149  -0.051  -0.820  0.00  0.00    +0.240 C 
ENDBRANCH  24  32
ENDBRANCH  20  30
ENDBRANCH  19  22
ENDBRANCH  18  19
ENDBRANCH   1  18
TORSDOF 7
