REMARK  Name = ZINCpk000005nS9R.0
REMARK                            x       y       z     vdW  Elec       q    Type
REMARK                         _______ _______ _______ _____ _____    ______ ____
ROOT
ATOM      1  C   LIG    1       -6.945   1.979   2.826  0.00  0.00    +0.110 A 
ATOM      2  C   LIG    1       -5.784   1.374   2.410  0.00  0.00    -0.060 A 
ATOM      3  C   LIG    1       -4.548   1.596   3.065  0.00  0.00    -0.060 A 
ATOM      4  C   LIG    1       -4.502   2.406   4.105  0.00  0.00    -0.060 A 
ATOM      5  C   LIG    1       -3.352   2.841   5.004  0.00  0.00    +0.080 C 
ATOM      6  C   LIG    1       -2.442   1.683   5.354  0.00  0.00    +0.290 C 
ATOM      7  N   LIG    1       -1.873   1.102   4.168  0.00  0.00    -0.590 N 
ATOM      8  C   LIG    1       -2.532   0.125   3.342  0.00  0.00    +0.270 C 
ATOM      9  C   LIG    1       -0.640   1.503   3.801  0.00  0.00    +0.480 C 
ATOM     10  O   LIG    1       -0.004   2.243   4.521  0.00  0.00    -0.530 OA
ATOM     11  C   LIG    1       -5.690   3.037   4.548  0.00  0.00    -0.060 A 
ATOM     12  C   LIG    1       -3.468   0.785   2.360  0.00  0.00    +0.060 C 
ATOM     13  C   LIG    1       -6.897   2.834   3.924  0.00  0.00    +0.110 A 
ENDROOT
BRANCH   1  15
ATOM     14  C   LIG    1       -8.078   0.856   1.062  0.00  0.00    +0.250 C 
ATOM     15  O   LIG    1       -8.118   1.747   2.178  0.00  0.00    -0.310 OA
ENDBRANCH   1  15
BRANCH  13  16
ATOM     16  O   LIG    1       -8.021   3.454   4.371  0.00  0.00    -0.310 OA
ATOM     17  C   LIG    1       -7.882   4.314   5.504  0.00  0.00    +0.250 C 
ENDBRANCH  13  16
BRANCH   9  18
ATOM     18  C   LIG    1       -0.051   1.033   2.496  0.00  0.00    +0.210 C 
BRANCH  18  19
ATOM     19  C   LIG    1        0.214   2.239   1.592  0.00  0.00    -0.020 C 
ATOM     20  C   LIG    1        0.944   1.779   0.326  0.00  0.00    +0.020 C 
ATOM     21  C   LIG    1        1.137   2.977  -0.607  0.00  0.00    +0.210 C 
ATOM     22  O   LIG    1       -0.136   3.550  -0.914  0.00  0.00    -0.380 OA
ATOM     23  C   LIG    1       -0.845   4.041   0.226  0.00  0.00    +0.210 C 
ATOM     24  C   LIG    1       -1.117   2.886   1.193  0.00  0.00    +0.000 C 
ENDBRANCH  18  19
BRANCH  18  25
ATOM     25  O   LIG    1        1.177   0.346   2.748  0.00  0.00    -0.540 OA
ATOM     26  H   LIG    1        1.848   0.888   3.185  0.00  0.00    +0.390 HD
ENDBRANCH  18  25
ENDBRANCH   9  18
TORSDOF 5
