REMARK  Name = ZINCqH000000999I.0
REMARK                            x       y       z     vdW  Elec       q    Type
REMARK                         _______ _______ _______ _____ _____    ______ ____
ROOT
ATOM      1  N   LIG    1       -4.072   0.030   1.691  0.00  0.00    -0.730 N 
ATOM      2  H   LIG    1       -4.617  -0.291   0.955  0.00  0.00    +0.400 HD
ATOM      3  C   LIG    1       -2.936   0.711   1.442  0.00  0.00    +0.510 C 
ATOM      4  O   LIG    1       -2.255   1.111   2.362  0.00  0.00    -0.530 OA
ENDROOT
BRANCH   1   6
ATOM      5  C   LIG    1       -5.263   0.977   3.606  0.00  0.00    +0.020 C 
ATOM      6  C   LIG    1       -4.484  -0.228   3.074  0.00  0.00    +0.240 C 
BRANCH   6   7
ATOM      7  C   LIG    1       -5.374  -1.471   3.117  0.00  0.00    -0.060 C 
ATOM      8  C   LIG    1       -6.614  -1.242   2.250  0.00  0.00    +0.030 C 
ATOM      9  C   LIG    1       -7.504  -2.485   2.294  0.00  0.00    -0.020 C 
ATOM     10  C   LIG    1       -6.725  -3.689   1.762  0.00  0.00    +0.010 C 
ATOM     11  C   LIG    1       -5.486  -3.919   2.629  0.00  0.00    -0.020 C 
ATOM     12  C   LIG    1       -5.916  -4.187   4.072  0.00  0.00    +0.010 C 
ATOM     13  C   LIG    1       -6.695  -2.983   4.605  0.00  0.00    -0.020 C 
ATOM     14  C   LIG    1       -7.934  -2.754   3.737  0.00  0.00    +0.010 C 
ATOM     15  C   LIG    1       -4.595  -2.675   2.585  0.00  0.00    +0.020 C 
ATOM     16  C   LIG    1       -5.805  -1.740   4.561  0.00  0.00    +0.030 C 
ENDBRANCH   6   7
ENDBRANCH   1   6
BRANCH   3  17
ATOM     17  C   LIG    1       -2.513   0.976   0.021  0.00  0.00    +0.110 C 
BRANCH  17  18
ATOM     18  C   LIG    1       -1.219   1.749   0.017  0.00  0.00    -0.060 A 
ATOM     19  C   LIG    1       -0.013   1.076   0.008  0.00  0.00    +0.030 A 
ATOM     20  C   LIG    1        1.176   1.782   0.000  0.00  0.00    +0.030 A 
ATOM     21  C   LIG    1        1.160   3.169   0.007  0.00  0.00    +0.050 A 
ATOM     22  O   LIG    1        2.338   3.850   0.003  0.00  0.00    -0.310 OA
ATOM     23  C   LIG    1        2.280   5.233  -0.365  0.00  0.00    +0.220 C 
ATOM     24  C   LIG    1        1.114   5.883   0.391  0.00  0.00    +0.220 C 
ATOM     25  O   LIG    1       -0.092   5.207   0.023  0.00  0.00    -0.310 OA
ATOM     26  C   LIG    1       -0.054   3.846   0.020  0.00  0.00    +0.050 A 
ATOM     27  C   LIG    1       -1.242   3.131   0.030  0.00  0.00    +0.030 A 
ENDBRANCH  17  18
ENDBRANCH   3  17
TORSDOF 4
