REMARK  Name = ZINCrH000004uGaW.0
REMARK                            x       y       z     vdW  Elec       q    Type
REMARK                         _______ _______ _______ _____ _____    ______ ____
ROOT
ATOM      1  O   LIG    1       -1.355  -1.374   0.602  0.00  0.00    -0.580 OA
ATOM      2  C   LIG    1       -1.722  -1.290  -0.555  0.00  0.00    +0.710 C 
ATOM      3  N   LIG    1       -2.273  -0.146  -1.005  0.00  0.00    -0.740 N 
ATOM      4  H   LIG    1       -2.565  -0.078  -1.927  0.00  0.00    +0.400 HD
ATOM      5  N   LIG    1       -1.577  -2.341  -1.386  0.00  0.00    -0.740 N 
ATOM      6  H   LIG    1       -1.869  -2.274  -2.308  0.00  0.00    +0.400 HD
ENDROOT
BRANCH   3   7
ATOM      7  C   LIG    1       -2.430   0.997  -0.102  0.00  0.00    +0.310 C 
ATOM      8  C   LIG    1       -3.589   1.865  -0.585  0.00  0.00    +0.020 C 
ATOM      9  C   LIG    1       -3.602   3.158   0.240  0.00  0.00    +0.030 C 
ATOM     10  C   LIG    1       -2.387   3.994  -0.144  0.00  0.00    +0.080 C 
ATOM     11  C   LIG    1       -1.130   3.167  -0.083  0.00  0.00    -0.070 A 
ATOM     12  C   LIG    1        0.085   3.838  -0.048  0.00  0.00    +0.020 A 
ATOM     13  C   LIG    1        1.273   3.138  -0.006  0.00  0.00    +0.020 A 
ATOM     14  C   LIG    1        1.254   1.754   0.002  0.00  0.00    -0.040 A 
ATOM     15  C   LIG    1        0.046   1.085  -0.030  0.00  0.00    +0.050 A 
ATOM     16 CL   LIG    1        2.743   0.863   0.050  0.00  0.00    -0.070 Cl
ATOM     17  C   LIG    1       -1.149   1.790  -0.076  0.00  0.00    -0.090 A 
ENDBRANCH   3   7
BRANCH   5  18
ATOM     18  C   LIG    1       -0.978  -3.585  -0.896  0.00  0.00    +0.350 C 
BRANCH  18  19
ATOM     19  C   LIG    1       -0.932  -4.595  -2.014  0.00  0.00    -0.150 A 
ATOM     20  C   LIG    1       -1.795  -5.676  -2.018  0.00  0.00    +0.110 A 
ATOM     21  C   LIG    1       -1.718  -6.581  -3.068  0.00  0.00    -0.020 A 
ATOM     22  C   LIG    1       -0.788  -6.377  -4.069  0.00  0.00    +0.300 A 
ATOM     23  N   LIG    1        0.022  -5.336  -4.038  0.00  0.00    -0.490 NA
ATOM     24  C   LIG    1       -0.026  -4.449  -3.058  0.00  0.00    +0.350 A 
BRANCH  24  25
ATOM     25  N   LIG    1        0.848  -3.357  -3.068  0.00  0.00    -0.410 N 
ATOM     26  C   LIG    1        1.592  -2.897  -2.012  0.00  0.00    +0.130 A 
ATOM     27  C   LIG    1        2.288  -1.835  -2.458  0.00  0.00    +0.160 A 
ATOM     28  N   LIG    1        1.983  -1.647  -3.751  0.00  0.00    -0.480 NA
ATOM     29  C   LIG    1        1.126  -2.555  -4.130  0.00  0.00    +0.420 A 
ENDBRANCH  24  25
ENDBRANCH  18  19
ENDBRANCH   5  18
TORSDOF 4
