REMARK  Name = ZINCnE000001ORb0.0
REMARK                            x       y       z     vdW  Elec       q    Type
REMARK                         _______ _______ _______ _____ _____    ______ ____
ROOT
ATOM      1  S   LIG    1        0.498   0.112   2.523  0.00  0.00    +2.690 S 
ATOM      2  O   LIG    1        0.615  -1.048   3.337  0.00  0.00    -0.960 OA
ATOM      3  O   LIG    1       -0.236   1.264   2.914  0.00  0.00    -0.950 OA
ENDROOT
BRANCH   1   8
ATOM      4  C   LIG    1       -1.848  -1.745  -2.729  0.00  0.00    +0.100 C 
ATOM      5  C   LIG    1       -1.266  -1.279  -1.419  0.00  0.00    +0.010 A 
ATOM      6  C   LIG    1       -0.217  -1.967  -0.845  0.00  0.00    -0.040 A 
ATOM      7  C   LIG    1        0.315  -1.543   0.360  0.00  0.00    +0.010 A 
ATOM      8  C   LIG    1       -0.193  -0.422   0.993  0.00  0.00    -0.700 A 
ATOM      9  C   LIG    1       -1.239   0.278   0.428  0.00  0.00    +0.180 A 
ATOM     10  C   LIG    1        1.458  -2.303   0.983  0.00  0.00    +0.100 C 
ATOM     11  C   LIG    1       -1.785  -0.147  -0.785  0.00  0.00    -0.160 A 
BRANCH  11  12
ATOM     12  C   LIG    1       -2.904   0.596  -1.395  0.00  0.00    +0.520 C 
ATOM     13  O   LIG    1       -3.306   0.291  -2.509  0.00  0.00    -0.680 OA
ATOM     14  O   LIG    1       -3.429   1.518  -0.787  0.00  0.00    -0.680 OA
ENDBRANCH  11  12
ENDBRANCH   1   8
BRANCH   1  15
ATOM     15  N   LIG    1        2.042   0.623   2.213  0.00  0.00    -1.060 N 
ATOM     16  H   LIG    1        2.791   0.208   2.668  0.00  0.00    +0.420 HD
BRANCH  15  17
ATOM     17  C   LIG    1        2.265   1.653   1.296  0.00  0.00    +0.160 A 
ATOM     18  C   LIG    1        1.360   2.701   1.193  0.00  0.00    -0.010 A 
ATOM     19  C   LIG    1        1.585   3.718   0.285  0.00  0.00    +0.040 A 
ATOM     20  C   LIG    1        2.709   3.693  -0.519  0.00  0.00    -0.010 A 
ATOM     21  C   LIG    1        3.612   2.651  -0.419  0.00  0.00    -0.070 A 
ATOM     22  C   LIG    1        4.835   2.628  -1.299  0.00  0.00    +0.100 C 
ATOM     23  C   LIG    1        3.396   1.633   0.489  0.00  0.00    -0.110 A 
ATOM     24  C   LIG    1        4.384   0.501   0.602  0.00  0.00    +0.090 C 
ENDBRANCH  15  17
ENDBRANCH   1  15
TORSDOF 4
