REMARK  Name = ZINCrH000001ledR.0
REMARK                            x       y       z     vdW  Elec       q    Type
REMARK                         _______ _______ _______ _____ _____    ______ ____
ROOT
ATOM      1  O   LIG    1       -6.683   3.071   0.078  0.00  0.00    -0.520 OA
ATOM      2  C   LIG    1       -6.176   4.177   0.079  0.00  0.00    +0.590 C 
ATOM      3  N   LIG    1       -6.956   5.276   0.091  0.00  0.00    -0.730 N 
ATOM      4  H   LIG    1       -6.552   6.158   0.092  0.00  0.00    +0.400 HD
ENDROOT
BRANCH   2   5
ATOM      5  C   LIG    1       -4.715   4.315   0.067  0.00  0.00    -0.060 A 
ATOM      6  C   LIG    1       -3.812   3.289   0.048  0.00  0.00    +0.070 A 
ATOM      7  C   LIG    1       -2.529   3.870   0.045  0.00  0.00    -0.150 A 
ATOM      8  C   LIG    1       -2.693   5.226   0.052  0.00  0.00    +0.230 A 
ATOM      9  N   LIG    1       -4.013   5.499   0.066  0.00  0.00    -0.530 N 
ATOM     10  H   LIG    1       -4.405   6.386   0.074  0.00  0.00    +0.420 HD
BRANCH   7  11
ATOM     11  C   LIG    1       -1.235   3.141   0.029  0.00  0.00    +0.000 A 
ATOM     12  C   LIG    1       -1.218   1.748   0.017  0.00  0.00    +0.030 A 
ATOM     13  C   LIG    1       -0.013   1.076   0.008  0.00  0.00    +0.030 A 
ATOM     14  C   LIG    1        1.177   1.783   0.000  0.00  0.00    -0.040 A 
ATOM     15  C   LIG    1        1.165   3.167   0.008  0.00  0.00    +0.030 A 
ATOM     16 CL   LIG    1        2.690   0.931  -0.018  0.00  0.00    -0.070 Cl
ATOM     17  C   LIG    1       -0.035   3.849   0.022  0.00  0.00    +0.020 A 
ENDBRANCH   7  11
ENDBRANCH   2   5
BRANCH   3  18
ATOM     18  C   LIG    1       -8.415   5.139   0.103  0.00  0.00    +0.260 C 
BRANCH  18  19
ATOM     19  C   LIG    1       -9.057   6.528   0.115  0.00  0.00    +0.260 C 
BRANCH  19  20
ATOM     20  C   LIG    1      -10.558   6.387   0.128  0.00  0.00    -0.070 A 
ATOM     21  C   LIG    1      -11.225   6.207   1.325  0.00  0.00    +0.040 A 
ATOM     22  C   LIG    1      -12.602   6.082   1.337  0.00  0.00    +0.110 A 
ATOM     23  C   LIG    1      -13.310   6.127   0.150  0.00  0.00    -0.040 A 
ATOM     24  C   LIG    1      -12.642   6.302  -1.047  0.00  0.00    +0.110 A 
ATOM     25  C   LIG    1      -11.266   6.432  -1.059  0.00  0.00    +0.050 A 
BRANCH  23  26
ATOM     26  N   LIG    1      -14.784   5.989   0.163  0.00  0.00    +0.020 N 
ATOM     27  O   LIG    1      -15.372   5.834   1.218  0.00  0.00    -0.150 OA
ATOM     28  O   LIG    1      -15.408   6.029  -0.883  0.00  0.00    -0.150 OA
ENDBRANCH  23  26
ENDBRANCH  19  20
BRANCH  19  29
ATOM     29  O   LIG    1       -8.636   7.237   1.282  0.00  0.00    -0.550 OA
ATOM     30  H   LIG    1       -8.875   6.805   2.113  0.00  0.00    +0.380 HD
ENDBRANCH  19  29
ENDBRANCH  18  19
ENDBRANCH   3  18
TORSDOF 7
