REMARK  Name = ZINCrH00000tj18h.0
REMARK                            x       y       z     vdW  Elec       q    Type
REMARK                         _______ _______ _______ _____ _____    ______ ____
ROOT
ATOM      1  O   LIG    1        3.196  -1.205  -1.552  0.00  0.00    -0.410 OA
ATOM      2  C   LIG    1        2.580  -2.086  -2.102  0.00  0.00    +0.360 C 
ATOM      3  C   LIG    1        3.019  -2.617  -3.449  0.00  0.00    +0.030 C 
ATOM      4  C   LIG    1        3.108  -4.144  -3.365  0.00  0.00    +0.050 C 
ATOM      5  C   LIG    1        1.771  -4.710  -2.870  0.00  0.00    +0.030 C 
ATOM      6  C   LIG    1        1.499  -4.212  -1.449  0.00  0.00    +0.360 C 
ATOM      7  N   LIG    1        2.617  -4.582  -0.582  0.00  0.00    -0.620 N 
ATOM      8  C   LIG    1        2.989  -3.815   0.453  0.00  0.00    +0.720 C 
ATOM      9  O   LIG    1        3.922  -4.178   1.143  0.00  0.00    -0.580 OA
ATOM     10  N   LIG    1        2.374  -2.662   0.756  0.00  0.00    -0.720 N 
ATOM     11  H   LIG    1        2.693  -2.135   1.504  0.00  0.00    +0.420 HD
ATOM     12  C   LIG    1        1.229  -2.186  -0.021  0.00  0.00    +0.300 C 
ATOM     13  C   LIG    1        1.349  -2.686  -1.462  0.00  0.00    +0.000 C 
ENDROOT
BRANCH  12  14
ATOM     14  C   LIG    1        1.209  -0.679  -0.013  0.00  0.00    -0.100 A 
ATOM     15  C   LIG    1        0.070  -0.001  -0.405  0.00  0.00    +0.030 A 
ATOM     16  C   LIG    1        0.050   1.381  -0.398  0.00  0.00    +0.010 A 
ATOM     17  C   LIG    1        1.170   2.086   0.002  0.00  0.00    +0.040 A 
ATOM     18  C   LIG    1        2.310   1.409   0.394  0.00  0.00    -0.090 A 
ATOM     19 BR   LIG    1        3.840   2.372   0.948  0.00  0.00    -0.050 Br
ATOM     20  C   LIG    1        2.329   0.026   0.386  0.00  0.00    +0.090 A 
ENDBRANCH  12  14
BRANCH   6  21
ATOM     21  O   LIG    1        0.295  -4.806  -0.957  0.00  0.00    -0.560 OA
ATOM     22  H   LIG    1        0.320  -5.772  -0.921  0.00  0.00    +0.380 HD
ENDBRANCH   6  21
BRANCH   7  23
ATOM     23  C   LIG    1        3.349  -5.823  -0.850  0.00  0.00    +0.350 C 
BRANCH  23  24
ATOM     24  C   LIG    1        2.707  -6.958  -0.095  0.00  0.00    -0.110 A 
ATOM     25  C   LIG    1        3.130  -7.263   1.185  0.00  0.00    +0.040 A 
ATOM     26  C   LIG    1        2.538  -8.301   1.880  0.00  0.00    +0.000 A 
ATOM     27  C   LIG    1        1.529  -9.040   1.291  0.00  0.00    +0.010 A 
ATOM     28  C   LIG    1        1.109  -8.738   0.009  0.00  0.00    +0.000 A 
ATOM     29  C   LIG    1        1.698  -7.697  -0.683  0.00  0.00    +0.000 A 
ENDBRANCH  23  24
ENDBRANCH   7  23
TORSDOF 4
