REMARK  Name = ZINCqH00000322z3.0
REMARK                            x       y       z     vdW  Elec       q    Type
REMARK                         _______ _______ _______ _____ _____    ______ ____
ROOT
ATOM      1  N   LIG    1       -1.640   2.187   5.879  0.00  0.00    -1.060 N 
ATOM      2  H   LIG    1       -1.823   1.875   4.979  0.00  0.00    +0.430 HD
ENDROOT
BRANCH   1   3
ATOM      3  C   LIG    1       -1.124   3.468   6.083  0.00  0.00    +0.180 A 
ATOM      4  C   LIG    1       -1.670   4.291   7.060  0.00  0.00    -0.010 A 
ATOM      5  C   LIG    1       -1.160   5.559   7.263  0.00  0.00    +0.070 A 
ATOM      6  C   LIG    1       -0.102   6.011   6.498  0.00  0.00    -0.030 A 
ATOM      7  C   LIG    1        0.445   5.196   5.515  0.00  0.00    +0.200 A 
ATOM      8  C   LIG    1       -0.065   3.922   5.309  0.00  0.00    -0.010 A 
BRANCH   7   9
ATOM      9  N   LIG    1        1.513   5.657   4.737  0.00  0.00    -0.570 N 
ATOM     10  C   LIG    1        2.146   6.979   4.851  0.00  0.00    +0.260 C 
ATOM     11  C   LIG    1        3.248   6.957   3.774  0.00  0.00    +0.260 C 
ATOM     12  O   LIG    1        3.125   5.636   3.171  0.00  0.00    -0.320 OA
ATOM     13  C   LIG    1        2.131   4.966   3.765  0.00  0.00    +0.640 C 
ATOM     14  O   LIG    1        1.816   3.835   3.453  0.00  0.00    -0.500 OA
ENDBRANCH   7   9
ENDBRANCH   1   3
BRANCH   1  15
ATOM     15  S   LIG    1       -1.940   1.199   7.174  0.00  0.00    +2.690 S 
ATOM     16  O   LIG    1       -2.343  -0.054   6.638  0.00  0.00    -0.950 OA
ATOM     17  O   LIG    1       -2.738   1.952   8.076  0.00  0.00    -0.950 OA
BRANCH  15  21
ATOM     18  C   LIG    1        2.015   0.483   9.257  0.00  0.00    -0.010 A 
ATOM     19  C   LIG    1        1.174   1.488   9.697  0.00  0.00    -0.010 A 
ATOM     20  C   LIG    1       -0.034   1.706   9.061  0.00  0.00    +0.130 A 
ATOM     21  C   LIG    1       -0.400   0.921   7.984  0.00  0.00    -0.680 A 
ATOM     22  C   LIG    1        0.439  -0.087   7.547  0.00  0.00    +0.130 A 
ATOM     23  C   LIG    1        1.649  -0.302   8.180  0.00  0.00    +0.000 A 
BRANCH  18  25
ATOM     24  C   LIG    1        3.078  -0.103  11.419  0.00  0.00    +0.040 C 
ATOM     25  C   LIG    1        3.331   0.245   9.951  0.00  0.00    -0.040 C 
ATOM     26  C   LIG    1        4.189   1.509   9.867  0.00  0.00    +0.040 C 
ATOM     27  C   LIG    1        4.063  -0.914   9.271  0.00  0.00    +0.030 C 
ENDBRANCH  18  25
ENDBRANCH  15  21
ENDBRANCH   1  15
TORSDOF 5
