REMARK  Name = ZINCvU0000000DQ4.0
REMARK                            x       y       z     vdW  Elec       q    Type
REMARK                         _______ _______ _______ _____ _____    ______ ____
ROOT
ATOM      1  N   LIG    1        0.016   1.077   4.089  0.00  0.00    -0.410 N 
ATOM      2  C   LIG    1        0.174   0.961   2.735  0.00  0.00    +0.160 A 
ATOM      3  N   LIG    1        1.245   0.226   2.530  0.00  0.00    -0.280 NA
ATOM      4  N   LIG    1        1.760  -0.127   3.653  0.00  0.00    -0.260 NA
ATOM      5  C   LIG    1        1.052   0.359   4.646  0.00  0.00    +0.240 A 
ENDROOT
BRANCH   1  10
ATOM      6  C   LIG    1       -4.058   3.915   6.839  0.00  0.00    +0.110 C 
ATOM      7  C   LIG    1       -2.976   3.162   6.109  0.00  0.00    -0.070 A 
ATOM      8  C   LIG    1       -1.660   3.571   6.212  0.00  0.00    +0.040 A 
ATOM      9  C   LIG    1       -0.665   2.880   5.548  0.00  0.00    +0.030 A 
ATOM     10  C   LIG    1       -0.990   1.778   4.768  0.00  0.00    +0.100 A 
ATOM     11  C   LIG    1       -2.313   1.369   4.666  0.00  0.00    +0.030 A 
ATOM     12  C   LIG    1       -3.302   2.062   5.336  0.00  0.00    -0.070 A 
ATOM     13  C   LIG    1       -4.738   1.618   5.226  0.00  0.00    +0.110 C 
ENDBRANCH   1  10
BRANCH   5  14
ATOM     14  C   LIG    1        1.320   0.177   6.088  0.00  0.00    -0.020 A 
ATOM     15  C   LIG    1        0.334   0.483   7.028  0.00  0.00    +0.030 A 
ATOM     16  C   LIG    1        0.588   0.305   8.372  0.00  0.00    +0.010 A 
ATOM     17  C   LIG    1        1.821  -0.164   8.790  0.00  0.00    +0.030 A 
ATOM     18  C   LIG    1        2.805  -0.463   7.864  0.00  0.00    +0.010 A 
ATOM     19  C   LIG    1        2.561  -0.296   6.516  0.00  0.00    +0.070 A 
ENDBRANCH   5  14
BRANCH   2  20
ATOM     20  S   LIG    1       -0.860   1.669   1.497  0.00  0.00    +0.030 S 
BRANCH  20  21
ATOM     21  C   LIG    1       -0.013   1.086   0.008  0.00  0.00    +0.210 C 
BRANCH  21  22
ATOM     22  C   LIG    1       -0.742   1.585  -1.213  0.00  0.00    +0.060 A 
ATOM     23  C   LIG    1       -1.740   0.939  -1.853  0.00  0.00    +0.120 A 
ATOM     24  N   LIG    1       -2.125   1.729  -2.903  0.00  0.00    -0.360 N 
ATOM     25  C   LIG    1       -3.076   1.580  -3.870  0.00  0.00    +0.220 A 
ATOM     26  C   LIG    1       -3.250   2.529  -4.814  0.00  0.00    +0.020 A 
ATOM     27  C   LIG    1       -2.453   3.686  -4.812  0.00  0.00    +0.030 A 
ATOM     28  C   LIG    1       -1.502   3.846  -3.853  0.00  0.00    -0.040 A 
ATOM     29  C   LIG    1       -0.638   5.081  -3.838  0.00  0.00    +0.120 C 
ATOM     30  C   LIG    1       -1.332   2.847  -2.875  0.00  0.00    +0.230 A 
ATOM     31  N   LIG    1       -0.504   2.737  -1.845  0.00  0.00    -0.470 NA
ENDBRANCH  21  22
ENDBRANCH  20  21
ENDBRANCH   2  20
TORSDOF 5
