REMARK  Name = ZINCvU0000000DF7.0
REMARK                            x       y       z     vdW  Elec       q    Type
REMARK                         _______ _______ _______ _____ _____    ______ ____
ROOT
ATOM      1  C   LIG    1        1.257   2.133   0.002  0.00  0.00    -0.070 A 
ATOM      2  C   LIG    1        2.418   1.372  -0.027  0.00  0.00    +0.070 A 
ATOM      3  C   LIG    1        2.323  -0.028  -0.033  0.00  0.00    +0.190 A 
ATOM      4  N   LIG    1        1.166  -0.655  -0.012  0.00  0.00    -0.440 NA
ATOM      5  C   LIG    1        0.002  -0.004   0.016  0.00  0.00    +0.130 A 
ATOM      6  C   LIG    1       -1.220  -0.702   0.039  0.00  0.00    +0.050 A 
ATOM      7  C   LIG    1       -2.391  -0.009   0.068  0.00  0.00    +0.040 A 
ATOM      8  C   LIG    1       -2.404   1.383   0.076  0.00  0.00    +0.030 A 
ATOM      9  C   LIG    1       -1.239   2.093   0.061  0.00  0.00    +0.050 A 
ATOM     10  C   LIG    1       -0.017   1.414   0.025  0.00  0.00    -0.060 A 
ENDROOT
BRANCH   3  11
ATOM     11  C   LIG    1        3.571  -0.830  -0.064  0.00  0.00    -0.050 A 
ATOM     12  C   LIG    1        3.507  -2.222  -0.070  0.00  0.00    +0.080 A 
ATOM     13  C   LIG    1        4.672  -2.963  -0.099  0.00  0.00    +0.020 A 
ATOM     14  C   LIG    1        5.899  -2.327  -0.122  0.00  0.00    +0.060 A 
ATOM     15  C   LIG    1        5.969  -0.944  -0.116  0.00  0.00    -0.090 A 
ATOM     16 BR   LIG    1        7.652  -0.083  -0.148  0.00  0.00    -0.040 Br
ATOM     17  C   LIG    1        4.810  -0.193  -0.092  0.00  0.00    +0.070 A 
ENDBRANCH   3  11
BRANCH   1  18
ATOM     18  C   LIG    1        1.307   3.610   0.009  0.00  0.00    +0.520 C 
ATOM     19  O   LIG    1        0.279   4.252  -0.070  0.00  0.00    -0.490 OA
BRANCH  18  20
ATOM     20  O   LIG    1        2.492   4.244   0.102  0.00  0.00    -0.320 OA
BRANCH  20  21
ATOM     21  C   LIG    1        2.465   5.696   0.103  0.00  0.00    +0.270 C 
BRANCH  21  24
ATOM     22  C   LIG    1        2.964   8.485   0.148  0.00  0.00    +0.280 C 
ATOM     23  N   LIG    1        4.092   7.554   0.234  0.00  0.00    -0.610 N 
ATOM     24  C   LIG    1        3.871   6.224   0.214  0.00  0.00    +0.520 C 
ATOM     25  O   LIG    1        4.805   5.454   0.285  0.00  0.00    -0.510 OA
BRANCH  23  26
ATOM     26  C   LIG    1        5.460   8.068   0.342  0.00  0.00    +0.240 C 
ATOM     27  C   LIG    1        5.586   8.919   1.607  0.00  0.00    +0.010 C 
ATOM     28  C   LIG    1        7.014   9.456   1.719  0.00  0.00    +0.020 C 
ATOM     29  C   LIG    1        7.335  10.313   0.493  0.00  0.00    +0.010 C 
ATOM     30  C   LIG    1        7.209   9.462  -0.772  0.00  0.00    +0.020 C 
ATOM     31  C   LIG    1        5.780   8.925  -0.884  0.00  0.00    +0.010 C 
ENDBRANCH  23  26
ENDBRANCH  21  24
ENDBRANCH  20  21
ENDBRANCH  18  20
ENDBRANCH   1  18
TORSDOF 6
