REMARK  Name = ZINCrH000004tYWN.0
REMARK                            x       y       z     vdW  Elec       q    Type
REMARK                         _______ _______ _______ _____ _____    ______ ____
ROOT
ATOM      1  C   LIG    1       -1.412  -0.526   0.013  0.00  0.00    +0.190 A 
ATOM      2  N   LIG    1       -2.142  -0.786  -1.031  0.00  0.00    -0.370 NA
ATOM      3  O   LIG    1       -3.234  -1.193  -0.695  0.00  0.00    +0.090 OA
ATOM      4  C   LIG    1       -3.309  -1.232   0.644  0.00  0.00    +0.230 A 
ATOM      5  N   LIG    1       -2.143  -0.811   1.101  0.00  0.00    -0.460 NA
ENDROOT
BRANCH   4   6
ATOM      6  C   LIG    1       -4.468  -1.667   1.451  0.00  0.00    +0.000 A 
ATOM      7  C   LIG    1       -5.634  -2.092   0.817  0.00  0.00    +0.080 A 
ATOM      8  C   LIG    1       -6.721  -2.500   1.575  0.00  0.00    +0.080 A 
ATOM      9  C   LIG    1       -6.628  -2.478   2.975  0.00  0.00    -0.090 A 
ATOM     10  C   LIG    1       -7.931  -2.963   3.468  0.00  0.00    -0.130 A 
ATOM     11  C   LIG    1       -8.694  -3.235   2.324  0.00  0.00    +0.090 A 
ATOM     12  C   LIG    1       -9.990  -3.715   2.472  0.00  0.00    +0.030 A 
ATOM     13  C   LIG    1      -10.511  -3.919   3.732  0.00  0.00    +0.060 A 
ATOM     14  C   LIG    1       -9.755  -3.649   4.861  0.00  0.00    +0.000 A 
ATOM     15  C   LIG    1       -8.467  -3.173   4.735  0.00  0.00    +0.070 A 
ATOM     16  C   LIG    1       -5.458  -2.051   3.598  0.00  0.00    +0.080 A 
ATOM     17  O   LIG    1       -7.949  -2.950   1.233  0.00  0.00    -0.190 OA
ATOM     18  C   LIG    1       -4.388  -1.655   2.848  0.00  0.00    +0.070 A 
ENDBRANCH   4   6
BRANCH   1  19
ATOM     19  C   LIG    1        0.002  -0.004   0.002  0.00  0.00    +0.210 C 
BRANCH  19  21
ATOM     20  O   LIG    1       -1.077   2.095   0.018  0.00  0.00    -0.520 OA
ATOM     21  C   LIG    1       -0.018   1.503   0.010  0.00  0.00    +0.520 C 
ATOM     22  N   LIG    1        1.139   2.192   0.003  0.00  0.00    -0.620 N 
ATOM     23  C   LIG    1        2.413   1.470  -0.007  0.00  0.00    +0.290 C 
ATOM     24  C   LIG    1        3.145   1.754  -1.329  0.00  0.00    +0.100 C 
ATOM     25  S   LIG    1        3.388   3.548  -1.488  0.00  0.00    -0.250 S 
ATOM     26  C   LIG    1        1.696   4.186  -1.302  0.00  0.00    +0.110 C 
ATOM     27  C   LIG    1        1.111   3.656   0.011  0.00  0.00    +0.310 C 
ENDBRANCH  19  21
ENDBRANCH   1  19
TORSDOF 3
