REMARK  Name = ZINCrg000000tfXE.0
REMARK                            x       y       z     vdW  Elec       q    Type
REMARK                         _______ _______ _______ _____ _____    ______ ____
ROOT
ATOM      1  O   LIG    1       -0.730  -1.841   1.866  0.00  0.00    -0.530 OA
ATOM      2  C   LIG    1        0.386  -1.384   1.993  0.00  0.00    +0.520 C 
ATOM      3  N   LIG    1        0.842  -0.466   1.117  0.00  0.00    -0.620 N 
ATOM      4  C   LIG    1        0.002  -0.004   0.002  0.00  0.00    +0.290 C 
ATOM      5  C   LIG    1       -0.019   1.528   0.010  0.00  0.00    +0.210 C 
ATOM      6  N   LIG    1        1.361   2.034   0.000  0.00  0.00    -0.470 N 
ATOM      7  C   LIG    1        2.086   1.629   1.212  0.00  0.00    +0.190 C 
ATOM      8  C   LIG    1        2.193   0.101   1.253  0.00  0.00    +0.300 C 
ENDROOT
BRANCH   6   9
ATOM      9  C   LIG    1        1.384   3.416  -0.157  0.00  0.00    +0.290 A 
ATOM     10  N   LIG    1        0.247   4.082  -0.277  0.00  0.00    -0.500 NA
ATOM     11  C   LIG    1        0.225   5.394  -0.422  0.00  0.00    +0.290 A 
ATOM     12  C   LIG    1        1.396   6.122  -0.465  0.00  0.00    -0.020 A 
ATOM     13  C   LIG    1        2.612   5.462  -0.348  0.00  0.00    +0.070 A 
ATOM     14  C   LIG    1        2.605   4.087  -0.192  0.00  0.00    +0.030 A 
ATOM     15  F   LIG    1        3.765   3.404  -0.074  0.00  0.00    -0.120 F 
ENDBRANCH   6   9
BRANCH   2  16
ATOM     16  C   LIG    1        1.264  -1.843   3.128  0.00  0.00    +0.110 C 
BRANCH  16  17
ATOM     17  C   LIG    1        0.524  -2.864   3.954  0.00  0.00    -0.060 A 
ATOM     18  C   LIG    1       -0.247  -2.456   5.027  0.00  0.00    +0.060 A 
ATOM     19  C   LIG    1       -0.931  -3.388   5.782  0.00  0.00    +0.020 A 
ATOM     20  C   LIG    1       -0.834  -4.737   5.470  0.00  0.00    +0.130 A 
ATOM     21  C   LIG    1       -0.055  -5.145   4.396  0.00  0.00    +0.040 A 
ATOM     22  C   LIG    1        0.622  -4.207   3.641  0.00  0.00    +0.060 A 
BRANCH  20  23
ATOM     23  N   LIG    1       -1.522  -5.688   6.239  0.00  0.00    -0.330 N 
ATOM     24  C   LIG    1       -2.311  -5.459   7.312  0.00  0.00    +0.470 A 
ATOM     25  N   LIG    1       -2.754  -6.619   7.722  0.00  0.00    -0.330 NA
ATOM     26  N   LIG    1       -2.292  -7.565   6.988  0.00  0.00    -0.030 NA
ATOM     27  N   LIG    1       -1.534  -7.082   6.064  0.00  0.00    -0.080 NA
ENDBRANCH  20  23
ENDBRANCH  16  17
ENDBRANCH   2  16
TORSDOF 4
