REMARK  Name = ZINCqH0000004ASV.0
REMARK                            x       y       z     vdW  Elec       q    Type
REMARK                         _______ _______ _______ _____ _____    ______ ____
ROOT
ATOM      1  N   LIG    1        2.861   4.189  -1.387  0.00  0.00    -0.450 N 
ENDROOT
BRANCH   1   5
ATOM      2  C   LIG    1        3.156   8.158   0.382  0.00  0.00    -0.160 A 
ATOM      3  C   LIG    1        2.844   6.988  -0.141  0.00  0.00    +0.050 A 
ATOM      4  C   LIG    1        3.980   6.162  -0.505  0.00  0.00    -0.170 A 
ATOM      5  C   LIG    1        4.028   4.867  -1.081  0.00  0.00    +0.410 A 
ATOM      6  N   LIG    1        5.209   4.314  -1.317  0.00  0.00    -0.550 NA
ATOM      7  C   LIG    1        6.331   4.951  -1.035  0.00  0.00    +0.530 A 
ATOM      8  N   LIG    1        6.339   6.150  -0.501  0.00  0.00    -0.500 NA
ATOM      9  C   LIG    1        5.196   6.789  -0.221  0.00  0.00    +0.090 A 
ATOM     10  S   LIG    1        4.894   8.371   0.483  0.00  0.00    +0.170 S 
BRANCH   2  12
ATOM     11  C   LIG    1        1.801   8.943   2.304  0.00  0.00    +0.040 C 
ATOM     12  C   LIG    1        2.148   9.183   0.834  0.00  0.00    +0.110 C 
ENDBRANCH   2  12
ENDBRANCH   1   5
BRANCH   1  13
ATOM     13  C   LIG    1        3.111   3.128  -2.371  0.00  0.00    +0.120 C 
ATOM     14  C   LIG    1        2.963   3.487  -3.851  0.00  0.00    +0.040 C 
ATOM     15  C   LIG    1        1.913   2.607  -3.168  0.00  0.00    +0.040 C 
ENDBRANCH   1  13
BRANCH   1  16
ATOM     16  C   LIG    1        2.234   3.647  -0.175  0.00  0.00    +0.250 C 
BRANCH  16  17
ATOM     17  C   LIG    1        0.857   3.135  -0.508  0.00  0.00    -0.060 A 
ATOM     18  C   LIG    1        0.688   1.820  -0.905  0.00  0.00    +0.030 A 
ATOM     19  C   LIG    1       -0.571   1.345  -1.211  0.00  0.00    +0.080 A 
ATOM     20  C   LIG    1       -1.675   2.196  -1.124  0.00  0.00    -0.130 A 
ATOM     21  C   LIG    1       -1.498   3.519  -0.717  0.00  0.00    +0.040 A 
ATOM     22  C   LIG    1       -0.234   3.981  -0.414  0.00  0.00    +0.030 A 
BRANCH  20  23
ATOM     23  C   LIG    1       -3.025   1.695  -1.456  0.00  0.00    +0.560 C 
ATOM     24  N   LIG    1       -4.089   2.519  -1.371  0.00  0.00    -0.730 N 
ATOM     25  H   LIG    1       -3.968   3.440  -1.092  0.00  0.00    +0.400 HD
ATOM     26  C   LIG    1       -5.428   2.023  -1.700  0.00  0.00    +0.290 C 
ATOM     27  O   LIG    1       -3.177   0.541  -1.806  0.00  0.00    -0.530 OA
ENDBRANCH  20  23
ENDBRANCH  16  17
ENDBRANCH   1  16
TORSDOF 6
