REMARK  Name = ZINCtV000002KO1B.0
REMARK                            x       y       z     vdW  Elec       q    Type
REMARK                         _______ _______ _______ _____ _____    ______ ____
ROOT
ATOM      1  C   LIG    1       -0.045  -4.517   1.655  0.00  0.00    +0.220 A 
ATOM      2  N   LIG    1        0.134  -4.226   0.387  0.00  0.00    -0.250 NA
ATOM      3  N   LIG    1        0.204  -2.953   0.235  0.00  0.00    -0.290 NA
ATOM      4  C   LIG    1        0.084  -2.352   1.398  0.00  0.00    +0.160 A 
ATOM      5  N   LIG    1       -0.083  -3.325   2.341  0.00  0.00    -0.450 N 
ENDROOT
BRANCH   1  12
ATOM      6 CL   LIG    1       -1.979  -6.365   0.256  0.00  0.00    -0.040 Cl
ATOM      7  C   LIG    1       -1.052  -6.797   1.658  0.00  0.00    -0.000 A 
ATOM      8  C   LIG    1       -1.172  -8.059   2.206  0.00  0.00    +0.030 A 
ATOM      9  C   LIG    1       -0.433  -8.405   3.323  0.00  0.00    +0.050 A 
ATOM     10  C   LIG    1        0.430  -7.491   3.900  0.00  0.00    +0.030 A 
ATOM     11  C   LIG    1        0.565  -6.228   3.359  0.00  0.00    +0.040 A 
ATOM     12  C   LIG    1       -0.181  -5.870   2.236  0.00  0.00    -0.010 A 
ENDBRANCH   1  12
BRANCH   5  13
ATOM     13  C   LIG    1       -0.263  -3.139   3.783  0.00  0.00    +0.230 C 
ATOM     14  C   LIG    1       -1.504  -2.264   4.052  0.00  0.00    +0.030 C 
ATOM     15  C   LIG    1       -1.099  -1.391   5.265  0.00  0.00    +0.030 C 
ATOM     16  C   LIG    1        0.391  -1.078   4.978  0.00  0.00    +0.040 C 
ATOM     17  C   LIG    1        0.942  -2.385   4.372  0.00  0.00    +0.020 C 
ENDBRANCH   5  13
BRANCH   4  18
ATOM     18  S   LIG    1        0.122  -0.614   1.685  0.00  0.00    +0.040 S 
BRANCH  18  19
ATOM     19  C   LIG    1        0.370  -0.021  -0.007  0.00  0.00    +0.210 C 
BRANCH  19  20
ATOM     20  C   LIG    1        0.435   1.485  -0.007  0.00  0.00    +0.070 A 
ATOM     21  C   LIG    1       -0.617   2.320  -0.155  0.00  0.00    +0.130 A 
ATOM     22  N   LIG    1       -0.131   3.597  -0.095  0.00  0.00    -0.360 N 
ATOM     23  C   LIG    1       -0.733   4.819  -0.181  0.00  0.00    +0.270 A 
ATOM     24  C   LIG    1       -0.004   5.952  -0.092  0.00  0.00    -0.120 A 
ATOM     25  C   LIG    1        1.388   5.887   0.090  0.00  0.00    +0.070 A 
ATOM     26  C   LIG    1        2.000   4.676   0.178  0.00  0.00    +0.100 A 
ATOM     27 BR   LIG    1       -0.860   7.634  -0.215  0.00  0.00    -0.010 Br
ATOM     28  C   LIG    1        1.225   3.502   0.083  0.00  0.00    +0.230 A 
ATOM     29  N   LIG    1        1.543   2.216   0.133  0.00  0.00    -0.470 NA
ENDBRANCH  19  20
ENDBRANCH  18  19
ENDBRANCH   4  18
TORSDOF 5
