REMARK  Name = ZINCpk00000kfvSM.0
REMARK                            x       y       z     vdW  Elec       q    Type
REMARK                         _______ _______ _______ _____ _____    ______ ____
ROOT
ATOM      1  N   LIG    1       -0.696   1.558  -1.199  0.00  0.00    -0.720 N 
ATOM      2  H   LIG    1       -0.408   2.378  -1.630  0.00  0.00    +0.410 HD
ATOM      3  C   LIG    1       -1.724   0.852  -1.711  0.00  0.00    +0.710 C 
ATOM      4  N   LIG    1       -2.352   1.286  -2.821  0.00  0.00    -0.650 N 
ATOM      5  H   LIG    1       -2.064   2.106  -3.252  0.00  0.00    +0.410 HD
ATOM      6  O   LIG    1       -2.085  -0.176  -1.171  0.00  0.00    -0.580 OA
ENDROOT
BRANCH   1  13
ATOM      7  C   LIG    1        1.422   1.600  -0.003  0.00  0.00    +0.190 C 
ATOM      8  C   LIG    1        1.738   2.477   1.225  0.00  0.00    -0.330 C 
ATOM      9  S   LIG    1        0.531   1.881   2.476  0.00  0.00    +2.390 S 
ATOM     10  C   LIG    1       -0.798   1.569   1.244  0.00  0.00    -0.300 C 
ATOM     11  O   LIG    1        0.154   2.952   3.331  0.00  0.00    -0.920 OA
ATOM     12  O   LIG    1        0.976   0.649   3.027  0.00  0.00    -0.920 OA
ATOM     13  C   LIG    1       -0.013   1.086   0.008  0.00  0.00    +0.290 C 
BRANCH   7  15
ATOM     14  C   LIG    1        2.973   2.339  -1.674  0.00  0.00    +0.220 C 
ATOM     15  O   LIG    1        1.629   2.370  -1.189  0.00  0.00    -0.370 OA
ENDBRANCH   7  15
ENDBRANCH   1  13
BRANCH   4  16
ATOM     16  C   LIG    1       -3.426   0.549  -3.356  0.00  0.00    +0.040 A 
ATOM     17  C   LIG    1       -3.929  -0.608  -2.856  0.00  0.00    +0.260 A 
ATOM     18  N   LIG    1       -4.954  -0.991  -3.661  0.00  0.00    -0.350 N 
ATOM     19  N   LIG    1       -5.079  -0.039  -4.681  0.00  0.00    -0.230 NA
ATOM     20  C   LIG    1       -4.171   0.884  -4.497  0.00  0.00    -0.030 A 
BRANCH  20  21
ATOM     21  C   LIG    1       -3.958   2.098  -5.364  0.00  0.00    +0.490 C 
ATOM     22  F   LIG    1       -3.449   3.143  -4.586  0.00  0.00    -0.190 F 
ATOM     23  F   LIG    1       -5.178   2.487  -5.928  0.00  0.00    -0.190 F 
ENDBRANCH  20  21
BRANCH  18  24
ATOM     24  C   LIG    1       -5.782  -2.188  -3.492  0.00  0.00    +0.330 C 
BRANCH  24  25
ATOM     25  C   LIG    1       -7.257  -1.784  -3.441  0.00  0.00    -0.030 C 
ATOM     26  C   LIG    1       -8.113  -3.016  -3.140  0.00  0.00    +0.030 C 
ATOM     27  C   LIG    1       -7.671  -1.193  -4.790  0.00  0.00    +0.030 C 
ENDBRANCH  24  25
ENDBRANCH  18  24
ENDBRANCH   4  16
TORSDOF 6
