REMARK  Name = ZINCvU00000009Ne.0
REMARK                            x       y       z     vdW  Elec       q    Type
REMARK                         _______ _______ _______ _____ _____    ______ ____
ROOT
ATOM      1  C   LIG    1       -1.430   1.602   1.732  0.00  0.00    +0.210 C 
ENDROOT
BRANCH   1   4
ATOM      2  C   LIG    1        1.150  -0.667   0.516  0.00  0.00    +0.270 A 
ATOM      3  N   LIG    1       -0.038  -0.202   0.745  0.00  0.00    -0.460 NA
ATOM      4  C   LIG    1       -0.117   0.941   1.401  0.00  0.00    +0.100 A 
ATOM      5  C   LIG    1        1.062   1.467   1.742  0.00  0.00    -0.070 A 
ATOM      6  S   LIG    1        2.329   0.389   1.163  0.00  0.00    +0.160 S 
BRANCH   2   9
ATOM      7  C   LIG    1        0.707  -3.954  -1.247  0.00  0.00    +0.110 C 
ATOM      8  C   LIG    1        0.415  -2.615  -0.620  0.00  0.00    +0.510 C 
ATOM      9  N   LIG    1        1.425  -1.853  -0.157  0.00  0.00    -0.480 N 
ATOM     10  O   LIG    1       -0.730  -2.224  -0.531  0.00  0.00    -0.460 OA
BRANCH   9  11
ATOM     11  C   LIG    1        2.752  -2.254  -0.354  0.00  0.00    +0.100 A 
ATOM     12  C   LIG    1        3.436  -1.862  -1.498  0.00  0.00    +0.030 A 
ATOM     13  C   LIG    1        4.746  -2.256  -1.686  0.00  0.00    +0.030 A 
ATOM     14  C   LIG    1        5.374  -3.048  -0.743  0.00  0.00    +0.030 A 
ATOM     15  C   LIG    1        4.695  -3.444   0.395  0.00  0.00    +0.030 A 
ATOM     16  C   LIG    1        3.386  -3.050   0.592  0.00  0.00    +0.030 A 
ENDBRANCH   9  11
ENDBRANCH   2   9
ENDBRANCH   1   4
BRANCH   1  17
ATOM     17  S   LIG    1       -2.012   1.015   3.342  0.00  0.00    +0.030 S 
BRANCH  17  18
ATOM     18  C   LIG    1       -3.517   1.922   3.473  0.00  0.00    +0.160 A 
ATOM     19  N   LIG    1       -3.996   2.771   2.593  0.00  0.00    -0.280 NA
ATOM     20  N   LIG    1       -5.115   3.247   3.008  0.00  0.00    -0.280 NA
ATOM     21  C   LIG    1       -5.413   2.743   4.173  0.00  0.00    +0.230 A 
ATOM     22  N   LIG    1       -4.405   1.879   4.512  0.00  0.00    -0.420 N 
BRANCH  22  23
ATOM     23  C   LIG    1       -4.305   1.112   5.682  0.00  0.00    +0.110 A 
ATOM     24  C   LIG    1       -5.232   0.112   5.939  0.00  0.00    +0.030 A 
ATOM     25  C   LIG    1       -5.128  -0.646   7.090  0.00  0.00    +0.040 A 
ATOM     26  C   LIG    1       -4.107  -0.401   7.989  0.00  0.00    +0.030 A 
ATOM     27  C   LIG    1       -3.185   0.598   7.738  0.00  0.00    +0.040 A 
ATOM     28  C   LIG    1       -3.281   1.355   6.587  0.00  0.00    +0.030 A 
ENDBRANCH  22  23
BRANCH  21  29
ATOM     29  C   LIG    1       -6.638   3.053   4.993  0.00  0.00    +0.030 C 
ATOM     30  C   LIG    1       -7.736   3.890   4.335  0.00  0.00    +0.070 C 
ATOM     31  C   LIG    1       -6.852   4.505   5.423  0.00  0.00    +0.060 C 
ENDBRANCH  21  29
ENDBRANCH  17  18
ENDBRANCH   1  17
TORSDOF 7
