REMARK  Name = ZINCrH000004tS1T.0
REMARK                            x       y       z     vdW  Elec       q    Type
REMARK                         _______ _______ _______ _____ _____    ______ ____
ROOT
ATOM      1  O   LIG    1        1.278   5.827  -0.082  0.00  0.00    -0.480 OA
ATOM      2  C   LIG    1        2.336   5.233  -0.095  0.00  0.00    +0.500 C 
ATOM      3  N   LIG    1        2.355   3.889  -0.001  0.00  0.00    -0.670 N 
ATOM      4  H   LIG    1        3.201   3.420   0.070  0.00  0.00    +0.410 HD
ENDROOT
BRANCH   3   5
ATOM      5  C   LIG    1        1.155   3.170  -0.003  0.00  0.00    +0.160 A 
ATOM      6  C   LIG    1        0.022   3.709  -0.598  0.00  0.00    +0.020 A 
ATOM      7  C   LIG    1       -1.161   2.997  -0.599  0.00  0.00    +0.030 A 
ATOM      8  C   LIG    1       -1.217   1.745  -0.014  0.00  0.00    -0.020 A 
ATOM      9  C   LIG    1       -0.092   1.207   0.583  0.00  0.00    +0.040 A 
ATOM     10  C   LIG    1        1.094   1.915   0.588  0.00  0.00    -0.120 A 
BRANCH  10  11
ATOM     11  C   LIG    1        2.321   1.325   1.234  0.00  0.00    +0.140 C 
BRANCH  11  12
ATOM     12  C   LIG    1        2.434   1.827   2.651  0.00  0.00    -0.130 A 
ATOM     13  C   LIG    1        3.138   2.988   2.930  0.00  0.00    +0.050 A 
ATOM     14  C   LIG    1        3.210   3.415   4.247  0.00  0.00    -0.030 A 
ATOM     15  C   LIG    1        2.592   2.668   5.232  0.00  0.00    +0.250 A 
ATOM     16  N   LIG    1        1.935   1.565   4.930  0.00  0.00    -0.480 NA
ATOM     17  C   LIG    1        1.841   1.133   3.688  0.00  0.00    +0.260 A 
ENDBRANCH  11  12
ENDBRANCH  10  11
ENDBRANCH   3   5
BRANCH   2  18
ATOM     18  C   LIG    1        3.628   5.999  -0.217  0.00  0.00    +0.090 C 
BRANCH  18  19
ATOM     19  C   LIG    1        3.327   7.496  -0.308  0.00  0.00    +0.070 C 
ATOM     20  C   LIG    1        2.686   7.828  -1.639  0.00  0.00    +0.530 C 
ATOM     21  N   LIG    1        3.506   8.686  -2.270  0.00  0.00    -0.660 N 
ATOM     22  H   LIG    1        3.328   9.058  -3.148  0.00  0.00    +0.410 HD
ATOM     23  C   LIG    1        4.644   8.980  -1.517  0.00  0.00    +0.150 A 
ATOM     24  C   LIG    1        5.730   9.807  -1.793  0.00  0.00    -0.010 A 
ATOM     25  C   LIG    1        6.752   9.938  -0.875  0.00  0.00    +0.050 A 
ATOM     26  C   LIG    1        6.707   9.251   0.324  0.00  0.00    -0.010 A 
ATOM     27  C   LIG    1        5.631   8.427   0.605  0.00  0.00    +0.070 A 
ATOM     28  O   LIG    1        1.631   7.401  -2.057  0.00  0.00    -0.470 OA
ATOM     29  C   LIG    1        4.610   8.295  -0.309  0.00  0.00    -0.140 A 
ENDBRANCH  18  19
ENDBRANCH   2  18
TORSDOF 5
