REMARK  Name = ZINCkj00000y7GBp.1
REMARK                            x       y       z     vdW  Elec       q    Type
REMARK                         _______ _______ _______ _____ _____    ______ ____
ROOT
ATOM      1  N   LIG    1        4.124  -0.943  -1.427  0.00  0.00    -0.380 N 
ATOM      2  C   LIG    1        5.471  -1.549  -1.451  0.00  0.00    +0.220 C 
ATOM      3  C   LIG    1        5.337  -2.898  -2.171  0.00  0.00    +0.180 C 
ATOM      4  C   LIG    1        4.065  -2.733  -3.028  0.00  0.00    +0.210 C 
ATOM      5  O   LIG    1        4.322  -1.931  -4.183  0.00  0.00    -0.380 OA
ATOM      6  C   LIG    1        5.434  -2.342  -4.977  0.00  0.00    +0.260 C 
ATOM      7  C   LIG    1        6.696  -2.284  -4.107  0.00  0.00    +0.170 C 
ATOM      8  N   LIG    1        6.514  -3.202  -2.976  0.00  0.00    -0.530 NA
ATOM      9  C   LIG    1        7.721  -3.256  -2.141  0.00  0.00    +0.220 C 
ATOM     10  C   LIG    1        3.179  -1.876  -2.079  0.00  0.00    +0.300 C 
ATOM     11  H   LIG    1        4.138  -0.068  -1.929  0.00  0.00    +0.430 HD
ENDROOT
BRANCH   1  12
ATOM     12  C   LIG    1        3.711  -0.711  -0.037  0.00  0.00    +0.330 C 
BRANCH  12  16
ATOM     13  C   LIG    1       -0.017   1.382   0.010  0.00  0.00    +0.140 A 
ATOM     14  C   LIG    1        0.002  -0.004   0.002  0.00  0.00    -0.030 A 
ATOM     15  C   LIG    1        1.209  -0.678  -0.013  0.00  0.00    +0.080 A 
ATOM     16  C   LIG    1        2.397   0.028  -0.020  0.00  0.00    -0.180 A 
ATOM     17  C   LIG    1        2.383   1.411  -0.013  0.00  0.00    +0.060 A 
ATOM     18  C   LIG    1        1.179   2.090   0.002  0.00  0.00    +0.080 A 
ATOM     19  F   LIG    1        1.164   3.441   0.009  0.00  0.00    -0.120 F 
BRANCH  13  21
ATOM     20  C   LIG    1       -2.391   1.254   0.020  0.00  0.00    +0.270 C 
ATOM     21  O   LIG    1       -1.202   2.047   0.019  0.00  0.00    -0.300 OA
ENDBRANCH  13  21
ENDBRANCH  12  16
ENDBRANCH   1  12
TORSDOF 3
