REMARK  Name = ZINCkj00000y7GBp.2
REMARK                            x       y       z     vdW  Elec       q    Type
REMARK                         _______ _______ _______ _____ _____    ______ ____
ROOT
ATOM      1  N   LIG    1       -2.226   1.430   0.833  0.00  0.00    -0.380 N 
ATOM      2  C   LIG    1       -0.813   1.587   1.225  0.00  0.00    +0.220 C 
ATOM      3  C   LIG    1       -0.013   1.086   0.008  0.00  0.00    +0.180 C 
ATOM      4  C   LIG    1       -0.859   1.600  -1.174  0.00  0.00    +0.220 C 
ATOM      5  O   LIG    1       -0.658   2.996  -1.375  0.00  0.00    -0.380 OA
ATOM      6  C   LIG    1        0.701   3.417  -1.471  0.00  0.00    +0.260 C 
ATOM      7  C   LIG    1        1.411   3.052  -0.161  0.00  0.00    +0.170 C 
ATOM      8  N   LIG    1        1.346   1.593  -0.002  0.00  0.00    -0.520 NA
ATOM      9  C   LIG    1        2.078   1.161   1.196  0.00  0.00    +0.220 C 
ATOM     10  C   LIG    1       -2.305   1.429  -0.640  0.00  0.00    +0.290 C 
ATOM     11  H   LIG    1       -2.582   0.558   1.193  0.00  0.00    +0.430 HD
ENDROOT
BRANCH   1  12
ATOM     12  C   LIG    1       -3.015   2.547   1.369  0.00  0.00    +0.330 C 
BRANCH  12  16
ATOM     13  C   LIG    1       -7.159   1.883   0.554  0.00  0.00    +0.130 A 
ATOM     14  C   LIG    1       -6.597   1.410   1.730  0.00  0.00    -0.030 A 
ATOM     15  C   LIG    1       -5.257   1.627   1.991  0.00  0.00    +0.080 A 
ATOM     16  C   LIG    1       -4.476   2.313   1.081  0.00  0.00    -0.180 A 
ATOM     17  C   LIG    1       -5.033   2.792  -0.091  0.00  0.00    +0.060 A 
ATOM     18  C   LIG    1       -6.372   2.574  -0.359  0.00  0.00    +0.080 A 
ATOM     19  F   LIG    1       -6.916   3.037  -1.506  0.00  0.00    -0.120 F 
BRANCH  13  21
ATOM     20  C   LIG    1       -9.224   0.955   1.281  0.00  0.00    +0.260 C 
ATOM     21  O   LIG    1       -8.477   1.672   0.296  0.00  0.00    -0.300 OA
ENDBRANCH  13  21
ENDBRANCH  12  16
ENDBRANCH   1  12
TORSDOF 3
