REMARK  Name = ZINCpk00000KfKVB.0
REMARK                            x       y       z     vdW  Elec       q    Type
REMARK                         _______ _______ _______ _____ _____    ______ ____
ROOT
ATOM      1  C   LIG    1        1.248   1.716  -0.001  0.00  0.00    +0.260 C 
ATOM      2  C   LIG    1        1.635   2.077   1.435  0.00  0.00    +0.060 C 
ENDROOT
BRANCH   1   5
ATOM      3  N   LIG    1        3.584   1.356  -0.730  0.00  0.00    -0.520 N 
ATOM      4  H   LIG    1        3.787   2.251  -0.415  0.00  0.00    +0.420 HD
ATOM      5  C   LIG    1        2.332   0.870  -0.616  0.00  0.00    +0.510 C 
ATOM      6  O   LIG    1        2.079  -0.249  -1.009  0.00  0.00    -0.520 OA
BRANCH   3  10
ATOM      7  N   LIG    1        6.125   2.300  -0.978  0.00  0.00    -0.740 N 
ATOM      8  H   LIG    1        5.427   2.845  -0.582  0.00  0.00    +0.390 HD
ATOM      9  C   LIG    1        5.844   1.057  -1.415  0.00  0.00    +0.710 C 
ATOM     10  N   LIG    1        4.592   0.570  -1.302  0.00  0.00    -0.530 N 
ATOM     11  H   LIG    1        4.390  -0.325  -1.616  0.00  0.00    +0.440 HD
ATOM     12  O   LIG    1        6.719   0.374  -1.911  0.00  0.00    -0.560 OA
BRANCH   7  13
ATOM     13  C   LIG    1        7.486   2.829  -1.101  0.00  0.00    +0.270 C 
BRANCH  13  15
ATOM     14  C   LIG    1        8.955   4.802  -0.663  0.00  0.00    +0.030 C 
ATOM     15  C   LIG    1        7.534   4.250  -0.534  0.00  0.00    +0.000 C 
ENDBRANCH  13  15
ENDBRANCH   7  13
ENDBRANCH   3  10
ENDBRANCH   1   5
BRANCH   1  16
ATOM     16  N   LIG    1       -0.011   0.966   0.007  0.00  0.00    -0.710 N 
ATOM     17  H   LIG    1        0.002  -0.004   0.002  0.00  0.00    +0.410 HD
ATOM     18  C   LIG    1       -1.187   1.624   0.017  0.00  0.00    +0.530 C 
ATOM     19  O   LIG    1       -1.204   2.837   0.023  0.00  0.00    -0.530 OA
BRANCH  18  20
ATOM     20  C   LIG    1       -2.482   0.853   0.018  0.00  0.00    -0.070 C 
ATOM     21  C   LIG    1       -2.545  -0.035   1.263  0.00  0.00    +0.040 C 
ATOM     22  C   LIG    1       -3.860  -0.818   1.265  0.00  0.00    +0.000 C 
ATOM     23  C   LIG    1       -3.935  -1.692   0.011  0.00  0.00    +0.020 C 
ATOM     24  C   LIG    1       -3.872  -0.804  -1.233  0.00  0.00    +0.000 C 
ATOM     25  C   LIG    1       -5.048   0.174  -1.222  0.00  0.00    +0.010 C 
ATOM     26  C   LIG    1       -4.973   1.048   0.031  0.00  0.00    -0.020 C 
ATOM     27  C   LIG    1       -5.036   0.161   1.276  0.00  0.00    +0.010 C 
ATOM     28  C   LIG    1       -2.557  -0.021  -1.235  0.00  0.00    +0.040 C 
ATOM     29  C   LIG    1       -3.658   1.831   0.029  0.00  0.00    +0.050 C 
ENDBRANCH  18  20
ENDBRANCH   1  16
TORSDOF 6
