REMARK  Name = ZINCpk00000xI6u7.0
REMARK                            x       y       z     vdW  Elec       q    Type
REMARK                         _______ _______ _______ _____ _____    ______ ____
ROOT
ATOM      1  C   LIG    1       -1.120   1.217  -1.581  0.00  0.00    +0.260 C 
ATOM      2  C   LIG    1       -1.238   2.743  -1.597  0.00  0.00    +0.020 C 
ATOM      3  C   LIG    1       -2.145   3.199  -0.452  0.00  0.00    +0.030 C 
ATOM      4  C   LIG    1       -1.525   2.775   0.884  0.00  0.00    +0.280 C 
ATOM      5  N   LIG    1       -1.272   1.328   0.853  0.00  0.00    -0.590 N 
ATOM      6  C   LIG    1       -1.751   0.526   1.824  0.00  0.00    +0.610 C 
ATOM      7  O   LIG    1       -1.491  -0.662   1.815  0.00  0.00    -0.520 OA
ATOM      8  C   LIG    1       -0.489   0.772  -0.259  0.00  0.00    +0.300 C 
ENDROOT
BRANCH   1  12
ATOM      9  C   LIG    1        1.331  -0.013  -4.767  0.00  0.00    +0.240 A 
ATOM     10  C   LIG    1        0.026  -0.464  -4.698  0.00  0.00    -0.160 A 
ATOM     11  C   LIG    1       -0.783  -0.048  -3.632  0.00  0.00    +0.530 A 
ATOM     12  N   LIG    1       -0.277   0.780  -2.697  0.00  0.00    -0.420 N 
ATOM     13  N   LIG    1        1.044   1.231  -2.786  0.00  0.00    -0.190 NA
ATOM     14  O   LIG    1       -1.939  -0.434  -3.550  0.00  0.00    -0.550 OA
ATOM     15  C   LIG    1        1.818   0.854  -3.765  0.00  0.00    +0.240 A 
BRANCH   9  16
ATOM     16  N   LIG    1        2.152  -0.408  -5.808  0.00  0.00    -0.590 N 
ATOM     17  C   LIG    1        1.688  -1.415  -6.766  0.00  0.00    +0.300 C 
BRANCH  16  19
ATOM     18  C   LIG    1        4.535  -0.932  -5.978  0.00  0.00    +0.020 C 
ATOM     19  C   LIG    1        3.486   0.181  -5.953  0.00  0.00    +0.220 C 
ATOM     20  C   LIG    1        3.553   0.976  -7.259  0.00  0.00    +0.020 C 
ENDBRANCH  16  19
ENDBRANCH   9  16
ENDBRANCH   1  12
BRANCH   6  21
ATOM     21  C   LIG    1       -2.591   1.089   2.898  0.00  0.00    -0.020 A 
ATOM     22  C   LIG    1       -3.248   0.331   3.846  0.00  0.00    -0.030 A 
ATOM     23  S   LIG    1       -4.057   1.494   4.823  0.00  0.00    +0.490 S 
ATOM     24  N   LIG    1       -3.556   2.750   4.037  0.00  0.00    -0.290 NA
ATOM     25  N   LIG    1       -2.805   2.388   3.074  0.00  0.00    -0.210 NA
ENDBRANCH   6  21
TORSDOF 4
