REMARK  Name = ZINCpe00000MJJV1.0
REMARK                            x       y       z     vdW  Elec       q    Type
REMARK                         _______ _______ _______ _____ _____    ______ ____
ROOT
ATOM      1  C   LIG    1       -1.453  -2.326  -0.812  0.00  0.00    +0.210 C 
ATOM      2  C   LIG    1       -0.387  -2.424  -1.936  0.00  0.00    +0.060 C 
ATOM      3  C   LIG    1        0.878  -2.827  -1.176  0.00  0.00    +0.210 C 
ATOM      4  C   LIG    1        0.582  -2.232   0.231  0.00  0.00    +0.140 C 
ATOM      5  C   LIG    1        1.653  -2.741   1.169  0.00  0.00    +0.060 C 
ATOM      6  C   LIG    1        2.990  -2.131   0.713  0.00  0.00    +0.040 C 
ATOM      7  C   LIG    1        3.298  -2.482  -0.746  0.00  0.00    +0.240 C 
ATOM      8  C   LIG    1        4.479  -1.637  -1.228  0.00  0.00    +0.040 C 
ATOM      9  N   LIG    1        2.127  -2.216  -1.608  0.00  0.00    -0.610 N 
ATOM     10  C   LIG    1        2.212  -1.463  -2.723  0.00  0.00    +0.610 C 
ATOM     11  O   LIG    1        1.546  -1.747  -3.700  0.00  0.00    -0.500 OA
ATOM     12  O   LIG    1       -0.775  -2.603   0.442  0.00  0.00    -0.330 OA
ENDROOT
BRANCH  10  13
ATOM     13  C   LIG    1        3.119  -0.296  -2.760  0.00  0.00    -0.020 A 
ATOM     14  C   LIG    1        4.309  -0.355  -3.495  0.00  0.00    +0.110 A 
ATOM     15  C   LIG    1        5.122   0.764  -3.505  0.00  0.00    -0.030 A 
ATOM     16  C   LIG    1        4.713   1.879  -2.772  0.00  0.00    +0.350 A 
ATOM     17  N   LIG    1        3.568   1.844  -2.098  0.00  0.00    -0.300 NA
ATOM     18  N   LIG    1        2.809   0.809  -2.092  0.00  0.00    -0.160 NA
BRANCH  16  19
ATOM     19  N   LIG    1        5.498   3.019  -2.748  0.00  0.00    -0.600 N 
ATOM     20  C   LIG    1        5.075   4.183  -1.965  0.00  0.00    +0.300 C 
ATOM     21  C   LIG    1        6.751   3.062  -3.505  0.00  0.00    +0.300 C 
ENDBRANCH  16  19
ENDBRANCH  10  13
BRANCH   1  22
ATOM     22  C   LIG    1       -2.539  -3.345  -1.045  0.00  0.00    +0.460 C 
ATOM     23  O   LIG    1       -2.699  -4.248  -0.259  0.00  0.00    -0.480 OA
BRANCH  22  25
ATOM     24  C   LIG    1       -4.355  -4.263  -2.285  0.00  0.00    +0.280 C 
ATOM     25  O   LIG    1       -3.330  -3.248  -2.125  0.00  0.00    -0.350 OA
ENDBRANCH  22  25
ENDBRANCH   1  22
TORSDOF 4
