REMARK  Name = ZINCrD0000073lHY.0
REMARK                            x       y       z     vdW  Elec       q    Type
REMARK                         _______ _______ _______ _____ _____    ______ ____
ROOT
ATOM      1  C   LIG    1        1.740   1.777  -0.005  0.00  0.00    +0.130 A 
ATOM      2  N   LIG    1        2.178   0.551  -0.016  0.00  0.00    -0.440 NA
ATOM      3  C   LIG    1        1.277  -0.405  -0.012  0.00  0.00    +0.080 A 
ATOM      4  C   LIG    1        0.002  -0.004   0.002  0.00  0.00    -0.060 A 
ATOM      5  S   LIG    1       -0.022   1.758   0.012  0.00  0.00    +0.090 S 
ENDROOT
BRANCH   1   9
ATOM      6  C   LIG    1        4.175   5.263  -0.011  0.00  0.00    +0.120 A 
ATOM      7  C   LIG    1        4.762   4.007  -0.024  0.00  0.00    -0.040 A 
ATOM      8  C   LIG    1        3.975   2.874  -0.021  0.00  0.00    +0.080 A 
ATOM      9  C   LIG    1        2.584   2.990  -0.007  0.00  0.00    -0.030 A 
ATOM     10  C   LIG    1        1.993   4.255  -0.000  0.00  0.00    -0.010 A 
ATOM     11  C   LIG    1        2.787   5.386   0.003  0.00  0.00    +0.100 A 
BRANCH   6  13
ATOM     12  C   LIG    1        6.369   6.178  -0.028  0.00  0.00    +0.240 C 
ATOM     13  O   LIG    1        4.954   6.377  -0.013  0.00  0.00    -0.300 OA
ENDBRANCH   6  13
BRANCH  11  14
ATOM     14  O   LIG    1        2.214   6.620   0.014  0.00  0.00    -0.300 OA
ATOM     15  C   LIG    1        0.786   6.671   0.028  0.00  0.00    +0.240 C 
ENDBRANCH  11  14
ENDBRANCH   1   9
BRANCH   3  16
ATOM     16  C   LIG    1        1.657  -1.863  -0.023  0.00  0.00    +0.170 C 
BRANCH  16  17
ATOM     17  C   LIG    1        2.562  -2.138  -1.197  0.00  0.00    +0.530 C 
ATOM     18  N   LIG    1        3.031  -3.383  -1.410  0.00  0.00    -0.550 N 
ATOM     19  C   LIG    1        3.909  -3.773  -2.517  0.00  0.00    +0.280 C 
ATOM     20  C   LIG    1        4.162  -5.277  -2.322  0.00  0.00    +0.120 C 
ATOM     21  C   LIG    1        3.374  -5.636  -1.084  0.00  0.00    -0.190 A 
ATOM     22  C   LIG    1        3.203  -6.830  -0.416  0.00  0.00    +0.310 A 
ATOM     23  N   LIG    1        2.450  -6.894   0.666  0.00  0.00    -0.500 NA
ATOM     24  C   LIG    1        1.836  -5.830   1.147  0.00  0.00    +0.290 A 
ATOM     25  C   LIG    1        1.959  -4.601   0.535  0.00  0.00    -0.070 A 
ATOM     26  C   LIG    1        2.747  -4.489  -0.614  0.00  0.00    +0.190 A 
ATOM     27  O   LIG    1        2.867  -1.238  -1.951  0.00  0.00    -0.480 OA
ENDBRANCH  16  17
ENDBRANCH   3  16
TORSDOF 5
