REMARK  Name = ZINCpe000000WStA.1
REMARK                            x       y       z     vdW  Elec       q    Type
REMARK                         _______ _______ _______ _____ _____    ______ ____
ROOT
ATOM      1  N   LIG    1        2.435  -2.812   0.614  0.00  0.00    -0.730 N 
ATOM      2  H   LIG    1        3.105  -2.174   0.903  0.00  0.00    +0.400 HD
ATOM      3  C   LIG    1        2.363  -4.025   1.197  0.00  0.00    +0.510 C 
ATOM      4  O   LIG    1        1.524  -4.823   0.836  0.00  0.00    -0.510 OA
ENDROOT
BRANCH   1   6
ATOM      5  C   LIG    1        2.039  -2.971  -1.794  0.00  0.00    +0.040 C 
ATOM      6  C   LIG    1        1.500  -2.458  -0.458  0.00  0.00    +0.290 C 
BRANCH   6   7
ATOM      7  C   LIG    1        1.350  -0.960  -0.518  0.00  0.00    -0.090 A 
ATOM      8  C   LIG    1        2.455  -0.148  -0.346  0.00  0.00    +0.020 A 
ATOM      9  C   LIG    1        2.321   1.227  -0.400  0.00  0.00    +0.030 A 
ATOM     10  C   LIG    1        1.076   1.795  -0.626  0.00  0.00    +0.050 A 
ATOM     11  O   LIG    1        0.958   3.150  -0.670  0.00  0.00    -0.310 OA
ATOM     12  C   LIG    1       -0.232   3.674  -1.270  0.00  0.00    +0.220 C 
ATOM     13  C   LIG    1       -1.433   2.899  -0.711  0.00  0.00    +0.220 C 
ATOM     14  O   LIG    1       -1.264   1.515  -1.037  0.00  0.00    -0.310 OA
ATOM     15  C   LIG    1       -0.035   0.978  -0.803  0.00  0.00    +0.060 A 
ATOM     16  C   LIG    1        0.106  -0.400  -0.746  0.00  0.00    +0.040 A 
ENDBRANCH   6   7
ENDBRANCH   1   6
BRANCH   3  17
ATOM     17  C   LIG    1        3.324  -4.389   2.299  0.00  0.00    +0.210 C 
BRANCH  17  18
ATOM     18  N   LIG    1        2.948  -5.691   2.867  0.00  0.00    -0.520 NA
ATOM     19  C   LIG    1        3.995  -6.196   3.764  0.00  0.00    +0.180 C 
ATOM     20  C   LIG    1        3.638  -7.612   4.220  0.00  0.00    +0.040 C 
ATOM     21  C   LIG    1        2.289  -7.585   4.945  0.00  0.00    -0.020 C 
ATOM     22  C   LIG    1        1.226  -7.009   4.005  0.00  0.00    +0.060 C 
ATOM     23  C   LIG    1        1.653  -5.611   3.555  0.00  0.00    +0.170 C 
BRANCH  21  24
ATOM     24  C   LIG    1        1.902  -8.985   5.345  0.00  0.00    +0.520 C 
ATOM     25  O   LIG    1        0.877  -9.476   4.922  0.00  0.00    -0.540 OA
ATOM     26  N   LIG    1        2.696  -9.692   6.174  0.00  0.00    -0.860 N 
ATOM     27  H   LIG    1        2.447 -10.594   6.432  0.00  0.00    +0.400 HD
ATOM     28  H   LIG    1        3.515  -9.300   6.513  0.00  0.00    +0.400 HD
ENDBRANCH  21  24
ENDBRANCH  17  18
ENDBRANCH   3  17
TORSDOF 5
