REMARK  Name = ZINCtV00001bB3NE.0
REMARK                            x       y       z     vdW  Elec       q    Type
REMARK                         _______ _______ _______ _____ _____    ______ ____
ROOT
ATOM      1  C   LIG    1        2.954  -0.547   3.695  0.00  0.00    +0.150 C 
ATOM      2  C   LIG    1        3.374  -1.037   4.881  0.00  0.00    -0.090 C 
ENDROOT
BRANCH   1   6
ATOM      3  C   LIG    1       -0.548   1.845   3.513  0.00  0.00    +0.120 A 
ATOM      4  C   LIG    1       -0.118   1.336   4.731  0.00  0.00    -0.040 A 
ATOM      5  C   LIG    1        1.019   0.561   4.796  0.00  0.00    +0.040 A 
ATOM      6  C   LIG    1        1.740   0.279   3.630  0.00  0.00    -0.090 A 
ATOM      7  C   LIG    1        1.303   0.788   2.401  0.00  0.00    -0.010 A 
ATOM      8  C   LIG    1        0.162   1.564   2.346  0.00  0.00    +0.100 A 
BRANCH   3   9
ATOM      9  O   LIG    1       -1.667   2.613   3.457  0.00  0.00    -0.300 OA
BRANCH   9  10
ATOM     10  C   LIG    1       -2.346   2.861   4.690  0.00  0.00    +0.180 C 
BRANCH  10  12
ATOM     11  C   LIG    1       -4.300   4.003   5.749  0.00  0.00    +0.040 C 
ATOM     12  C   LIG    1       -3.573   3.737   4.429  0.00  0.00    +0.020 C 
ENDBRANCH  10  12
ENDBRANCH   9  10
ENDBRANCH   3   9
BRANCH   8  13
ATOM     13  O   LIG    1       -0.265   2.061   1.155  0.00  0.00    -0.300 OA
BRANCH  13  14
ATOM     14  C   LIG    1        0.514   1.739   0.001  0.00  0.00    +0.170 C 
ATOM     15  C   LIG    1       -0.118   2.380  -1.236  0.00  0.00    +0.070 C 
ENDBRANCH  13  14
ENDBRANCH   8  13
ENDBRANCH   1   6
BRANCH   2  16
ATOM     16  C   LIG    1        4.581  -1.859   4.946  0.00  0.00    +0.550 C 
ATOM     17  N   LIG    1        5.001  -2.348   6.130  0.00  0.00    -0.670 N 
ATOM     18  H   LIG    1        4.547  -2.092   6.949  0.00  0.00    +0.420 HD
ATOM     19  O   LIG    1        5.207  -2.102   3.931  0.00  0.00    -0.520 OA
BRANCH  17  20
ATOM     20  C   LIG    1        6.090  -3.224   6.179  0.00  0.00    +0.170 A 
ATOM     21  C   LIG    1        6.311  -4.118   5.139  0.00  0.00    +0.060 A 
ATOM     22  C   LIG    1        7.390  -4.978   5.188  0.00  0.00    +0.080 A 
ATOM     23  C   LIG    1        8.245  -4.957   6.275  0.00  0.00    -0.070 A 
ATOM     24  C   LIG    1        8.025  -4.071   7.315  0.00  0.00    -0.140 A 
ATOM     25 BR   LIG    1        9.719  -6.140   6.341  0.00  0.00    -0.020 Br
ATOM     26  C   LIG    1        6.950  -3.205   7.270  0.00  0.00    +0.050 A 
BRANCH  24  27
ATOM     27  C   LIG    1        8.958  -4.051   8.498  0.00  0.00    +0.510 C 
ATOM     28  F   LIG    1       10.254  -3.748   8.065  0.00  0.00    -0.170 F 
ATOM     29  F   LIG    1        8.954  -5.305   9.117  0.00  0.00    -0.170 F 
ATOM     30  F   LIG    1        8.533  -3.079   9.411  0.00  0.00    -0.170 F 
ENDBRANCH  24  27
ENDBRANCH  17  20
ENDBRANCH   2  16
TORSDOF 9
