REMARK  Name = ZINCtV000002PQnW.0
REMARK                            x       y       z     vdW  Elec       q    Type
REMARK                         _______ _______ _______ _____ _____    ______ ____
ROOT
ATOM      1  C   LIG    1        3.602   2.122   0.018  0.00  0.00    +0.410 A 
ATOM      2  N   LIG    1        4.716   1.411   0.044  0.00  0.00    -0.570 NA
ATOM      3  C   LIG    1        4.690   0.079   0.076  0.00  0.00    +0.410 A 
ATOM      4  N   LIG    1        3.565  -0.612   0.084  0.00  0.00    -0.520 NA
ATOM      5  C   LIG    1        2.383   0.018   0.059  0.00  0.00    +0.190 A 
ATOM      6  C   LIG    1        1.169  -0.684   0.066  0.00  0.00    +0.040 A 
ATOM      7  C   LIG    1       -0.006   0.005   0.039  0.00  0.00    +0.070 A 
ATOM      8  C   LIG    1       -0.022   1.397   0.005  0.00  0.00    +0.010 A 
ATOM      9  C   LIG    1        1.141   2.111  -0.002  0.00  0.00    +0.080 A 
ATOM     10  C   LIG    1        2.365   1.435   0.024  0.00  0.00    -0.170 A 
ENDROOT
BRANCH   3  11
ATOM     11  C   LIG    1        5.976  -0.657   0.104  0.00  0.00    -0.100 A 
ATOM     12  C   LIG    1        7.191   0.035   0.098  0.00  0.00    +0.130 A 
ATOM     13  C   LIG    1        8.365  -0.699   0.126  0.00  0.00    -0.040 A 
ATOM     14  C   LIG    1        8.299  -2.080   0.159  0.00  0.00    +0.280 A 
ATOM     15  N   LIG    1        7.137  -2.705   0.165  0.00  0.00    -0.490 NA
ATOM     16  C   LIG    1        5.995  -2.050   0.145  0.00  0.00    +0.320 A 
ENDBRANCH   3  11
BRANCH   1  17
ATOM     17  O   LIG    1        3.644   3.474  -0.014  0.00  0.00    -0.230 OA
BRANCH  17  21
ATOM     18  C   LIG    1        7.331   5.309   0.278  0.00  0.00    -0.030 A 
ATOM     19  C   LIG    1        6.937   4.722  -0.923  0.00  0.00    +0.030 A 
ATOM     20  C   LIG    1        5.705   4.109  -1.018  0.00  0.00    +0.030 A 
ATOM     21  C   LIG    1        4.858   4.077   0.082  0.00  0.00    +0.080 A 
ATOM     22  C   LIG    1        5.246   4.666   1.278  0.00  0.00    +0.020 A 
ATOM     23  C   LIG    1        6.479   5.274   1.380  0.00  0.00    +0.040 A 
BRANCH  18  27
ATOM     24  C   LIG    1       11.128   7.199   0.579  0.00  0.00    +0.010 A 
ATOM     25  C   LIG    1       10.286   7.168   1.675  0.00  0.00    +0.010 A 
ATOM     26  C   LIG    1        9.052   6.555   1.583  0.00  0.00    +0.020 A 
ATOM     27  C   LIG    1        8.656   5.968   0.383  0.00  0.00    -0.050 A 
ATOM     28  C   LIG    1        9.511   5.999  -0.717  0.00  0.00    +0.020 A 
ATOM     29  C   LIG    1       10.741   6.617  -0.615  0.00  0.00    +0.010 A 
ENDBRANCH  18  27
ENDBRANCH  17  21
ENDBRANCH   1  17
TORSDOF 4
