REMARK  Name = ZINCqH0000007RJn.0
REMARK                            x       y       z     vdW  Elec       q    Type
REMARK                         _______ _______ _______ _____ _____    ______ ____
ROOT
ATOM      1  N   LIG    1        0.002  -0.004   0.002  0.00  0.00    -0.710 N 
ATOM      2  H   LIG    1       -0.057  -0.494   0.837  0.00  0.00    +0.400 HD
ATOM      3  C   LIG    1        0.102  -0.670  -1.165  0.00  0.00    +0.610 C 
ATOM      4  O   LIG    1        0.175  -0.056  -2.212  0.00  0.00    -0.520 OA
ENDROOT
BRANCH   3   5
ATOM      5  C   LIG    1        0.122  -2.148  -1.173  0.00  0.00    -0.050 A 
ATOM      6  N   LIG    1        0.049  -2.932  -0.113  0.00  0.00    -0.200 NA
ATOM      7  N   LIG    1        0.095  -4.162  -0.487  0.00  0.00    -0.160 N 
ATOM      8  N   LIG    1        0.205  -4.208  -1.883  0.00  0.00    -0.270 NA
ATOM      9  C   LIG    1        0.216  -2.968  -2.312  0.00  0.00    +0.110 A 
ATOM     10  C   LIG    1        0.314  -2.511  -3.745  0.00  0.00    +0.190 C 
BRANCH   7  11
ATOM     11  C   LIG    1        0.043  -5.275   0.363  0.00  0.00    +0.170 A 
ATOM     12  C   LIG    1        0.101  -6.558  -0.165  0.00  0.00    +0.050 A 
ATOM     13  C   LIG    1        0.050  -7.653   0.675  0.00  0.00    +0.070 A 
ATOM     14  C   LIG    1       -0.059  -7.474   2.041  0.00  0.00    +0.050 A 
ATOM     15  C   LIG    1       -0.117  -6.196   2.572  0.00  0.00    -0.020 A 
ATOM     16 CL   LIG    1       -0.254  -5.975   4.288  0.00  0.00    -0.050 Cl
ATOM     17  C   LIG    1       -0.061  -5.097   1.736  0.00  0.00    +0.040 A 
ENDBRANCH   7  11
ENDBRANCH   3   5
BRANCH   1  18
ATOM     18  C   LIG    1       -0.018   1.461   0.010  0.00  0.00    +0.300 C 
ATOM     19  C   LIG    1        1.418   1.990  -0.001  0.00  0.00    +0.040 C 
BRANCH  18  25
ATOM     20  C   LIG    1       -1.326   3.197   1.261  0.00  0.00    +0.140 A 
ATOM     21  C   LIG    1       -1.975   3.641   2.404  0.00  0.00    -0.070 A 
ATOM     22  C   LIG    1       -2.019   2.838   3.528  0.00  0.00    +0.050 A 
ATOM     23  C   LIG    1       -1.418   1.593   3.514  0.00  0.00    -0.020 A 
ATOM     24  C   LIG    1       -0.775   1.146   2.374  0.00  0.00    +0.050 A 
ATOM     25  C   LIG    1       -0.723   1.947   1.250  0.00  0.00    -0.130 A 
BRANCH  20  27
ATOM     26  C   LIG    1       -1.922   5.258   0.238  0.00  0.00    +0.250 C 
ATOM     27  O   LIG    1       -1.281   3.984   0.154  0.00  0.00    -0.310 OA
ENDBRANCH  20  27
ENDBRANCH  18  25
ENDBRANCH   1  18
TORSDOF 5
