REMARK  Name = ZINCpe000000Wy0b.0
REMARK                            x       y       z     vdW  Elec       q    Type
REMARK                         _______ _______ _______ _____ _____    ______ ____
ROOT
ATOM      1  C   LIG    1       -2.493   8.013   0.066  0.00  0.00    +0.590 C 
ATOM      2  N   LIG    1       -1.313   7.362   0.052  0.00  0.00    -0.510 N 
ATOM      3  H   LIG    1       -0.482   7.864   0.046  0.00  0.00    +0.430 HD
ATOM      4  O   LIG    1       -3.534   7.385   0.072  0.00  0.00    -0.520 OA
ENDROOT
BRANCH   1  10
ATOM      5  C   LIG    1       -2.541  10.198  -1.134  0.00  0.00    +0.210 A 
ATOM      6  C   LIG    1       -2.573  11.583  -1.116  0.00  0.00    -0.110 A 
ATOM      7  C   LIG    1       -2.574  12.263   0.088  0.00  0.00    +0.130 A 
ATOM      8  C   LIG    1       -2.550  11.571   1.284  0.00  0.00    -0.110 A 
ATOM      9  C   LIG    1       -2.524  10.185   1.289  0.00  0.00    +0.210 A 
ATOM     10  C   LIG    1       -2.521   9.485   0.074  0.00  0.00    -0.200 A 
BRANCH   5  12
ATOM     11  C   LIG    1       -2.554  10.325  -3.506  0.00  0.00    +0.260 C 
ATOM     12  O   LIG    1       -2.533   9.533  -2.317  0.00  0.00    -0.310 OA
ENDBRANCH   5  12
BRANCH   9  13
ATOM     13  O   LIG    1       -2.501   9.509   2.464  0.00  0.00    -0.310 OA
ATOM     14  C   LIG    1       -2.505  10.288   3.662  0.00  0.00    +0.260 C 
ENDBRANCH   9  13
ENDBRANCH   1  10
BRANCH   2  15
ATOM     15  N   LIG    1       -1.286   5.962   0.044  0.00  0.00    -0.500 N 
ATOM     16  H   LIG    1       -2.116   5.460   0.050  0.00  0.00    +0.450 HD
ATOM     17  C   LIG    1       -0.106   5.311   0.030  0.00  0.00    +0.560 C 
ATOM     18  O   LIG    1        0.936   5.939   0.024  0.00  0.00    -0.520 OA
BRANCH  17  19
ATOM     19  C   LIG    1       -0.077   3.839   0.022  0.00  0.00    +0.090 A 
ATOM     20  C   LIG    1        1.130   3.175   0.008  0.00  0.00    +0.120 A 
ATOM     21  C   LIG    1        1.157   1.776   0.001  0.00  0.00    +0.100 A 
ATOM     22  C   LIG    1       -0.013   1.076   0.008  0.00  0.00    +0.100 A 
ATOM     23  C   LIG    1       -1.239   1.766   0.018  0.00  0.00    +0.280 A 
ATOM     24  N   LIG    1       -2.503   1.358   0.034  0.00  0.00    -0.530 NA
ATOM     25  C   LIG    1       -3.311   2.406   0.048  0.00  0.00    +0.490 A 
ATOM     26  N   LIG    1       -2.601   3.511   0.046  0.00  0.00    -0.350 NA
ATOM     27  N   LIG    1       -1.252   3.132   0.030  0.00  0.00    -0.280 N 
ENDBRANCH  17  19
ENDBRANCH   2  15
TORSDOF 5
