REMARK  Name = ZINCqH0000004CES.0
REMARK                            x       y       z     vdW  Elec       q    Type
REMARK                         _______ _______ _______ _____ _____    ______ ____
ROOT
ATOM      1  C   LIG    1        5.236   3.695   0.034  0.00  0.00    +0.310 C 
ENDROOT
BRANCH   1   2
ATOM      2  N   LIG    1        4.026   2.870   0.066  0.00  0.00    -0.550 N 
ATOM      3  C   LIG    1        4.163   1.541   0.178  0.00  0.00    +0.570 C 
ATOM      4  C   LIG    1        3.003   0.633   0.218  0.00  0.00    -0.140 A 
ATOM      5  C   LIG    1        3.174  -0.746   0.335  0.00  0.00    +0.100 A 
ATOM      6  C   LIG    1        2.068  -1.571   0.369  0.00  0.00    +0.010 A 
ATOM      7  C   LIG    1        0.794  -1.038   0.289  0.00  0.00    +0.060 A 
ATOM      8  C   LIG    1        0.616   0.331   0.173  0.00  0.00    +0.020 A 
ATOM      9  C   LIG    1        1.710   1.161   0.138  0.00  0.00    -0.040 A 
ATOM     10  C   LIG    1        1.562   2.659   0.011  0.00  0.00    +0.050 C 
ATOM     11  C   LIG    1        0.785   2.947  -1.275  0.00  0.00    +0.080 C 
ATOM     12  O   LIG    1        5.280   1.070   0.250  0.00  0.00    -0.490 OA
ATOM     13  C   LIG    1        2.832   3.482  -0.019  0.00  0.00    +0.540 C 
ATOM     14  O   LIG    1        2.773   4.688  -0.119  0.00  0.00    -0.480 OA
ENDBRANCH   1   2
BRANCH   1  15
ATOM     15  C   LIG    1        5.610   4.094   1.438  0.00  0.00    +0.390 C 
ATOM     16  O   LIG    1        4.932   3.725   2.374  0.00  0.00    -0.430 OA
BRANCH  15  21
ATOM     17  C   LIG    1        8.750   6.057   0.841  0.00  0.00    -0.100 A 
ATOM     18  C   LIG    1        9.032   6.506   2.119  0.00  0.00    +0.050 A 
ATOM     19  C   LIG    1        8.203   6.173   3.176  0.00  0.00    +0.000 A 
ATOM     20  C   LIG    1        7.089   5.389   2.963  0.00  0.00    -0.020 A 
ATOM     21  C   LIG    1        6.797   4.931   1.674  0.00  0.00    -0.160 A 
ATOM     22  C   LIG    1        7.642   5.268   0.612  0.00  0.00    +0.060 A 
BRANCH  17  24
ATOM     23  C   LIG    1       10.752   5.365  -0.448  0.00  0.00    +0.030 C 
ATOM     24  C   LIG    1        9.659   6.425  -0.304  0.00  0.00    +0.050 C 
ENDBRANCH  17  24
BRANCH  20  25
ATOM     25  C   LIG    1        6.189   5.027   4.116  0.00  0.00    +0.070 C 
ATOM     26  C   LIG    1        6.534   3.621   4.610  0.00  0.00    +0.030 C 
ENDBRANCH  20  25
ENDBRANCH  15  21
ENDBRANCH   1  15
TORSDOF 5
