REMARK  Name = ZINCrg00001fx4El.0
REMARK                            x       y       z     vdW  Elec       q    Type
REMARK                         _______ _______ _______ _____ _____    ______ ____
ROOT
ATOM      1  C   LIG    1        3.727  -0.608  -0.046  0.00  0.00    +0.110 C 
ATOM      2  C   LIG    1        2.397   0.098  -0.097  0.00  0.00    +0.090 A 
ATOM      3  C   LIG    1        2.331   1.479  -0.136  0.00  0.00    -0.060 A 
ATOM      4  C   LIG    1        1.084   2.095  -0.182  0.00  0.00    +0.370 A 
ATOM      5  N   LIG    1       -0.025   1.372  -0.187  0.00  0.00    -0.530 NA
ATOM      6  C   LIG    1        0.008   0.054  -0.150  0.00  0.00    +0.420 A 
ATOM      7  C   LIG    1        1.210  -0.623  -0.104  0.00  0.00    -0.770 A 
ENDROOT
BRANCH   4   8
ATOM      8  N   LIG    1        1.002   3.482  -0.222  0.00  0.00    -0.480 N 
ATOM      9  C   LIG    1        1.762   4.021  -1.357  0.00  0.00    +0.200 C 
ATOM     10  C   LIG    1        1.771   5.550  -1.287  0.00  0.00    +0.040 C 
ATOM     11  C   LIG    1        0.330   6.066  -1.322  0.00  0.00    +0.020 C 
ATOM     12  C   LIG    1       -0.452   5.452  -0.158  0.00  0.00    -0.010 C 
ATOM     13  C   LIG    1       -0.397   3.926  -0.261  0.00  0.00    +0.220 C 
BRANCH  12  14
ATOM     14  C   LIG    1       -1.909   5.917  -0.220  0.00  0.00    +0.030 C 
BRANCH  14  15
ATOM     15  C   LIG    1       -1.972   7.429   0.004  0.00  0.00    +0.180 C 
BRANCH  15  16
ATOM     16  O   LIG    1       -3.332   7.862  -0.054  0.00  0.00    -0.580 OA
ATOM     17  H   LIG    1       -3.448   8.813   0.080  0.00  0.00    +0.380 HD
ENDBRANCH  15  16
ENDBRANCH  14  15
ENDBRANCH  12  14
ENDBRANCH   4   8
BRANCH   7  18
ATOM     18  S   LIG    1        1.239  -2.384  -0.055  0.00  0.00    +2.700 S 
ATOM     19  O   LIG    1       -0.118  -2.807  -0.029  0.00  0.00    -0.950 OA
ATOM     20  O   LIG    1        2.183  -2.742   0.945  0.00  0.00    -0.940 OA
BRANCH  18  21
ATOM     21  N   LIG    1        1.864  -2.905  -1.497  0.00  0.00    -1.000 NA
ATOM     22  C   LIG    1        1.000  -3.054  -2.677  0.00  0.00    +0.310 C 
ATOM     23  C   LIG    1        1.617  -2.257  -3.837  0.00  0.00    +0.020 C 
ATOM     24  C   LIG    1        3.061  -2.716  -4.053  0.00  0.00    +0.160 C 
ATOM     25  C   LIG    1        3.880  -2.439  -2.790  0.00  0.00    +0.140 C 
ATOM     26  F   LIG    1        3.615  -2.017  -5.130  0.00  0.00    -0.210 F 
ATOM     27  C   LIG    1        3.291  -3.233  -1.620  0.00  0.00    +0.320 C 
BRANCH  25  28
ATOM     28  O   LIG    1        5.235  -2.840  -3.004  0.00  0.00    -0.550 OA
ATOM     29  H   LIG    1        5.672  -2.377  -3.732  0.00  0.00    +0.390 HD
ENDBRANCH  25  28
ENDBRANCH  18  21
ENDBRANCH   7  18
TORSDOF 7
