REMARK  Name = ZINCpe00000UmALr.0
REMARK                            x       y       z     vdW  Elec       q    Type
REMARK                         _______ _______ _______ _____ _____    ______ ____
ROOT
ATOM      1  N   LIG    1       -0.211   3.063   1.868  0.00  0.00    -0.520 NA
ATOM      2  C   LIG    1        0.697   4.179   2.132  0.00  0.00    +0.170 C 
ATOM      3  C   LIG    1        0.857   5.115   1.004  0.00  0.00    +0.020 C 
ATOM      4  C   LIG    1       -0.506   5.775   0.674  0.00  0.00    +0.270 C 
ATOM      5  N   LIG    1       -1.396   4.787   0.104  0.00  0.00    -0.590 N 
ATOM      6  C   LIG    1       -2.287   3.941   0.924  0.00  0.00    +0.270 C 
ATOM      7  C   LIG    1       -1.413   4.633  -1.235  0.00  0.00    +0.560 C 
ATOM      8  O   LIG    1       -2.017   3.702  -1.731  0.00  0.00    -0.520 OA
ATOM      9  C   LIG    1       -1.575   3.429   2.190  0.00  0.00    +0.170 C 
ENDROOT
BRANCH   7  10
ATOM     10  C   LIG    1       -0.698   5.595  -2.099  0.00  0.00    -0.130 A 
ATOM     11  C   LIG    1        0.657   5.858  -1.883  0.00  0.00    +0.070 A 
ATOM     12  C   LIG    1        1.326   6.757  -2.690  0.00  0.00    +0.010 A 
ATOM     13  C   LIG    1        0.663   7.401  -3.715  0.00  0.00    +0.060 A 
ATOM     14  C   LIG    1       -0.692   7.147  -3.943  0.00  0.00    -0.140 A 
ATOM     15  C   LIG    1       -1.372   6.238  -3.136  0.00  0.00    +0.130 A 
BRANCH  14  16
ATOM     16  C   LIG    1       -1.401   7.838  -5.041  0.00  0.00    +0.560 C 
ATOM     17  O   LIG    1       -2.580   7.616  -5.238  0.00  0.00    -0.530 OA
ATOM     18  N   LIG    1       -0.740   8.714  -5.824  0.00  0.00    -0.850 N 
ATOM     19  H   LIG    1       -1.205   9.167  -6.545  0.00  0.00    +0.410 HD
ATOM     20  H   LIG    1        0.200   8.891  -5.667  0.00  0.00    +0.400 HD
ENDBRANCH  14  16
ENDBRANCH   7  10
BRANCH   1  21
ATOM     21  C   LIG    1        0.201   1.862   2.606  0.00  0.00    +0.310 C 
BRANCH  21  27
ATOM     22  C   LIG    1       -2.176   1.482   4.557  0.00  0.00    +0.320 C 
ATOM     23  N   LIG    1       -1.910   0.666   3.369  0.00  0.00    -0.460 N 
ATOM     24  C   LIG    1       -2.660  -0.388   2.923  0.00  0.00    +0.130 A 
ATOM     25  C   LIG    1       -2.059  -0.851   1.810  0.00  0.00    +0.150 A 
ATOM     26  N   LIG    1       -0.975  -0.096   1.580  0.00  0.00    -0.460 NA
ATOM     27  C   LIG    1       -0.881   0.817   2.508  0.00  0.00    +0.200 A 
ENDBRANCH  21  27
ENDBRANCH   1  21
TORSDOF 4
