REMARK  Name = ZINCrD0000070WTA.0
REMARK                            x       y       z     vdW  Elec       q    Type
REMARK                         _______ _______ _______ _____ _____    ______ ____
ROOT
ATOM      1  C   LIG    1       -1.163   3.537   0.224  0.00  0.00    +0.200 A 
ATOM      2  C   LIG    1        0.038   4.185   0.226  0.00  0.00    +0.020 A 
ATOM      3  C   LIG    1        0.079   5.588   0.304  0.00  0.00    +0.000 A 
ATOM      4  C   LIG    1        1.304   6.277   0.303  0.00  0.00    +0.010 A 
ATOM      5  C   LIG    1        1.314   7.636   0.386  0.00  0.00    +0.040 A 
ATOM      6  C   LIG    1        0.126   8.358   0.474  0.00  0.00    +0.000 A 
ATOM      7  C   LIG    1       -1.080   7.727   0.477  0.00  0.00    +0.050 A 
ATOM      8  C   LIG    1       -1.131   6.324   0.393  0.00  0.00    -0.090 A 
ATOM      9  C   LIG    1       -2.358   5.644   0.395  0.00  0.00    +0.150 A 
ATOM     10  C   LIG    1       -2.373   4.261   0.311  0.00  0.00    -0.160 A 
ENDROOT
BRANCH   1  13
ATOM     11  C   LIG    1       -0.148  -0.026  -0.414  0.00  0.00    +0.110 C 
ATOM     12  C   LIG    1       -0.174   1.480  -0.436  0.00  0.00    +0.510 C 
ATOM     13  N   LIG    1       -1.195   2.145   0.140  0.00  0.00    -0.670 N 
ATOM     14  H   LIG    1       -1.953   1.656   0.497  0.00  0.00    +0.420 HD
ATOM     15  O   LIG    1        0.721   2.095  -0.977  0.00  0.00    -0.520 OA
ENDBRANCH   1  13
BRANCH  10  16
ATOM     16  C   LIG    1       -3.659   3.540   0.313  0.00  0.00    +0.520 C 
ATOM     17  O   LIG    1       -3.675   2.326   0.331  0.00  0.00    -0.520 OA
BRANCH  16  18
ATOM     18  O   LIG    1       -4.817   4.229   0.296  0.00  0.00    -0.320 OA
BRANCH  18  19
ATOM     19  C   LIG    1       -6.045   3.454   0.299  0.00  0.00    +0.250 C 
BRANCH  19  20
ATOM     20  C   LIG    1       -7.228   4.388   0.278  0.00  0.00    +0.520 C 
ATOM     21  N   LIG    1       -8.480   3.889   0.277  0.00  0.00    -0.610 N 
ATOM     22  C   LIG    1       -8.709   2.442   0.168  0.00  0.00    +0.260 C 
ATOM     23  C   LIG    1       -9.602   2.000   1.338  0.00  0.00    +0.010 C 
ATOM     24  C   LIG    1      -10.881   2.840   1.341  0.00  0.00    +0.020 C 
ATOM     25  C   LIG    1      -10.524   4.315   1.539  0.00  0.00    +0.020 C 
ATOM     26  C   LIG    1       -9.642   4.783   0.378  0.00  0.00    +0.230 C 
ATOM     27  C   LIG    1       -9.167   6.214   0.638  0.00  0.00    +0.050 C 
ATOM     28  O   LIG    1       -7.053   5.588   0.261  0.00  0.00    -0.510 OA
ENDBRANCH  19  20
ENDBRANCH  18  19
ENDBRANCH  16  18
ENDBRANCH  10  16
TORSDOF 5
