REMARK  Name = ZINCb70000002qVa.0
REMARK                            x       y       z     vdW  Elec       q    Type
REMARK                         _______ _______ _______ _____ _____    ______ ____
ROOT
ATOM      1  C   LIG    1       -3.915   2.658  -2.048  0.00  0.00    +0.070 C 
ATOM      2  C   LIG    1       -2.757   1.742  -2.449  0.00  0.00    +0.190 C 
ATOM      3  O   LIG    1       -3.257   0.621  -3.200  0.00  0.00    -0.360 OA
ATOM      4  C   LIG    1       -2.430  -0.515  -2.862  0.00  0.00    +0.240 C 
ATOM      5  C   LIG    1       -2.195  -0.354  -1.338  0.00  0.00    +0.000 C 
ATOM      6  C   LIG    1       -2.077   1.178  -1.193  0.00  0.00    +0.060 C 
ATOM      7  C   LIG    1       -2.808   1.641   0.063  0.00  0.00    +0.270 C 
ATOM      8  N   LIG    1       -2.124   1.109   1.251  0.00  0.00    -0.510 N 
ATOM      9  C   LIG    1       -0.732   1.581   1.266  0.00  0.00    +0.250 C 
ATOM     10  C   LIG    1       -0.013   1.086   0.008  0.00  0.00    +0.260 C 
ATOM     11  H   LIG    1       -2.138   0.100   1.223  0.00  0.00    +0.430 HD
ATOM     12  H   LIG    1       -2.597   1.429   2.083  0.00  0.00    +0.440 HD
ATOM     13  O   LIG    1       -0.707   1.561  -1.150  0.00  0.00    -0.340 OA
ENDROOT
TORSDOF 0
