REMARK  Name = ZINCpk000000p914.0
REMARK                            x       y       z     vdW  Elec       q    Type
REMARK                         _______ _______ _______ _____ _____    ______ ____
ROOT
ATOM      1  C   LIG    1       -0.018   1.503   0.010  0.00  0.00    +0.090 C 
ATOM      2  C   LIG    1        1.422   2.079  -0.000  0.00  0.00    +0.050 C 
ATOM      3  C   LIG    1        1.250   3.454   0.678  0.00  0.00    +0.240 C 
ATOM      4  N   LIG    1        0.021   3.393   1.483  0.00  0.00    -0.620 N 
ATOM      5  C   LIG    1       -0.490   4.403   2.215  0.00  0.00    +0.530 C 
ATOM      6  O   LIG    1       -1.514   4.239   2.842  0.00  0.00    -0.530 OA
ATOM      7  C   LIG    1       -0.559   2.043   1.357  0.00  0.00    +0.270 C 
ENDROOT
BRANCH   1  13
ATOM      8  C   LIG    1       -0.598  -0.838  -0.969  0.00  0.00    -0.280 A 
ATOM      9  C   LIG    1       -0.339  -2.143  -0.601  0.00  0.00    +0.340 A 
ATOM     10  N   LIG    1        0.371  -2.106   0.538  0.00  0.00    -0.450 N 
ATOM     11  H   LIG    1        0.692  -2.878   1.031  0.00  0.00    +0.450 HD
ATOM     12  N   LIG    1        0.571  -0.768   0.893  0.00  0.00    -0.280 NA
ATOM     13  C   LIG    1        0.002  -0.004   0.002  0.00  0.00    +0.150 A 
BRANCH   8  14
ATOM     14  C   LIG    1       -1.353  -0.396  -2.154  0.00  0.00    +0.540 C 
ATOM     15  O   LIG    1       -1.508   0.790  -2.369  0.00  0.00    -0.510 OA
BRANCH  14  16
ATOM     16  O   LIG    1       -1.872  -1.308  -3.000  0.00  0.00    -0.360 OA
BRANCH  16  18
ATOM     17  C   LIG    1       -3.114  -1.975  -4.986  0.00  0.00    +0.070 C 
ATOM     18  C   LIG    1       -2.604  -0.801  -4.147  0.00  0.00    +0.200 C 
ENDBRANCH  16  18
ENDBRANCH  14  16
ENDBRANCH   8  14
ENDBRANCH   1  13
BRANCH   5  19
ATOM     19  C   LIG    1        0.212   5.736   2.252  0.00  0.00    +0.150 C 
BRANCH  19  20
ATOM     20  C   LIG    1       -0.559   6.684   3.134  0.00  0.00    -0.220 A 
ATOM     21  C   LIG    1       -1.545   7.520   2.735  0.00  0.00    +0.110 A 
ATOM     22  N   LIG    1       -1.977   8.195   3.820  0.00  0.00    -0.470 N 
ATOM     23  H   LIG    1       -2.681   8.862   3.834  0.00  0.00    +0.440 HD
ATOM     24  N   LIG    1       -1.226   7.766   4.922  0.00  0.00    -0.300 NA
ATOM     25  C   LIG    1       -2.069   7.668   1.329  0.00  0.00    +0.130 C 
ATOM     26  C   LIG    1       -0.376   6.860   4.510  0.00  0.00    +0.090 A 
ATOM     27  C   LIG    1        0.626   6.133   5.369  0.00  0.00    +0.140 C 
ENDBRANCH  19  20
ENDBRANCH   5  19
TORSDOF 6
