REMARK  Name = ZINCpk000000p914.1
REMARK                            x       y       z     vdW  Elec       q    Type
REMARK                         _______ _______ _______ _____ _____    ______ ____
ROOT
ATOM      1  C   LIG    1        1.691   3.280   0.003  0.00  0.00    +0.080 C 
ATOM      2  C   LIG    1        1.015   4.066   1.158  0.00  0.00    +0.050 C 
ATOM      3  C   LIG    1        1.002   5.515   0.628  0.00  0.00    +0.260 C 
ATOM      4  N   LIG    1        1.101   5.445  -0.837  0.00  0.00    -0.620 N 
ATOM      5  C   LIG    1        1.143   6.502  -1.673  0.00  0.00    +0.530 C 
ATOM      6  O   LIG    1        1.226   6.326  -2.870  0.00  0.00    -0.520 OA
ATOM      7  C   LIG    1        1.149   4.028  -1.241  0.00  0.00    +0.270 C 
ENDROOT
BRANCH   1   9
ATOM      8  C   LIG    1        2.075   0.731  -0.014  0.00  0.00    -0.280 A 
ATOM      9  C   LIG    1        1.250   1.839   0.000  0.00  0.00    +0.180 A 
ATOM     10  N   LIG    1       -0.017   1.395   0.010  0.00  0.00    -0.450 N 
ATOM     11  H   LIG    1       -0.812   1.951   0.017  0.00  0.00    +0.450 HD
ATOM     12  N   LIG    1        0.002  -0.004   0.002  0.00  0.00    -0.290 NA
ATOM     13  C   LIG    1        1.242  -0.410  -0.012  0.00  0.00    +0.310 A 
BRANCH   8  14
ATOM     14  C   LIG    1        3.548   0.738  -0.027  0.00  0.00    +0.550 C 
ATOM     15  O   LIG    1        4.151   1.794  -0.027  0.00  0.00    -0.520 OA
BRANCH  14  16
ATOM     16  O   LIG    1        4.227  -0.425  -0.040  0.00  0.00    -0.350 OA
BRANCH  16  18
ATOM     17  C   LIG    1        6.268  -1.754  -0.067  0.00  0.00    +0.070 C 
ATOM     18  C   LIG    1        5.677  -0.343  -0.053  0.00  0.00    +0.200 C 
ENDBRANCH  16  18
ENDBRANCH  14  16
ENDBRANCH   8  14
ENDBRANCH   1   9
BRANCH   5  19
ATOM     19  C   LIG    1        1.085   7.903  -1.120  0.00  0.00    +0.150 C 
BRANCH  19  20
ATOM     20  C   LIG    1        1.147   8.893  -2.253  0.00  0.00    -0.230 A 
ATOM     21  C   LIG    1        2.271   9.437  -2.775  0.00  0.00    +0.110 A 
ATOM     22  N   LIG    1        1.902  10.269  -3.771  0.00  0.00    -0.470 N 
ATOM     23  H   LIG    1        2.499  10.796  -4.326  0.00  0.00    +0.440 HD
ATOM     24  N   LIG    1        0.504  10.243  -3.858  0.00  0.00    -0.290 NA
ATOM     25  C   LIG    1        3.683   9.159  -2.327  0.00  0.00    +0.130 C 
ATOM     26  C   LIG    1        0.053   9.418  -2.949  0.00  0.00    +0.090 A 
ATOM     27  C   LIG    1       -1.396   9.091  -2.693  0.00  0.00    +0.140 C 
ENDBRANCH  19  20
ENDBRANCH   5  19
TORSDOF 6
