REMARK  Name = ZINCrD00000l1mbG.0
REMARK                            x       y       z     vdW  Elec       q    Type
REMARK                         _______ _______ _______ _____ _____    ______ ____
ROOT
ATOM      1  C   LIG    1       -2.304  -0.426  -1.450  0.00  0.00    +0.200 C 
ENDROOT
BRANCH   1   2
ATOM      2  C   LIG    1       -1.735   0.916  -1.833  0.00  0.00    +0.270 A 
ATOM      3  N   LIG    1       -2.129   1.644  -2.828  0.00  0.00    -0.210 NA
ATOM      4  N   LIG    1       -1.349   2.809  -2.852  0.00  0.00    -0.480 N 
ATOM      5  H   LIG    1       -1.419   3.535  -3.491  0.00  0.00    +0.470 HD
ATOM      6  C   LIG    1       -0.482   2.732  -1.820  0.00  0.00    +0.470 A 
ATOM      7  S   LIG    1        0.697   3.900  -1.398  0.00  0.00    -0.570 S 
ATOM      8  N   LIG    1       -0.715   1.567  -1.183  0.00  0.00    -0.490 N 
BRANCH   8   9
ATOM      9  C   LIG    1        0.000   1.077  -0.003  0.00  0.00    +0.390 C 
BRANCH   9  10
ATOM     10  C   LIG    1       -0.698   1.557   1.243  0.00  0.00    -0.130 A 
ATOM     11  C   LIG    1       -0.336   2.761   1.817  0.00  0.00    +0.060 A 
ATOM     12  C   LIG    1       -0.980   3.204   2.958  0.00  0.00    +0.010 A 
ATOM     13  C   LIG    1       -1.978   2.438   3.530  0.00  0.00    +0.030 A 
ATOM     14  C   LIG    1       -2.335   1.231   2.959  0.00  0.00    +0.000 A 
ATOM     15  C   LIG    1       -1.695   0.790   1.816  0.00  0.00    +0.010 A 
ENDBRANCH   9  10
ENDBRANCH   8   9
ENDBRANCH   1   2
BRANCH   1  17
ATOM     16  O   LIG    1       -3.701  -0.045  -3.313  0.00  0.00    -0.480 OA
ATOM     17  C   LIG    1       -3.406  -0.797  -2.408  0.00  0.00    +0.510 C 
ATOM     18  N   LIG    1       -4.065  -1.963  -2.259  0.00  0.00    -0.670 N 
ATOM     19  H   LIG    1       -3.785  -2.594  -1.577  0.00  0.00    +0.410 HD
BRANCH  18  20
ATOM     20  C   LIG    1       -5.153  -2.264  -3.088  0.00  0.00    +0.120 A 
ATOM     21  C   LIG    1       -6.231  -2.980  -2.586  0.00  0.00    +0.030 A 
ATOM     22  C   LIG    1       -7.305  -3.273  -3.404  0.00  0.00    -0.030 A 
ATOM     23  C   LIG    1       -7.302  -2.861  -4.728  0.00  0.00    +0.090 A 
ATOM     24  C   LIG    1       -6.223  -2.150  -5.231  0.00  0.00    +0.020 A 
ATOM     25  C   LIG    1       -5.150  -1.852  -4.414  0.00  0.00    +0.070 A 
BRANCH  23  26
ATOM     26  O   LIG    1       -8.358  -3.155  -5.534  0.00  0.00    -0.320 OA
BRANCH  26  27
ATOM     27  C   LIG    1       -9.435  -3.890  -4.949  0.00  0.00    +0.590 C 
ATOM     28  F   LIG    1       -9.969  -3.163  -3.880  0.00  0.00    -0.200 F 
ATOM     29  F   LIG    1       -8.962  -5.122  -4.486  0.00  0.00    -0.200 F 
ENDBRANCH  26  27
ENDBRANCH  23  26
ENDBRANCH  18  20
ENDBRANCH   1  17
TORSDOF 7
