REMARK  Name = ZINCkj00000GeNZu.1
REMARK                            x       y       z     vdW  Elec       q    Type
REMARK                         _______ _______ _______ _____ _____    ______ ____
ROOT
ATOM      1  O   LIG    1       -0.309  -3.827  -0.845  0.00  0.00    -0.520 OA
ATOM      2  C   LIG    1       -0.275  -2.623  -0.702  0.00  0.00    +0.490 C 
ATOM      3  C   LIG    1       -1.317  -1.973   0.163  0.00  0.00    +0.290 C 
ATOM      4  O   LIG    1       -1.314  -0.553  -0.019  0.00  0.00    -0.350 OA
ATOM      5  C   LIG    1        0.002  -0.004   0.002  0.00  0.00    +0.140 C 
ATOM      6  C   LIG    1       -0.019   1.523   0.010  0.00  0.00    +0.110 C 
ATOM      7  C   LIG    1        1.428   2.029  -0.001  0.00  0.00    +0.220 C 
ATOM      8  N   LIG    1        2.135   1.521  -1.181  0.00  0.00    -0.470 NA
ATOM      9  C   LIG    1        2.175   0.050  -1.208  0.00  0.00    +0.240 C 
ATOM     10  C   LIG    1        0.743  -0.477  -1.252  0.00  0.00    +0.210 C 
ATOM     11  N   LIG    1        0.694  -1.931  -1.322  0.00  0.00    -0.720 N 
ATOM     12  H   LIG    1        1.373  -2.407  -1.825  0.00  0.00    +0.410 HD
ENDROOT
BRANCH   8  13
ATOM     13  C   LIG    1        3.418   2.056  -1.264  0.00  0.00    +0.290 C 
ATOM     14  C   LIG    1        3.921   2.877  -0.239  0.00  0.00    -0.250 C 
ATOM     15  S   LIG    1        3.188   3.416   1.265  0.00  0.00    +0.260 S 
ATOM     16  C   LIG    1        4.618   4.325   1.713  0.00  0.00    +0.050 C 
ATOM     17  C   LIG    1        5.565   4.209   0.800  0.00  0.00    +0.020 C 
ATOM     18  C   LIG    1        5.213   3.393  -0.348  0.00  0.00    +0.170 C 
ATOM     19  N   LIG    1        5.948   3.103  -1.440  0.00  0.00    -0.460 NA
ATOM     20  C   LIG    1        5.496   2.344  -2.409  0.00  0.00    +0.430 C 
ATOM     21  H   LIG    1        6.844   3.469  -1.511  0.00  0.00    +0.450 HD
ATOM     22  C   LIG    1        4.227   1.795  -2.362  0.00  0.00    +0.000 C 
ENDBRANCH   8  13
TORSDOF 1
