REMARK  Name = ZINCpk000005OThu.1
REMARK                            x       y       z     vdW  Elec       q    Type
REMARK                         _______ _______ _______ _____ _____    ______ ____
ROOT
ATOM      1  C   LIG    1        2.963   1.955   4.474  0.00  0.00    +0.150 C 
ATOM      2  C   LIG    1        1.516   2.063   4.066  0.00  0.00    +0.240 A 
ATOM      3  N   LIG    1        1.169   1.748   2.834  0.00  0.00    -0.530 NA
ATOM      4  C   LIG    1       -0.088   1.825   2.423  0.00  0.00    +0.420 A 
ATOM      5  C   LIG    1       -1.091   2.254   3.312  0.00  0.00    -0.300 A 
ATOM      6  C   LIG    1       -0.748   2.593   4.620  0.00  0.00    +0.100 A 
ATOM      7  C   LIG    1       -1.795   3.056   5.600  0.00  0.00    +0.130 C 
ATOM      8  C   LIG    1       -2.358   2.231   2.562  0.00  0.00    +0.570 A 
ATOM      9  N   LIG    1       -2.070   1.813   1.312  0.00  0.00    -0.510 N 
ATOM     10  H   LIG    1       -2.713   1.705   0.595  0.00  0.00    +0.440 HD
ATOM     11  O   LIG    1       -3.455   2.535   2.988  0.00  0.00    -0.510 OA
ATOM     12  N   LIG    1       -0.698   1.558   1.213  0.00  0.00    -0.400 N 
ATOM     13  C   LIG    1       -0.013   1.086   0.008  0.00  0.00    +0.360 C 
ATOM     14  C   LIG    1        0.582   2.492   4.993  0.00  0.00    -0.230 A 
ENDROOT
BRANCH  14  15
ATOM     15  C   LIG    1        1.008   2.847   6.394  0.00  0.00    +0.350 C 
BRANCH  15  16
ATOM     16  N   LIG    1        0.937   1.655   7.243  0.00  0.00    -0.720 N 
ATOM     17  H   LIG    1        0.647   0.809   6.867  0.00  0.00    +0.400 HD
ATOM     18  C   LIG    1        1.274   1.734   8.545  0.00  0.00    +0.600 C 
ATOM     19  O   LIG    1        1.638   2.795   9.016  0.00  0.00    -0.520 OA
BRANCH  18  20
ATOM     20  C   LIG    1        1.202   0.541   9.394  0.00  0.00    -0.270 A 
ATOM     21  C   LIG    1        1.515   0.496  10.717  0.00  0.00    +0.140 A 
ATOM     22  C   LIG    1        1.361  -0.760  11.290  0.00  0.00    -0.140 A 
ATOM     23  C   LIG    1        0.929  -1.704  10.433  0.00  0.00    -0.230 A 
ATOM     24  C   LIG    1        0.802  -3.025  11.177  0.00  0.00    +0.280 C 
ATOM     25  N   LIG    1        1.605  -2.861  12.407  0.00  0.00    -0.650 NA
ATOM     26  H   LIG    1        1.202  -3.378  13.174  0.00  0.00    +0.350 HD
ATOM     27  C   LIG    1        1.543  -1.406  12.660  0.00  0.00    +0.250 C 
ATOM     28  S   LIG    1        0.692  -1.054   8.867  0.00  0.00    +0.240 S 
ENDBRANCH  18  20
ENDBRANCH  15  16
ENDBRANCH  14  15
TORSDOF 3
