REMARK  Name = ZINCrD000000Crjx.0
REMARK                            x       y       z     vdW  Elec       q    Type
REMARK                         _______ _______ _______ _____ _____    ______ ____
ROOT
ATOM      1  O   LIG    1       -4.424   0.835   4.950  0.00  0.00    -0.470 OA
ATOM      2  C   LIG    1       -4.708   2.005   4.841  0.00  0.00    +0.480 C 
ENDROOT
BRANCH   2   3
ATOM      3  C   LIG    1       -4.065   2.838   3.763  0.00  0.00    +0.260 C 
BRANCH   3   4
ATOM      4  C   LIG    1       -3.206   3.902   4.395  0.00  0.00    -0.130 A 
ATOM      5  C   LIG    1       -1.907   3.611   4.766  0.00  0.00    +0.050 A 
ATOM      6  C   LIG    1       -1.117   4.588   5.343  0.00  0.00    +0.010 A 
ATOM      7  C   LIG    1       -1.629   5.854   5.556  0.00  0.00    +0.020 A 
ATOM      8  C   LIG    1       -2.930   6.144   5.189  0.00  0.00    +0.010 A 
ATOM      9  C   LIG    1       -3.718   5.168   4.609  0.00  0.00    +0.030 A 
ENDBRANCH   3   4
BRANCH   3  10
ATOM     10  O   LIG    1       -3.256   2.002   2.933  0.00  0.00    -0.350 OA
BRANCH  10  11
ATOM     11  C   LIG    1       -3.154   2.450   1.580  0.00  0.00    +0.190 C 
BRANCH  11  12
ATOM     12  C   LIG    1       -2.268   1.485   0.789  0.00  0.00    +0.000 C 
ATOM     13  C   LIG    1       -0.789   1.611   1.242  0.00  0.00    +0.030 C 
ATOM     14  C   LIG    1       -0.013   1.086   0.008  0.00  0.00    +0.010 C 
ATOM     15  C   LIG    1       -0.809   1.622  -1.200  0.00  0.00    +0.000 C 
ATOM     16  C   LIG    1       -2.243   1.875  -0.703  0.00  0.00    +0.020 C 
ENDBRANCH  11  12
ENDBRANCH  10  11
ENDBRANCH   3  10
ENDBRANCH   2   3
BRANCH   2  17
ATOM     17  O   LIG    1       -5.595   2.561   5.681  0.00  0.00    -0.360 OA
BRANCH  17  18
ATOM     18  C   LIG    1       -6.173   1.698   6.695  0.00  0.00    +0.390 C 
BRANCH  18  19
ATOM     19  C   LIG    1       -7.139   2.491   7.538  0.00  0.00    +0.300 A 
ATOM     20  N   LIG    1       -7.825   2.013   8.535  0.00  0.00    -0.450 NA
ATOM     21  C   LIG    1       -8.591   2.996   9.069  0.00  0.00    -0.050 A 
ATOM     22  C   LIG    1       -9.502   3.068  10.123  0.00  0.00    +0.410 A 
ATOM     23  N   LIG    1      -10.086   4.228  10.376  0.00  0.00    -0.520 NA
ATOM     24  C   LIG    1       -9.822   5.302   9.654  0.00  0.00    +0.530 A 
ATOM     25  N   LIG    1       -8.971   5.285   8.650  0.00  0.00    -0.510 NA
ATOM     26  C   LIG    1       -8.338   4.166   8.324  0.00  0.00    +0.280 A 
ATOM     27  N   LIG    1       -7.416   3.815   7.371  0.00  0.00    -0.560 N 
ATOM     28  H   LIG    1       -7.032   4.401   6.700  0.00  0.00    +0.440 HD
ENDBRANCH  18  19
ENDBRANCH  17  18
ENDBRANCH   2  17
TORSDOF 8
