REMARK  Name = ZINCnE00000rhnkR.0
REMARK                            x       y       z     vdW  Elec       q    Type
REMARK                         _______ _______ _______ _____ _____    ______ ____
ROOT
ATOM      1  C   LIG    1        4.619   0.568  -0.039  0.00  0.00    +0.110 A 
ATOM      2  N   LIG    1        3.687  -0.329  -0.035  0.00  0.00    -0.430 NA
ATOM      3  C   LIG    1        2.412   0.093  -0.021  0.00  0.00    +0.010 A 
ATOM      4  C   LIG    1        1.227  -0.670  -0.013  0.00  0.00    +0.170 A 
ATOM      5  C   LIG    1        0.002  -0.004   0.002  0.00  0.00    -0.170 A 
ATOM      6  C   LIG    1       -0.017   1.397   0.010  0.00  0.00    +0.360 A 
ATOM      7  N   LIG    1        1.101   2.082   0.003  0.00  0.00    -0.470 NA
ATOM      8  C   LIG    1        2.296   1.493  -0.012  0.00  0.00    +0.030 A 
ATOM      9  S   LIG    1        3.919   2.181  -0.024  0.00  0.00    +0.090 S 
ENDROOT
BRANCH   5  10
ATOM     10  C   LIG    1       -1.259  -0.765   0.011  0.00  0.00    +0.530 C 
ATOM     11  O   LIG    1       -1.235  -1.988   0.004  0.00  0.00    -0.680 OA
ATOM     12  O   LIG    1       -2.330  -0.175   0.024  0.00  0.00    -0.670 OA
ENDBRANCH   5  10
BRANCH   1  14
ATOM     13  C   LIG    1        6.947   1.295  -0.058  0.00  0.00    +0.070 C 
ATOM     14  C   LIG    1        6.055   0.281  -0.054  0.00  0.00    +0.090 C 
BRANCH  13  16
ATOM     15  C   LIG    1        9.322   1.546  -0.935  0.00  0.00    -0.200 A 
ATOM     16  C   LIG    1        8.384   1.007  -0.073  0.00  0.00    +0.110 A 
ATOM     17  N   LIG    1        9.050   0.150   0.757  0.00  0.00    -0.360 N 
ATOM     18  N   LIG    1       10.404   0.175   0.399  0.00  0.00    -0.290 NA
ATOM     19  C   LIG    1        8.456  -0.651   1.830  0.00  0.00    +0.360 C 
ATOM     20  C   LIG    1       10.561   1.005  -0.602  0.00  0.00    +0.230 A 
BRANCH  15  22
ATOM     21  C   LIG    1        9.857   3.816  -1.777  0.00  0.00    +0.020 C 
ATOM     22  C   LIG    1        9.052   2.541  -2.034  0.00  0.00    +0.060 C 
ATOM     23  C   LIG    1        9.464   1.939  -3.379  0.00  0.00    +0.020 C 
ENDBRANCH  15  22
ENDBRANCH  13  16
ENDBRANCH   1  14
TORSDOF 4
