REMARK  Name = ZINCvU000000071u.0
REMARK                            x       y       z     vdW  Elec       q    Type
REMARK                         _______ _______ _______ _____ _____    ______ ____
ROOT
ATOM      1  C   LIG    1       -0.556  10.553  -0.818  0.00  0.00    +0.100 C 
ENDROOT
BRANCH   1   2
ATOM      2  C   LIG    1       -0.790   9.173  -1.377  0.00  0.00    +0.440 C 
ATOM      3  O   LIG    1       -1.299   9.039  -2.470  0.00  0.00    -0.480 OA
BRANCH   2   4
ATOM      4  C   LIG    1       -0.403   7.993  -0.600  0.00  0.00    -0.260 A 
ATOM      5  C   LIG    1       -0.550   6.669  -0.969  0.00  0.00    +0.120 A 
ATOM      6  N   LIG    1       -0.067   5.900   0.026  0.00  0.00    -0.390 N 
ATOM      7  C   LIG    1        0.391   6.681   1.051  0.00  0.00    +0.010 A 
ATOM      8  C   LIG    1        0.995   6.172   2.334  0.00  0.00    +0.130 C 
ATOM      9  C   LIG    1       -1.145   6.171  -2.261  0.00  0.00    +0.150 C 
ATOM     10  C   LIG    1        0.221   7.974   0.730  0.00  0.00    +0.010 A 
BRANCH   6  11
ATOM     11  C   LIG    1       -0.044   4.499   0.016  0.00  0.00    +0.110 A 
ATOM     12  C   LIG    1        1.169   3.823   0.009  0.00  0.00    +0.050 A 
ATOM     13  C   LIG    1        1.189   2.442  -0.001  0.00  0.00    +0.050 A 
ATOM     14  C   LIG    1        0.002   1.732  -0.003  0.00  0.00    -0.030 A 
ATOM     15  C   LIG    1       -1.208   2.403  -0.001  0.00  0.00    +0.050 A 
ATOM     16 CL   LIG    1        0.031  -0.004  -0.016  0.00  0.00    -0.050 Cl
ATOM     17  C   LIG    1       -1.234   3.784   0.014  0.00  0.00    +0.050 A 
ENDBRANCH   6  11
ENDBRANCH   2   4
ENDBRANCH   1   2
BRANCH   1  18
ATOM     18  C   LIG    1       -1.046  11.599  -1.821  0.00  0.00    -0.010 C 
BRANCH  18  19
ATOM     19  C   LIG    1       -0.925  12.973  -1.213  0.00  0.00    +0.530 C 
ATOM     20  N   LIG    1       -1.301  14.057  -1.919  0.00  0.00    -0.670 N 
ATOM     21  H   LIG    1       -1.586  13.961  -2.841  0.00  0.00    +0.410 HD
ATOM     22  O   LIG    1       -0.490  13.102  -0.088  0.00  0.00    -0.500 OA
BRANCH  20  23
ATOM     23  C   LIG    1       -1.280  15.323  -1.321  0.00  0.00    +0.150 A 
ATOM     24  C   LIG    1       -2.243  16.266  -1.655  0.00  0.00    +0.010 A 
ATOM     25  C   LIG    1       -2.223  17.512  -1.061  0.00  0.00    +0.050 A 
ATOM     26  C   LIG    1       -1.238  17.826  -0.141  0.00  0.00    -0.050 A 
ATOM     27  C   LIG    1       -0.274  16.890   0.190  0.00  0.00    +0.050 A 
ATOM     28 CL   LIG    1       -1.212  19.395   0.600  0.00  0.00    -0.070 Cl
ATOM     29  C   LIG    1       -0.292  15.640  -0.398  0.00  0.00    +0.040 A 
ENDBRANCH  20  23
ENDBRANCH  18  19
BRANCH  18  31
ATOM     30  C   LIG    1       -0.774  12.001  -4.385  0.00  0.00    +0.080 C 
ATOM     31  C   LIG    1       -0.208  11.528  -3.071  0.00  0.00    +0.370 C 
ATOM     32  O   LIG    1        0.917  11.091  -3.020  0.00  0.00    -0.440 OA
ENDBRANCH  18  31
ENDBRANCH   1  18
TORSDOF 7
