REMARK  Name = ZINCpk00000y6wVM.0
REMARK                            x       y       z     vdW  Elec       q    Type
REMARK                         _______ _______ _______ _____ _____    ______ ____
ROOT
ATOM      1  C   LIG    1        3.078   2.722   4.539  0.00  0.00    +0.600 C 
ATOM      2  N   LIG    1        1.967   3.067   3.858  0.00  0.00    -0.610 N 
ATOM      3  C   LIG    1        0.840   3.686   4.559  0.00  0.00    +0.280 C 
ATOM      4  O   LIG    1        4.058   2.318   3.941  0.00  0.00    -0.530 OA
ENDROOT
BRANCH   1   9
ATOM      5  C   LIG    1        7.902   1.968   7.362  0.00  0.00    +0.110 C 
ATOM      6  C   LIG    1        6.450   2.284   7.615  0.00  0.00    -0.040 A 
ATOM      7  C   LIG    1        5.574   2.378   6.573  0.00  0.00    +0.050 A 
ATOM      8  C   LIG    1        4.230   2.673   6.833  0.00  0.00    +0.170 A 
ATOM      9  C   LIG    1        3.105   2.835   6.000  0.00  0.00    -0.320 A 
ATOM     10  C   LIG    1        2.017   3.130   6.838  0.00  0.00    +0.310 A 
ATOM     11  N   LIG    1        2.431   3.141   8.078  0.00  0.00    -0.320 NA
ATOM     12  N   LIG    1        3.804   2.864   8.117  0.00  0.00    -0.270 N 
ATOM     13  C   LIG    1        4.686   2.768   9.151  0.00  0.00    +0.280 A 
ATOM     14  C   LIG    1        5.987   2.484   8.923  0.00  0.00    +0.000 A 
ENDBRANCH   1   9
BRANCH   2  15
ATOM     15  C   LIG    1        1.887   2.821   2.416  0.00  0.00    +0.290 C 
BRANCH  15  16
ATOM     16  C   LIG    1        2.419   4.042   1.661  0.00  0.00    +0.150 C 
ATOM     17  O   LIG    1        3.830   4.184   1.895  0.00  0.00    -0.340 OA
ATOM     18  C   LIG    1        4.407   4.710   0.681  0.00  0.00    +0.210 C 
ATOM     19  C   LIG    1        3.653   3.948  -0.441  0.00  0.00    +0.010 C 
ATOM     20  C   LIG    1        2.224   3.846   0.145  0.00  0.00    +0.090 C 
BRANCH  20  21
ATOM     21  C   LIG    1        1.633   2.489  -0.140  0.00  0.00    +0.190 A 
ATOM     22  N   LIG    1        0.371   2.221  -0.338  0.00  0.00    -0.290 NA
ATOM     23  N   LIG    1        0.224   0.962  -0.554  0.00  0.00    -0.290 NA
ATOM     24  C   LIG    1        1.386   0.369  -0.503  0.00  0.00    +0.380 A 
ATOM     25  N   LIG    1        2.313   1.322  -0.239  0.00  0.00    -0.580 N 
ATOM     26  H   LIG    1        3.270   1.194  -0.141  0.00  0.00    +0.430 HD
ENDBRANCH  20  21
ENDBRANCH  15  16
ENDBRANCH   2  15
TORSDOF 4
