REMARK  Name = ZINCpk00000y6wVM.1
REMARK                            x       y       z     vdW  Elec       q    Type
REMARK                         _______ _______ _______ _____ _____    ______ ____
ROOT
ATOM      1  C   LIG    1       -2.077   4.354   3.675  0.00  0.00    +0.600 C 
ATOM      2  N   LIG    1       -2.385   3.247   2.971  0.00  0.00    -0.610 N 
ATOM      3  C   LIG    1       -2.610   1.976   3.665  0.00  0.00    +0.290 C 
ATOM      4  O   LIG    1       -1.812   5.390   3.095  0.00  0.00    -0.550 OA
ENDROOT
BRANCH   1   9
ATOM      5  C   LIG    1       -3.760   8.820   6.680  0.00  0.00    +0.120 C 
ATOM      6  C   LIG    1       -3.233   7.422   6.881  0.00  0.00    -0.040 A 
ATOM      7  C   LIG    1       -2.937   6.637   5.804  0.00  0.00    +0.030 A 
ATOM      8  C   LIG    1       -2.449   5.341   6.016  0.00  0.00    +0.170 A 
ATOM      9  C   LIG    1       -2.060   4.309   5.140  0.00  0.00    -0.310 A 
ATOM     10  C   LIG    1       -1.658   3.225   5.941  0.00  0.00    +0.320 A 
ATOM     11  N   LIG    1       -1.781   3.564   7.198  0.00  0.00    -0.320 NA
ATOM     12  N   LIG    1       -2.273   4.872   7.287  0.00  0.00    -0.270 N 
ATOM     13  C   LIG    1       -2.572   5.663   8.355  0.00  0.00    +0.290 A 
ATOM     14  C   LIG    1       -3.044   6.917   8.174  0.00  0.00    +0.000 A 
ENDBRANCH   1   9
BRANCH   2  15
ATOM     15  C   LIG    1       -2.494   3.314   1.512  0.00  0.00    +0.320 C 
BRANCH  15  16
ATOM     16  C   LIG    1       -1.130   3.023   0.884  0.00  0.00    +0.160 C 
ATOM     17  O   LIG    1       -0.759   1.655   1.128  0.00  0.00    -0.360 OA
ATOM     18  C   LIG    1       -0.023   1.206  -0.030  0.00  0.00    +0.210 C 
ATOM     19  C   LIG    1       -0.792   1.837  -1.219  0.00  0.00    +0.040 C 
ATOM     20  C   LIG    1       -1.204   3.214  -0.643  0.00  0.00    +0.080 C 
BRANCH  20  21
ATOM     21  C   LIG    1       -2.608   3.564  -1.066  0.00  0.00    +0.240 A 
ATOM     22  N   LIG    1       -2.955   4.626  -1.744  0.00  0.00    -0.310 NA
ATOM     23  N   LIG    1       -4.346   4.558  -1.921  0.00  0.00    -0.480 N 
ATOM     24  H   LIG    1       -4.906   5.201  -2.384  0.00  0.00    +0.440 HD
ATOM     25  C   LIG    1       -4.750   3.426  -1.319  0.00  0.00    +0.480 A 
ATOM     26  N   LIG    1       -3.696   2.836  -0.815  0.00  0.00    -0.540 NA
ENDBRANCH  20  21
ENDBRANCH  15  16
ENDBRANCH   2  15
TORSDOF 4
