REMARK  Name = ZINCpe000000VaUX.0
REMARK                            x       y       z     vdW  Elec       q    Type
REMARK                         _______ _______ _______ _____ _____    ______ ____
ROOT
ATOM      1  C   LIG    1       -2.111   1.128  -1.326  0.00  0.00    +0.280 C 
ATOM      2  C   LIG    1       -2.724   1.282   0.039  0.00  0.00    +0.520 C 
ATOM      3  N   LIG    1       -2.000   1.477   1.143  0.00  0.00    -0.710 N 
ATOM      4  H   LIG    1       -2.470   1.502   1.991  0.00  0.00    +0.400 HD
ATOM      5  C   LIG    1       -0.554   1.654   1.164  0.00  0.00    +0.270 C 
ATOM      6  C   LIG    1        0.082   1.069  -0.099  0.00  0.00    +0.290 C 
ATOM      7  O   LIG    1       -3.931   1.226   0.141  0.00  0.00    -0.540 OA
ATOM      8  N   LIG    1       -0.697   1.528  -1.261  0.00  0.00    -0.600 N 
ATOM      9  C   LIG    1       -0.137   2.284  -2.226  0.00  0.00    +0.560 C 
ATOM     10  O   LIG    1       -0.770   2.562  -3.223  0.00  0.00    -0.530 OA
ENDROOT
BRANCH   1  11
ATOM     11  C   LIG    1       -2.851   2.022  -2.323  0.00  0.00    +0.150 C 
BRANCH  11  12
ATOM     12  C   LIG    1       -2.701   3.464  -1.912  0.00  0.00    +0.480 C 
ATOM     13  O   LIG    1       -2.004   3.755  -0.969  0.00  0.00    -0.520 OA
BRANCH  12  15
ATOM     14  C   LIG    1       -3.153   5.793  -2.143  0.00  0.00    +0.260 C 
ATOM     15  O   LIG    1       -3.343   4.426  -2.594  0.00  0.00    -0.350 OA
ENDBRANCH  12  15
ENDBRANCH  11  12
ENDBRANCH   1  11
BRANCH   9  16
ATOM     16  C   LIG    1        1.276   2.784  -2.068  0.00  0.00    +0.100 C 
BRANCH  16  17
ATOM     17  S   LIG    1        1.736   3.762  -3.519  0.00  0.00    +0.150 S 
BRANCH  17  18
ATOM     18  C   LIG    1        3.384   4.206  -3.079  0.00  0.00    +0.200 A 
ATOM     19  N   LIG    1        3.983   3.858  -1.968  0.00  0.00    -0.490 NA
ATOM     20  C   LIG    1        5.242   4.375  -1.971  0.00  0.00    +0.030 A 
ATOM     21  C   LIG    1        6.306   4.327  -1.069  0.00  0.00    +0.080 A 
ATOM     22  C   LIG    1        7.484   4.976  -1.366  0.00  0.00    +0.030 A 
ATOM     23  C   LIG    1        7.618   5.676  -2.555  0.00  0.00    +0.050 A 
ATOM     24  C   LIG    1        6.573   5.732  -3.456  0.00  0.00    +0.050 A 
ATOM     25  C   LIG    1        5.382   5.085  -3.173  0.00  0.00    +0.010 A 
ATOM     26  O   LIG    1        4.208   4.956  -3.832  0.00  0.00    -0.190 OA
ENDBRANCH  17  18
ENDBRANCH  16  17
ENDBRANCH   9  16
TORSDOF 6
