REMARK  Name = ZINCrg000000pmwI.0
REMARK                            x       y       z     vdW  Elec       q    Type
REMARK                         _______ _______ _______ _____ _____    ______ ____
ROOT
ATOM      1  C   LIG    1       -0.194   0.532   0.670  0.00  0.00    +0.570 C 
ATOM      2  N   LIG    1        0.113  -0.711   0.247  0.00  0.00    -0.610 N 
ATOM      3  C   LIG    1       -0.929  -1.742   0.138  0.00  0.00    +0.260 C 
ATOM      4  C   LIG    1       -0.915  -2.295  -1.298  0.00  0.00    +0.270 C 
ATOM      5  N   LIG    1        0.468  -2.645  -1.651  0.00  0.00    -0.610 N 
ATOM      6  C   LIG    1        1.510  -1.616  -1.536  0.00  0.00    +0.290 C 
ATOM      7  C   LIG    1        0.774  -3.888  -2.073  0.00  0.00    +0.610 C 
ATOM      8  O   LIG    1        1.937  -4.202  -2.245  0.00  0.00    -0.510 OA
ATOM      9  C   LIG    1        1.496  -1.061  -0.106  0.00  0.00    +0.290 C 
ATOM     10  O   LIG    1        0.693   1.331   0.902  0.00  0.00    -0.520 OA
ENDROOT
BRANCH   1  15
ATOM     11  C   LIG    1       -3.858   1.026   0.013  0.00  0.00    -0.690 A 
ATOM     12  C   LIG    1       -4.257   1.661   1.176  0.00  0.00    +0.150 A 
ATOM     13  C   LIG    1       -3.338   1.929   2.175  0.00  0.00    +0.000 A 
ATOM     14  C   LIG    1       -2.018   1.560   2.020  0.00  0.00    +0.020 A 
ATOM     15  C   LIG    1       -1.608   0.925   0.846  0.00  0.00    -0.150 A 
ATOM     16  C   LIG    1       -1.020   1.848   3.111  0.00  0.00    +0.110 C 
ATOM     17  C   LIG    1       -2.540   0.657  -0.157  0.00  0.00    +0.150 A 
BRANCH  11  18
ATOM     18  S   LIG    1       -5.037   0.689  -1.252  0.00  0.00    +2.700 S 
ATOM     19  O   LIG    1       -4.303   0.572  -2.463  0.00  0.00    -0.950 OA
ATOM     20  O   LIG    1       -6.096   1.619  -1.073  0.00  0.00    -0.950 OA
BRANCH  18  22
ATOM     21  C   LIG    1       -6.467  -1.033   0.266  0.00  0.00    +0.300 C 
ATOM     22  N   LIG    1       -5.672  -0.809  -0.945  0.00  0.00    -1.120 NA
ATOM     23  H   LIG    1       -5.518  -1.538  -1.565  0.00  0.00    +0.420 HD
ENDBRANCH  18  22
ENDBRANCH  11  18
ENDBRANCH   1  15
BRANCH   7  24
ATOM     24  C   LIG    1       -0.294  -4.861  -2.325  0.00  0.00    -0.090 A 
ATOM     25  C   LIG    1       -0.121  -6.179  -2.636  0.00  0.00    +0.050 A 
ATOM     26  C   LIG    1       -1.403  -6.729  -2.789  0.00  0.00    -0.060 A 
ATOM     27  C   LIG    1       -2.291  -5.733  -2.575  0.00  0.00    +0.200 A 
ATOM     28  O   LIG    1       -1.619  -4.609  -2.296  0.00  0.00    -0.160 OA
ENDBRANCH   7  24
TORSDOF 4
