REMARK  Name = ZINCvU0000000FA9.0
REMARK                            x       y       z     vdW  Elec       q    Type
REMARK                         _______ _______ _______ _____ _____    ______ ____
ROOT
ATOM      1  C   LIG    1       -0.176   5.884  -1.269  0.00  0.00    +0.290 C 
ENDROOT
BRANCH   1   4
ATOM      2  N   LIG    1        1.089   7.968  -0.853  0.00  0.00    -0.670 N 
ATOM      3  H   LIG    1        1.815   7.424  -0.508  0.00  0.00    +0.410 HD
ATOM      4  C   LIG    1       -0.060   7.386  -1.250  0.00  0.00    +0.510 C 
ATOM      5  O   LIG    1       -1.000   8.072  -1.591  0.00  0.00    -0.510 OA
BRANCH   2   9
ATOM      6  C   LIG    1        1.528  12.107  -1.111  0.00  0.00    -0.040 A 
ATOM      7  C   LIG    1        2.143  11.403  -0.077  0.00  0.00    +0.080 A 
ATOM      8  C   LIG    1        1.996  10.034   0.006  0.00  0.00    -0.010 A 
ATOM      9  C   LIG    1        1.236   9.357  -0.940  0.00  0.00    +0.150 A 
ATOM     10  C   LIG    1        0.627  10.056  -1.975  0.00  0.00    +0.020 A 
ATOM     11  C   LIG    1        0.766  11.425  -2.059  0.00  0.00    +0.050 A 
BRANCH   6  15
ATOM     12  C   LIG    1        3.210  16.520   0.358  0.00  0.00    +0.180 C 
ATOM     13  C   LIG    1        2.454  15.558  -0.521  0.00  0.00    +0.050 A 
ATOM     14  N   LIG    1        2.391  14.285  -0.332  0.00  0.00    -0.470 NA
ATOM     15  C   LIG    1        1.684  13.579  -1.203  0.00  0.00    +0.110 A 
ATOM     16  C   LIG    1        1.116  14.318  -2.178  0.00  0.00    -0.080 A 
ATOM     17  S   LIG    1        1.557  16.002  -1.906  0.00  0.00    +0.130 S 
ENDBRANCH   6  15
ENDBRANCH   2   9
ENDBRANCH   1   4
BRANCH   1  18
ATOM     18  N   LIG    1       -1.512   5.503  -1.734  0.00  0.00    -0.700 N 
ATOM     19  H   LIG    1       -2.256   6.117  -1.628  0.00  0.00    +0.410 HD
ATOM     20  C   LIG    1       -1.708   4.300  -2.308  0.00  0.00    +0.660 C 
ATOM     21  O   LIG    1       -0.777   3.531  -2.441  0.00  0.00    -0.550 OA
BRANCH  20  22
ATOM     22  O   LIG    1       -2.936   3.950  -2.736  0.00  0.00    -0.360 OA
BRANCH  22  23
ATOM     23  C   LIG    1       -3.074   2.640  -3.345  0.00  0.00    +0.140 C 
ATOM     24  C   LIG    1       -2.170   2.552  -4.576  0.00  0.00    +0.040 C 
ATOM     25  C   LIG    1       -4.529   2.422  -3.764  0.00  0.00    +0.080 C 
ATOM     26  C   LIG    1       -2.668   1.563  -2.336  0.00  0.00    +0.040 C 
ENDBRANCH  22  23
ENDBRANCH  20  22
ENDBRANCH   1  18
BRANCH   1  27
ATOM     27  C   LIG    1        0.048   5.337   0.143  0.00  0.00    +0.090 C 
BRANCH  27  28
ATOM     28  C   LIG    1        0.053   3.831   0.103  0.00  0.00    -0.070 A 
ATOM     29  C   LIG    1        1.239   3.149  -0.100  0.00  0.00    +0.020 A 
ATOM     30  C   LIG    1        1.244   1.767  -0.135  0.00  0.00    +0.010 A 
ATOM     31  C   LIG    1        0.064   1.067   0.032  0.00  0.00    +0.000 A 
ATOM     32  C   LIG    1       -1.122   1.748   0.228  0.00  0.00    +0.010 A 
ATOM     33  C   LIG    1       -1.127   3.130   0.269  0.00  0.00    +0.000 A 
ENDBRANCH  27  28
ENDBRANCH   1  27
TORSDOF 8
