REMARK  Name = ZINCAx0000000d7C.0
REMARK                            x       y       z     vdW  Elec       q    Type
REMARK                         _______ _______ _______ _____ _____    ______ ____
ROOT
ATOM      1  C   LIG    1       -2.141  -6.513   0.092  0.00  0.00    +0.520 C 
ATOM      2  N   LIG    1       -1.230  -6.517   1.085  0.00  0.00    -0.670 N 
ATOM      3  H   LIG    1       -0.765  -7.338   1.313  0.00  0.00    +0.420 HD
ATOM      4  O   LIG    1       -2.651  -5.470  -0.258  0.00  0.00    -0.490 OA
ENDROOT
BRANCH   2   5
ATOM      5  C   LIG    1       -0.954  -5.339   1.786  0.00  0.00    +0.210 A 
ATOM      6  C   LIG    1       -1.960  -4.407   2.006  0.00  0.00    -0.010 A 
ATOM      7  C   LIG    1       -1.684  -3.245   2.698  0.00  0.00    +0.140 A 
ATOM      8  C   LIG    1       -0.407  -3.007   3.173  0.00  0.00    -0.690 A 
ATOM      9  C   LIG    1        0.598  -3.930   2.951  0.00  0.00    +0.190 A 
ATOM     10  C   LIG    1        0.328  -5.097   2.264  0.00  0.00    -0.030 A 
BRANCH   8  11
ATOM     11  S   LIG    1       -0.059  -1.522   4.055  0.00  0.00    +2.690 S 
ATOM     12  O   LIG    1        1.337  -1.295   3.923  0.00  0.00    -0.920 OA
ATOM     13  O   LIG    1       -1.042  -0.577   3.654  0.00  0.00    -0.950 OA
BRANCH  11  14
ATOM     14  N   LIG    1       -0.334  -1.829   5.659  0.00  0.00    -1.030 N 
ATOM     15  H   LIG    1       -1.047  -1.367   6.126  0.00  0.00    +0.430 HD
BRANCH  14  16
ATOM     16  C   LIG    1        0.447  -2.736   6.326  0.00  0.00    +0.400 C 
ATOM     17  N   LIG    1        1.386  -3.343   5.706  0.00  0.00    -0.580 NA
ATOM     18  C   LIG    1        2.233  -4.322   6.405  0.00  0.00    +0.220 C 
ATOM     19  C   LIG    1        3.176  -3.572   7.348  0.00  0.00    +0.000 C 
ATOM     20  C   LIG    1        2.511  -3.329   8.692  0.00  0.00    +0.000 C 
ATOM     21  C   LIG    1        1.322  -2.385   8.611  0.00  0.00    +0.030 C 
ATOM     22  C   LIG    1        0.192  -3.013   7.792  0.00  0.00    +0.070 C 
ENDBRANCH  14  16
ENDBRANCH  11  14
ENDBRANCH   8  11
ENDBRANCH   2   5
BRANCH   1  23
ATOM     23  C   LIG    1       -2.525  -7.804  -0.584  0.00  0.00    +0.270 C 
BRANCH  23  24
ATOM     24  O   LIG    1       -3.516  -7.536  -1.611  0.00  0.00    -0.330 OA
BRANCH  24  25
ATOM     25  C   LIG    1       -3.969  -8.593  -2.314  0.00  0.00    +0.520 C 
ATOM     26  O   LIG    1       -3.547  -9.707  -2.076  0.00  0.00    -0.490 OA
BRANCH  25  29
ATOM     27  C   LIG    1       -6.390  -9.304  -5.096  0.00  0.00    +0.140 A 
ATOM     28  C   LIG    1       -5.446  -9.491  -4.104  0.00  0.00    -0.020 A 
ATOM     29  C   LIG    1       -4.976  -8.396  -3.374  0.00  0.00    -0.060 A 
ATOM     30  C   LIG    1       -5.466  -7.116  -3.645  0.00  0.00    -0.020 A 
ATOM     31  C   LIG    1       -6.405  -6.934  -4.642  0.00  0.00    +0.140 A 
ATOM     32  C   LIG    1       -6.872  -8.027  -5.369  0.00  0.00    +0.070 A 
BRANCH  27  34
ATOM     33  C   LIG    1       -6.311 -11.651  -5.475  0.00  0.00    +0.250 C 
ATOM     34  O   LIG    1       -6.848 -10.369  -5.807  0.00  0.00    -0.300 OA
ENDBRANCH  27  34
BRANCH  31  35
ATOM     35  O   LIG    1       -6.878  -5.688  -4.911  0.00  0.00    -0.300 OA
ATOM     36  C   LIG    1       -6.356  -4.613  -4.128  0.00  0.00    +0.250 C 
ENDBRANCH  31  35
BRANCH  32  37
ATOM     37  O   LIG    1       -7.800  -7.846  -6.345  0.00  0.00    -0.310 OA
ATOM     38  C   LIG    1       -9.173  -7.929  -5.958  0.00  0.00    +0.240 C 
ENDBRANCH  32  37
ENDBRANCH  25  29
ENDBRANCH  24  25
ENDBRANCH  23  24
ENDBRANCH   1  23
TORSDOF 11
