REMARK  Name = ZINCkj000005iB9z.0
REMARK                            x       y       z     vdW  Elec       q    Type
REMARK                         _______ _______ _______ _____ _____    ______ ____
ROOT
ATOM      1  C   LIG    1       -1.296  -3.406  -0.004  0.00  0.00    +0.620 C 
ATOM      2  N   LIG    1       -0.609  -4.565  -0.017  0.00  0.00    -0.720 N 
ATOM      3  H   LIG    1        0.361  -4.554  -0.026  0.00  0.00    +0.420 HD
ATOM      4  O   LIG    1       -2.511  -3.419   0.007  0.00  0.00    -0.490 OA
ENDROOT
BRANCH   1   8
ATOM      5  C   LIG    1        0.002  -0.004   0.002  0.00  0.00    +0.210 A 
ATOM      6  N   LIG    1        1.058  -0.771  -0.018  0.00  0.00    -0.380 NA
ATOM      7  O   LIG    1        0.763  -1.944  -0.016  0.00  0.00    +0.120 OA
ATOM      8  C   LIG    1       -0.572  -2.120  -0.004  0.00  0.00    -0.090 A 
ATOM      9  C   LIG    1       -1.122  -0.869   0.008  0.00  0.00    +0.070 A 
BRANCH   5  11
ATOM     10  C   LIG    1        1.248   2.019   0.001  0.00  0.00    +0.260 C 
ATOM     11  O   LIG    1       -0.016   1.353   0.009  0.00  0.00    -0.280 OA
ENDBRANCH   5  11
ENDBRANCH   1   8
BRANCH   2  12
ATOM     12  C   LIG    1       -1.327  -5.842  -0.017  0.00  0.00    +0.300 C 
BRANCH  12  13
ATOM     13  C   LIG    1       -0.320  -6.994  -0.033  0.00  0.00    +0.260 C 
BRANCH  13  14
ATOM     14  N   LIG    1       -1.041  -8.274  -0.033  0.00  0.00    -0.380 N 
ATOM     15  C   LIG    1       -1.785  -8.415   1.224  0.00  0.00    +0.250 C 
ATOM     16  C   LIG    1       -2.602  -9.709   1.195  0.00  0.00    -0.010 C 
ATOM     17  C   LIG    1       -1.655 -10.900   1.024  0.00  0.00    +0.050 C 
ATOM     18  C   LIG    1       -0.830 -10.706  -0.252  0.00  0.00    +0.010 C 
ATOM     19  C   LIG    1       -1.762 -10.692  -1.465  0.00  0.00    +0.040 C 
ATOM     20  C   LIG    1       -3.375  -9.855   2.507  0.00  0.00    +0.070 C 
ATOM     21  C   LIG    1       -0.079  -9.375  -0.169  0.00  0.00    +0.260 C 
ATOM     22  H   LIG    1       -1.686  -8.295  -0.809  0.00  0.00    +0.420 HD
ENDBRANCH  13  14
ENDBRANCH  12  13
ENDBRANCH   2  12
TORSDOF 5
