REMARK  Name = ZINCqH0000004Lvs.0
REMARK                            x       y       z     vdW  Elec       q    Type
REMARK                         _______ _______ _______ _____ _____    ______ ____
ROOT
ATOM      1  C   LIG    1       -1.166  -1.037   0.140  0.00  0.00    +0.240 A 
ATOM      2  N   LIG    1       -0.944  -2.326   0.181  0.00  0.00    -0.450 NA
ATOM      3  C   LIG    1        0.383  -2.508   0.054  0.00  0.00    +0.160 A 
ATOM      4  N   LIG    1        0.945  -1.324  -0.067  0.00  0.00    -0.260 NA
ATOM      5  N   LIG    1        0.025  -0.423  -0.012  0.00  0.00    -0.260 N 
ENDROOT
BRANCH   5   6
ATOM      6  C   LIG    1        0.228   0.961  -0.100  0.00  0.00    +0.130 A 
ATOM      7  C   LIG    1        0.809   1.508  -1.237  0.00  0.00    -0.010 A 
ATOM      8  C   LIG    1        1.004   2.874  -1.323  0.00  0.00    +0.070 A 
ATOM      9  C   LIG    1        0.630   3.695  -0.275  0.00  0.00    +0.090 A 
ATOM     10  C   LIG    1        0.056   3.153   0.861  0.00  0.00    +0.070 A 
ATOM     11 CL   LIG    1        1.285   0.478  -2.551  0.00  0.00    -0.020 Cl
ATOM     12  C   LIG    1       -0.146   1.788   0.951  0.00  0.00    -0.020 A 
ATOM     13 CL   LIG    1       -0.867   1.109   2.377  0.00  0.00    -0.030 Cl
ENDBRANCH   5   6
BRANCH   3  14
ATOM     14  C   LIG    1        1.086  -3.809   0.046  0.00  0.00    +0.620 C 
ATOM     15  N   LIG    1        2.426  -3.849  -0.089  0.00  0.00    -0.700 N 
ATOM     16  H   LIG    1        2.930  -3.026  -0.181  0.00  0.00    +0.410 HD
ATOM     17  O   LIG    1        0.455  -4.841   0.161  0.00  0.00    -0.510 OA
BRANCH  15  18
ATOM     18  C   LIG    1        3.123  -5.138  -0.097  0.00  0.00    +0.330 C 
BRANCH  18  19
ATOM     19  C   LIG    1        4.603  -4.908  -0.260  0.00  0.00    -0.140 A 
ATOM     20  C   LIG    1        5.195  -5.065  -1.498  0.00  0.00    +0.050 A 
ATOM     21  C   LIG    1        6.554  -4.854  -1.647  0.00  0.00    +0.000 A 
ATOM     22  C   LIG    1        7.322  -4.486  -0.559  0.00  0.00    +0.040 A 
ATOM     23  C   LIG    1        6.735  -4.329   0.681  0.00  0.00    -0.020 A 
ATOM     24  C   LIG    1        5.372  -4.533   0.833  0.00  0.00    +0.130 A 
BRANCH  24  25
ATOM     25  O   LIG    1        4.791  -4.373   2.051  0.00  0.00    -0.490 OA
ATOM     26  H   LIG    1        4.775  -5.177   2.588  0.00  0.00    +0.390 HD
ENDBRANCH  24  25
ENDBRANCH  18  19
ENDBRANCH  15  18
ENDBRANCH   3  14
BRANCH   1  28
ATOM     27  C   LIG    1       -3.169  -0.325  -1.136  0.00  0.00    +0.050 C 
ATOM     28  C   LIG    1       -2.509  -0.361   0.244  0.00  0.00    +0.150 C 
ENDBRANCH   1  28
TORSDOF 6
