REMARK  Name = ZINCvU0000000HLM.0
REMARK                            x       y       z     vdW  Elec       q    Type
REMARK                         _______ _______ _______ _____ _____    ______ ____
ROOT
ATOM      1  C   LIG    1        1.233   3.538   0.009  0.00  0.00    -0.190 A 
ATOM      2  C   LIG    1        1.267   4.290   1.154  0.00  0.00    +0.050 A 
ATOM      3  S   LIG    1        1.334   5.953   0.790  0.00  0.00    +0.330 S 
ATOM      4  C   LIG    1        1.306   5.661  -0.939  0.00  0.00    -0.100 A 
ATOM      5  C   LIG    1        1.252   4.349  -1.198  0.00  0.00    -0.000 A 
ENDROOT
BRANCH   5   6
ATOM      6  C   LIG    1        1.216   3.783  -2.566  0.00  0.00    -0.040 A 
ATOM      7  C   LIG    1        2.103   2.767  -2.925  0.00  0.00    +0.030 A 
ATOM      8  C   LIG    1        2.066   2.238  -4.196  0.00  0.00    +0.020 A 
ATOM      9  C   LIG    1        1.150   2.724  -5.128  0.00  0.00    -0.040 A 
ATOM     10  C   LIG    1        0.267   3.744  -4.771  0.00  0.00    +0.020 A 
ATOM     11  C   LIG    1        0.300   4.270  -3.499  0.00  0.00    +0.040 A 
BRANCH   9  12
ATOM     12  C   LIG    1        1.115   2.159  -6.498  0.00  0.00    -0.050 A 
ATOM     13  C   LIG    1        0.196   2.640  -7.430  0.00  0.00    +0.020 A 
ATOM     14  C   LIG    1        0.171   2.112  -8.705  0.00  0.00    +0.000 A 
ATOM     15  C   LIG    1        1.048   1.102  -9.056  0.00  0.00    +0.000 A 
ATOM     16  C   LIG    1        1.958   0.617  -8.134  0.00  0.00    +0.000 A 
ATOM     17  C   LIG    1        1.996   1.140  -6.857  0.00  0.00    +0.020 A 
ENDBRANCH   9  12
ENDBRANCH   5   6
BRANCH   2  18
ATOM     18  N   LIG    1        1.252   3.767   2.437  0.00  0.00    -0.630 N 
ATOM     19  H   LIG    1        1.215   2.806   2.568  0.00  0.00    +0.420 HD
ATOM     20  C   LIG    1        1.289   4.592   3.502  0.00  0.00    +0.510 C 
ATOM     21  O   LIG    1        1.335   5.793   3.337  0.00  0.00    -0.480 OA
BRANCH  20  22
ATOM     22  C   LIG    1        1.273   4.023   4.897  0.00  0.00    +0.220 C 
BRANCH  22  23
ATOM     23  N   LIG    1        1.320   5.120   5.873  0.00  0.00    -0.500 NA
ATOM     24  C   LIG    1        0.256   6.119   5.603  0.00  0.00    +0.180 C 
ATOM     25  C   LIG    1        0.113   6.860   6.956  0.00  0.00    +0.020 C 
ATOM     26  C   LIG    1        0.301   5.728   7.992  0.00  0.00    +0.020 C 
ATOM     27  C   LIG    1        1.067   4.621   7.243  0.00  0.00    +0.160 C 
ENDBRANCH  22  23
ENDBRANCH  20  22
ENDBRANCH   2  18
BRANCH   1  28
ATOM     28  C   LIG    1        1.176   2.076   0.002  0.00  0.00    +0.540 C 
ATOM     29  O   LIG    1        2.205   1.428  -0.011  0.00  0.00    -0.490 OA
BRANCH  28  30
ATOM     30  O   LIG    1       -0.018   1.448   0.010  0.00  0.00    -0.350 OA
BRANCH  30  32
ATOM     31  C   LIG    1       -1.433  -0.534   0.013  0.00  0.00    +0.070 C 
ATOM     32  C   LIG    1        0.002  -0.004   0.002  0.00  0.00    +0.200 C 
ENDBRANCH  30  32
ENDBRANCH  28  30
ENDBRANCH   1  28
TORSDOF 8
