REMARK  Name = ZINCpk00000l3WO2.0
REMARK                            x       y       z     vdW  Elec       q    Type
REMARK                         _______ _______ _______ _____ _____    ______ ____
ROOT
ATOM      1  O   LIG    1        0.642   0.912  -2.561  0.00  0.00    -0.560 OA
ATOM      2  C   LIG    1       -0.377   1.537  -2.332  0.00  0.00    +0.600 C 
ATOM      3  N   LIG    1       -0.805   1.688  -1.063  0.00  0.00    -0.720 N 
ATOM      4  H   LIG    1       -1.617   2.186  -0.881  0.00  0.00    +0.400 HD
ENDROOT
BRANCH   2   5
ATOM      5  C   LIG    1       -1.140   2.127  -3.439  0.00  0.00    -0.320 A 
ATOM      6  C   LIG    1       -0.821   2.060  -4.794  0.00  0.00    +0.380 A 
ATOM      7  N   LIG    1        0.210   1.462  -5.473  0.00  0.00    -0.590 N 
ATOM      8  H   LIG    1        0.896   0.981  -4.984  0.00  0.00    +0.450 HD
ATOM      9  C   LIG    1        0.279   1.548  -6.832  0.00  0.00    +0.380 A 
ATOM     10  C   LIG    1       -0.677   2.220  -7.513  0.00  0.00    -0.120 A 
ATOM     11  C   LIG    1       -1.738   2.827  -6.811  0.00  0.00    +0.560 A 
ATOM     12  O   LIG    1       -2.603   3.434  -7.416  0.00  0.00    -0.480 OA
ATOM     13  N   LIG    1       -1.792   2.734  -5.466  0.00  0.00    -0.360 N 
ATOM     14  N   LIG    1       -2.709   3.227  -4.530  0.00  0.00    -0.250 NA
ATOM     15  C   LIG    1       -2.334   2.875  -3.333  0.00  0.00    +0.330 A 
ENDBRANCH   2   5
BRANCH   3  16
ATOM     16  C   LIG    1       -0.043   1.099   0.041  0.00  0.00    +0.300 C 
BRANCH  16  17
ATOM     17  C   LIG    1       -0.683   1.501   1.372  0.00  0.00    +0.120 C 
ATOM     18  C   LIG    1        0.109   0.899   2.553  0.00  0.00    +0.040 C 
ATOM     19  C   LIG    1       -0.960   0.507   3.594  0.00  0.00    +0.030 C 
ATOM     20  C   LIG    1       -2.307   0.906   2.955  0.00  0.00    +0.180 C 
ATOM     21  N   LIG    1       -2.041   0.912   1.493  0.00  0.00    -0.470 N 
BRANCH  21  22
ATOM     22  C   LIG    1       -2.985   1.687   0.816  0.00  0.00    +0.070 A 
ATOM     23  C   LIG    1       -3.112   3.039   1.105  0.00  0.00    -0.040 A 
ATOM     24  C   LIG    1       -4.043   3.804   0.430  0.00  0.00    +0.020 A 
ATOM     25  C   LIG    1       -4.856   3.222  -0.526  0.00  0.00    +0.010 A 
ATOM     26  C   LIG    1       -4.735   1.875  -0.814  0.00  0.00    +0.020 A 
ATOM     27  C   LIG    1       -3.802   1.106  -0.146  0.00  0.00    +0.040 A 
ENDBRANCH  21  22
ENDBRANCH  16  17
ENDBRANCH   3  16
TORSDOF 4
