REMARK  Name = ZINCpk00000KfL70.0
REMARK                            x       y       z     vdW  Elec       q    Type
REMARK                         _______ _______ _______ _____ _____    ______ ____
ROOT
ATOM      1  C   LIG    1        1.021   6.078   1.091  0.00  0.00    -0.010 C 
ATOM      2  C   LIG    1        2.279   5.226   1.280  0.00  0.00    +0.050 C 
ATOM      3  C   LIG    1        2.405   4.243   0.112  0.00  0.00    +0.300 C 
ATOM      4  N   LIG    1        1.161   3.468   0.010  0.00  0.00    -0.580 N 
ATOM      5  C   LIG    1       -0.115   4.190  -0.091  0.00  0.00    +0.300 C 
ATOM      6  C   LIG    1       -0.213   5.173   1.085  0.00  0.00    +0.040 C 
ENDROOT
BRANCH   4   7
ATOM      7  C   LIG    1        1.191   2.078   0.002  0.00  0.00    +0.410 A 
ATOM      8  N   LIG    1        2.330   1.451   0.198  0.00  0.00    -0.300 NA
ATOM      9  N   LIG    1        2.378   0.057   0.193  0.00  0.00    -0.170 N 
ATOM     10  N   LIG    1        3.398  -0.888   0.364  0.00  0.00    -0.050 NA
ATOM     11  N   LIG    1        2.854  -2.053   0.257  0.00  0.00    -0.030 NA
ATOM     12  N   LIG    1        1.592  -1.950   0.035  0.00  0.00    -0.290 NA
ATOM     13  C   LIG    1        1.240  -0.672  -0.015  0.00  0.00    +0.170 A 
ATOM     14  C   LIG    1        0.021  -0.002  -0.225  0.00  0.00    +0.180 A 
ATOM     15  C   LIG    1        0.002   1.357  -0.216  0.00  0.00    +0.020 A 
ENDBRANCH   4   7
BRANCH   1  18
ATOM     16  N   LIG    1       -0.124   7.930   2.264  0.00  0.00    -0.730 N 
ATOM     17  H   LIG    1       -0.799   7.912   1.568  0.00  0.00    +0.400 HD
ATOM     18  C   LIG    1        0.912   7.069   2.221  0.00  0.00    +0.520 C 
ATOM     19  O   LIG    1        1.756   7.092   3.091  0.00  0.00    -0.530 OA
BRANCH  16  24
ATOM     20  C   LIG    1       -1.963  11.453   6.392  0.00  0.00    +0.030 C 
ATOM     21  C   LIG    1       -1.852  10.446   5.245  0.00  0.00    -0.020 C 
ATOM     22  C   LIG    1       -1.161  11.108   4.051  0.00  0.00    +0.030 C 
ATOM     23  C   LIG    1       -1.050  10.101   2.904  0.00  0.00    +0.010 C 
ATOM     24  C   LIG    1       -0.230   8.894   3.362  0.00  0.00    +0.230 C 
ATOM     25  C   LIG    1       -0.920   8.232   4.557  0.00  0.00    +0.000 C 
ATOM     26  C   LIG    1       -1.031   9.239   5.704  0.00  0.00    +0.020 C 
ENDBRANCH  16  24
ENDBRANCH   1  18
TORSDOF 3
