REMARK  Name = ZINCrH000004sJz7.0
REMARK                            x       y       z     vdW  Elec       q    Type
REMARK                         _______ _______ _______ _____ _____    ______ ____
ROOT
ATOM      1  C   LIG    1        9.082   0.795  -0.878  0.00  0.00    +0.130 C 
ATOM      2  C   LIG    1        7.693   0.790  -1.462  0.00  0.00    +0.020 A 
ATOM      3  C   LIG    1        6.551   0.778  -0.754  0.00  0.00    -0.010 A 
ATOM      4  C   LIG    1        5.457   0.775  -1.734  0.00  0.00    -0.270 A 
ATOM      5  C   LIG    1        6.063   0.780  -2.977  0.00  0.00    +0.130 A 
ATOM      6  C   LIG    1        5.353   0.774  -4.306  0.00  0.00    +0.150 C 
ATOM      7  N   LIG    1        7.395   0.795  -2.794  0.00  0.00    -0.430 N 
ENDROOT
BRANCH   4   8
ATOM      8  C   LIG    1        4.020   0.764  -1.453  0.00  0.00    +0.410 C 
ATOM      9  O   LIG    1        3.223   0.763  -2.368  0.00  0.00    -0.450 OA
BRANCH   8  10
ATOM     10  C   LIG    1        3.531   0.753  -0.028  0.00  0.00    +0.360 C 
BRANCH  10  11
ATOM     11  N   LIG    1        2.066   0.743  -0.014  0.00  0.00    -0.340 N 
ATOM     12  N   LIG    1        1.250  -0.396  -0.012  0.00  0.00    -0.260 NA
ATOM     13  C   LIG    1        0.002  -0.004   0.002  0.00  0.00    +0.130 A 
ATOM     14  C   LIG    1       -0.017   1.395   0.010  0.00  0.00    -0.190 A 
ATOM     15  C   LIG    1       -1.206  -0.904   0.008  0.00  0.00    +0.170 C 
ATOM     16  C   LIG    1        1.265   1.828  -0.000  0.00  0.00    +0.170 A 
ATOM     17  C   LIG    1        1.716   3.266   0.003  0.00  0.00    +0.170 C 
BRANCH  14  18
ATOM     18  N   LIG    1       -1.226   2.249   0.020  0.00  0.00    +0.050 N 
ATOM     19  O   LIG    1       -1.728   2.606  -1.030  0.00  0.00    -0.140 OA
ATOM     20  O   LIG    1       -1.717   2.595   1.079  0.00  0.00    -0.140 OA
ENDBRANCH  14  18
ENDBRANCH  10  11
ENDBRANCH   8  10
ENDBRANCH   4   8
BRANCH   7  21
ATOM     21  C   LIG    1        8.387   0.808  -3.872  0.00  0.00    +0.340 C 
BRANCH  21  22
ATOM     22  C   LIG    1        8.737  -0.609  -4.249  0.00  0.00    -0.120 A 
ATOM     23  C   LIG    1        9.783  -1.254  -3.615  0.00  0.00    +0.020 A 
ATOM     24  C   LIG    1       10.101  -2.555  -3.958  0.00  0.00    +0.010 A 
ATOM     25  C   LIG    1        9.381  -3.207  -4.941  0.00  0.00    +0.020 A 
ATOM     26  C   LIG    1        8.339  -2.560  -5.578  0.00  0.00    +0.010 A 
ATOM     27  C   LIG    1        8.017  -1.261  -5.232  0.00  0.00    +0.020 A 
ENDBRANCH  21  22
ENDBRANCH   7  21
TORSDOF 6
