REMARK  Name = ZINCqH000000783V.0
REMARK                            x       y       z     vdW  Elec       q    Type
REMARK                         _______ _______ _______ _____ _____    ______ ____
ROOT
ATOM      1  C   LIG    1       -0.078   2.261  -2.138  0.00  0.00    +0.520 C 
ATOM      2  N   LIG    1       -0.729   1.575  -1.178  0.00  0.00    -0.620 N 
ATOM      3  C   LIG    1       -0.013   1.086   0.008  0.00  0.00    +0.280 C 
ATOM      4  C   LIG    1       -0.736   1.583   1.264  0.00  0.00    +0.040 C 
ATOM      5  C   LIG    1       -2.208   1.161   1.197  0.00  0.00    +0.120 C 
ATOM      6  C   LIG    1       -2.869   1.797  -0.028  0.00  0.00    +0.040 C 
ATOM      7  C   LIG    1       -2.168   1.303  -1.297  0.00  0.00    +0.290 C 
ATOM      8  O   LIG    1        1.110   2.480  -2.029  0.00  0.00    -0.530 OA
ENDROOT
BRANCH   5   9
ATOM      9  C   LIG    1       -2.918   1.619   2.445  0.00  0.00    +0.250 A 
ATOM     10  N   LIG    1       -3.020   2.856   2.830  0.00  0.00    -0.470 NA
ATOM     11  C   LIG    1       -3.726   2.896   3.992  0.00  0.00    +0.020 A 
ATOM     12  C   LIG    1       -4.134   3.928   4.838  0.00  0.00    +0.080 A 
ATOM     13  C   LIG    1       -4.852   3.634   5.977  0.00  0.00    +0.020 A 
ATOM     14  C   LIG    1       -5.171   2.320   6.286  0.00  0.00    +0.050 A 
ATOM     15  C   LIG    1       -4.774   1.290   5.458  0.00  0.00    +0.050 A 
ATOM     16  C   LIG    1       -4.051   1.568   4.309  0.00  0.00    +0.010 A 
ATOM     17  O   LIG    1       -3.529   0.807   3.321  0.00  0.00    -0.210 OA
ENDBRANCH   5   9
BRANCH   1  18
ATOM     18  C   LIG    1       -0.827   2.757  -3.349  0.00  0.00    +0.100 C 
BRANCH  18  22
ATOM     19  C   LIG    1        1.867   4.829  -5.940  0.00  0.00    +0.130 A 
ATOM     20  C   LIG    1        1.671   3.463  -6.090  0.00  0.00    -0.020 A 
ATOM     21  C   LIG    1        0.800   2.796  -5.250  0.00  0.00    +0.070 A 
ATOM     22  C   LIG    1        0.123   3.487  -4.263  0.00  0.00    -0.110 A 
ATOM     23  C   LIG    1        0.313   4.849  -4.115  0.00  0.00    +0.060 A 
ATOM     24  C   LIG    1        1.187   5.520  -4.948  0.00  0.00    -0.080 A 
BRANCH  19  26
ATOM     25  C   LIG    1        2.875   6.893  -6.553  0.00  0.00    +0.250 C 
ATOM     26  O   LIG    1        2.723   5.487  -6.765  0.00  0.00    -0.320 OA
ENDBRANCH  19  26
ENDBRANCH  18  22
ENDBRANCH   1  18
TORSDOF 4
