REMARK  Name = ZINCtj00001n1jX1.1
REMARK                            x       y       z     vdW  Elec       q    Type
REMARK                         _______ _______ _______ _____ _____    ______ ____
ROOT
ATOM      1  N   LIG    1       -0.012   1.005   0.008  0.00  0.00    -0.370 N 
ATOM      2  C   LIG    1        1.369   1.485  -0.003  0.00  0.00    +0.260 C 
ATOM      3  C   LIG    1        2.224   0.529  -0.805  0.00  0.00    +0.060 C 
ATOM      4  C   LIG    1        2.309   1.017  -2.263  0.00  0.00    +0.290 C 
ATOM      5  N   LIG    1        1.008   1.541  -2.725  0.00  0.00    -0.620 N 
ATOM      6  C   LIG    1       -0.246   0.889  -2.407  0.00  0.00    +0.330 C 
ATOM      7  C   LIG    1        0.986   2.664  -3.469  0.00  0.00    +0.510 C 
ATOM      8  O   LIG    1       -0.070   3.113  -3.859  0.00  0.00    -0.510 OA
ATOM      9  C   LIG    1       -0.804   1.446  -1.076  0.00  0.00    +0.240 C 
ATOM     10  H   LIG    1        0.002  -0.004   0.002  0.00  0.00    +0.410 HD
ENDROOT
BRANCH   1  11
ATOM     11  C   LIG    1       -0.648   1.451   1.254  0.00  0.00    +0.340 C 
BRANCH  11  14
ATOM     12  N   LIG    1       -3.613  -0.579   1.875  0.00  0.00    -0.350 N 
ATOM     13  C   LIG    1       -2.284  -0.368   1.975  0.00  0.00    +0.290 A 
ATOM     14  C   LIG    1       -2.009   0.816   1.379  0.00  0.00    -0.320 A 
ATOM     15  C   LIG    1       -3.212   1.348   0.904  0.00  0.00    +0.260 A 
ATOM     16  N   LIG    1       -4.173   0.510   1.196  0.00  0.00    -0.270 NA
BRANCH  12  18
ATOM     17  C   LIG    1       -5.468  -1.273   3.310  0.00  0.00    +0.050 C 
ATOM     18  C   LIG    1       -4.341  -1.743   2.388  0.00  0.00    +0.330 C 
ENDBRANCH  12  18
ENDBRANCH  11  14
ENDBRANCH   1  11
BRANCH   7  19
ATOM     19  C   LIG    1        2.276   3.363  -3.815  0.00  0.00    +0.310 C 
BRANCH  19  20
ATOM     20  N   LIG    1        1.986   4.550  -4.624  0.00  0.00    -0.720 N 
ATOM     21  H   LIG    1        1.069   4.770  -4.851  0.00  0.00    +0.410 HD
ATOM     22  C   LIG    1        2.994   5.335  -5.053  0.00  0.00    +0.570 C 
ATOM     23  O   LIG    1        4.143   5.060  -4.768  0.00  0.00    -0.530 OA
BRANCH  22  24
ATOM     24  C   LIG    1        2.701   6.533  -5.869  0.00  0.00    -0.100 A 
ATOM     25  C   LIG    1        1.383   6.852  -6.198  0.00  0.00    +0.010 A 
ATOM     26  C   LIG    1        1.113   7.970  -6.960  0.00  0.00    +0.060 A 
ATOM     27  C   LIG    1        2.146   8.777  -7.401  0.00  0.00    -0.040 A 
ATOM     28  C   LIG    1        3.461   8.468  -7.079  0.00  0.00    +0.120 A 
ATOM     29  C   LIG    1        3.742   7.351  -6.310  0.00  0.00    +0.060 A 
BRANCH  28  30
ATOM     30  O   LIG    1        4.472   9.265  -7.514  0.00  0.00    -0.310 OA
ATOM     31  C   LIG    1        4.109  10.403  -8.298  0.00  0.00    +0.250 C 
ENDBRANCH  28  30
ENDBRANCH  22  24
ENDBRANCH  19  20
ENDBRANCH   7  19
TORSDOF 7
