REMARK  Name = ZINCtj00001n1jX1.2
REMARK                            x       y       z     vdW  Elec       q    Type
REMARK                         _______ _______ _______ _____ _____    ______ ____
ROOT
ATOM      1  N   LIG    1       -3.002   1.215   1.407  0.00  0.00    -0.370 N 
ATOM      2  C   LIG    1       -4.446   0.992   1.392  0.00  0.00    +0.260 C 
ATOM      3  C   LIG    1       -5.046   1.522   2.676  0.00  0.00    +0.060 C 
ATOM      4  C   LIG    1       -5.136   0.384   3.708  0.00  0.00    +0.300 C 
ATOM      5  N   LIG    1       -3.936  -0.476   3.656  0.00  0.00    -0.620 N 
ATOM      6  C   LIG    1       -2.601   0.065   3.508  0.00  0.00    +0.330 C 
ATOM      7  C   LIG    1       -4.089  -1.812   3.750  0.00  0.00    +0.510 C 
ATOM      8  O   LIG    1       -3.119  -2.538   3.710  0.00  0.00    -0.510 OA
ATOM      9  C   LIG    1       -2.247   0.183   2.008  0.00  0.00    +0.230 C 
ATOM     10  H   LIG    1       -2.820   2.074   1.904  0.00  0.00    +0.420 HD
ENDROOT
BRANCH   1  11
ATOM     11  C   LIG    1       -2.544   1.378   0.021  0.00  0.00    +0.350 C 
BRANCH  11  14
ATOM     12  N   LIG    1        1.067   1.886   0.002  0.00  0.00    -0.350 N 
ATOM     13  C   LIG    1       -0.013   1.076   0.008  0.00  0.00    +0.280 A 
ATOM     14  C   LIG    1       -1.116   1.859   0.017  0.00  0.00    -0.320 A 
ATOM     15  C   LIG    1       -0.697   3.193   0.025  0.00  0.00    +0.260 A 
ATOM     16  N   LIG    1        0.611   3.211   0.013  0.00  0.00    -0.270 NA
BRANCH  12  18
ATOM     17  C   LIG    1        3.186   2.104  -1.198  0.00  0.00    +0.050 C 
ATOM     18  C   LIG    1        2.467   1.456  -0.013  0.00  0.00    +0.330 C 
ENDBRANCH  12  18
ENDBRANCH  11  14
ENDBRANCH   1  11
BRANCH   7  19
ATOM     19  C   LIG    1       -5.467  -2.403   3.905  0.00  0.00    +0.310 C 
BRANCH  19  20
ATOM     20  N   LIG    1       -5.366  -3.863   3.984  0.00  0.00    -0.720 N 
ATOM     21  H   LIG    1       -4.497  -4.292   3.934  0.00  0.00    +0.410 HD
ATOM     22  C   LIG    1       -6.479  -4.609   4.125  0.00  0.00    +0.570 C 
ATOM     23  O   LIG    1       -7.567  -4.071   4.187  0.00  0.00    -0.530 OA
BRANCH  22  24
ATOM     24  C   LIG    1       -6.377  -6.082   4.205  0.00  0.00    -0.100 A 
ATOM     25  C   LIG    1       -5.129  -6.702   4.134  0.00  0.00    +0.010 A 
ATOM     26  C   LIG    1       -5.037  -8.077   4.208  0.00  0.00    +0.060 A 
ATOM     27  C   LIG    1       -6.178  -8.843   4.353  0.00  0.00    -0.040 A 
ATOM     28  C   LIG    1       -7.425  -8.235   4.425  0.00  0.00    +0.120 A 
ATOM     29  C   LIG    1       -7.527  -6.856   4.356  0.00  0.00    +0.060 A 
BRANCH  28  30
ATOM     30  O   LIG    1       -8.543  -8.994   4.568  0.00  0.00    -0.310 OA
ATOM     31  C   LIG    1       -8.363 -10.409   4.637  0.00  0.00    +0.250 C 
ENDBRANCH  28  30
ENDBRANCH  22  24
ENDBRANCH  19  20
ENDBRANCH   7  19
TORSDOF 7
