REMARK  Name = ZINCpk00000y6v2j.0
REMARK                            x       y       z     vdW  Elec       q    Type
REMARK                         _______ _______ _______ _____ _____    ______ ____
ROOT
ATOM      1  O   LIG    1       -1.736   2.268  -1.088  0.00  0.00    -0.530 OA
ATOM      2  C   LIG    1       -0.742   1.585  -1.213  0.00  0.00    +0.520 C 
ATOM      3  N   LIG    1       -0.288   1.272  -2.443  0.00  0.00    -0.610 N 
ATOM      4  C   LIG    1        0.915   0.446  -2.610  0.00  0.00    +0.260 C 
ATOM      5  C   LIG    1        0.576  -0.740  -3.519  0.00  0.00    +0.030 C 
ATOM      6  C   LIG    1       -0.015  -0.219  -4.831  0.00  0.00    +0.060 C 
ATOM      7  C   LIG    1       -1.306   0.551  -4.541  0.00  0.00    +0.220 C 
ATOM      8  C   LIG    1       -0.992   1.746  -3.643  0.00  0.00    +0.280 C 
ENDROOT
BRANCH   7   9
ATOM      9  C   LIG    1       -1.905   1.035  -5.836  0.00  0.00    -0.030 A 
ATOM     10  N   LIG    1       -1.349   1.840  -6.713  0.00  0.00    -0.270 NA
ATOM     11  N   LIG    1       -2.170   2.020  -7.686  0.00  0.00    -0.250 N 
ATOM     12  H   LIG    1       -1.993   2.576  -8.461  0.00  0.00    +0.470 HD
ATOM     13  N   LIG    1       -3.259   1.363  -7.492  0.00  0.00    -0.280 NA
ATOM     14  C   LIG    1       -3.163   0.716  -6.353  0.00  0.00    +0.190 A 
ENDBRANCH   7   9
BRANCH   7  15
ATOM     15  O   LIG    1       -2.235  -0.308  -3.877  0.00  0.00    -0.540 OA
ATOM     16  H   LIG    1       -3.077   0.115  -3.662  0.00  0.00    +0.380 HD
ENDBRANCH   7  15
BRANCH   2  17
ATOM     17  C   LIG    1       -0.013   1.086   0.008  0.00  0.00    +0.140 C 
BRANCH  17  18
ATOM     18  C   LIG    1       -0.718   1.572   1.248  0.00  0.00    -0.150 A 
ATOM     19  C   LIG    1       -0.420   2.672   1.957  0.00  0.00    +0.240 A 
ATOM     20  N   LIG    1       -1.278   2.790   3.017  0.00  0.00    -0.590 N 
ATOM     21  H   LIG    1       -1.259   3.506   3.672  0.00  0.00    +0.420 HD
ATOM     22  C   LIG    1       -2.171   1.743   3.016  0.00  0.00    +0.120 A 
ATOM     23  C   LIG    1       -3.228   1.385   3.846  0.00  0.00    -0.040 A 
ATOM     24  C   LIG    1       -3.957   0.246   3.575  0.00  0.00    +0.120 A 
ATOM     25  C   LIG    1       -3.645  -0.550   2.478  0.00  0.00    -0.040 A 
ATOM     26  C   LIG    1       -2.611  -0.215   1.651  0.00  0.00    +0.090 A 
ATOM     27  F   LIG    1       -4.983  -0.100   4.382  0.00  0.00    -0.140 F 
ATOM     28  C   LIG    1       -1.864   0.937   1.904  0.00  0.00    -0.100 A 
ENDBRANCH  17  18
ENDBRANCH   2  17
TORSDOF 4
