REMARK  Name = ZINCpk00000y6v2j.1
REMARK                            x       y       z     vdW  Elec       q    Type
REMARK                         _______ _______ _______ _____ _____    ______ ____
ROOT
ATOM      1  O   LIG    1       -1.714   2.256   1.150  0.00  0.00    -0.530 OA
ATOM      2  C   LIG    1       -0.718   1.572   1.248  0.00  0.00    +0.520 C 
ATOM      3  N   LIG    1       -0.242   1.246   2.466  0.00  0.00    -0.610 N 
ATOM      4  C   LIG    1        0.964   0.418   2.601  0.00  0.00    +0.260 C 
ATOM      5  C   LIG    1        1.966   1.148   3.501  0.00  0.00    +0.030 C 
ATOM      6  C   LIG    1        1.291   1.497   4.830  0.00  0.00    +0.060 C 
ATOM      7  C   LIG    1        0.104   2.428   4.572  0.00  0.00    +0.210 C 
ATOM      8  C   LIG    1       -0.915   1.717   3.684  0.00  0.00    +0.270 C 
ENDROOT
BRANCH   7   9
ATOM      9  C   LIG    1       -0.540   2.797   5.884  0.00  0.00    -0.050 A 
ATOM     10  C   LIG    1       -1.614   3.602   6.061  0.00  0.00    +0.170 A 
ATOM     11  N   LIG    1       -1.836   3.646   7.395  0.00  0.00    -0.390 N 
ATOM     12  H   LIG    1       -2.541   4.143   7.837  0.00  0.00    +0.450 HD
ATOM     13  N   LIG    1       -0.951   2.914   7.976  0.00  0.00    -0.070 NA
ATOM     14  N   LIG    1       -0.166   2.389   7.102  0.00  0.00    -0.240 NA
ENDBRANCH   7   9
BRANCH   7  15
ATOM     15  O   LIG    1        0.562   3.612   3.916  0.00  0.00    -0.540 OA
ATOM     16  H   LIG    1       -0.139   4.250   3.721  0.00  0.00    +0.380 HD
ENDBRANCH   7  15
BRANCH   2  17
ATOM     17  C   LIG    1       -0.013   1.086   0.008  0.00  0.00    +0.140 C 
BRANCH  17  18
ATOM     18  C   LIG    1       -0.742   1.585  -1.213  0.00  0.00    -0.150 A 
ATOM     19  C   LIG    1       -1.674   0.921  -1.913  0.00  0.00    +0.240 A 
ATOM     20  N   LIG    1       -2.111   1.692  -2.957  0.00  0.00    -0.590 N 
ATOM     21  H   LIG    1       -2.784   1.425  -3.602  0.00  0.00    +0.420 HD
ATOM     22  C   LIG    1       -1.454   2.902  -2.952  0.00  0.00    +0.120 A 
ATOM     23  C   LIG    1       -1.515   4.027  -3.768  0.00  0.00    -0.040 A 
ATOM     24  C   LIG    1       -0.707   5.113  -3.498  0.00  0.00    +0.120 A 
ATOM     25  C   LIG    1        0.166   5.093  -2.417  0.00  0.00    -0.040 A 
ATOM     26  C   LIG    1        0.240   3.998  -1.604  0.00  0.00    +0.090 A 
ATOM     27  F   LIG    1       -0.767   6.205  -4.291  0.00  0.00    -0.140 F 
ATOM     28  C   LIG    1       -0.572   2.890  -1.857  0.00  0.00    -0.100 A 
ENDBRANCH  17  18
ENDBRANCH   2  17
TORSDOF 4
