REMARK  Name = ZINCrH000004pQR3.0
REMARK                            x       y       z     vdW  Elec       q    Type
REMARK                         _______ _______ _______ _____ _____    ______ ____
ROOT
ATOM      1  C   LIG    1       -2.849   0.001  -1.920  0.00  0.00    -0.690 A 
ATOM      2  C   LIG    1       -3.025  -1.219  -1.293  0.00  0.00    +0.140 A 
ATOM      3  C   LIG    1       -4.293  -1.646  -0.954  0.00  0.00    -0.030 A 
ATOM      4  C   LIG    1       -5.394  -0.854  -1.254  0.00  0.00    +0.210 A 
ATOM      5  C   LIG    1       -5.215   0.368  -1.890  0.00  0.00    +0.000 A 
ATOM      6  C   LIG    1       -3.942   0.792  -2.221  0.00  0.00    +0.140 A 
ENDROOT
BRANCH   4   7
ATOM      7  N   LIG    1       -6.681  -1.286  -0.918  0.00  0.00    -0.670 N 
ATOM      8  H   LIG    1       -6.821  -1.817  -0.117  0.00  0.00    +0.410 HD
ATOM      9  C   LIG    1       -7.727  -0.966  -1.705  0.00  0.00    +0.560 C 
ATOM     10  O   LIG    1       -7.541  -0.385  -2.756  0.00  0.00    -0.490 OA
BRANCH   9  11
ATOM     11  C   LIG    1       -9.099  -1.321  -1.290  0.00  0.00    -0.180 A 
ATOM     12  C   LIG    1       -9.317  -1.988  -0.083  0.00  0.00    +0.080 A 
ATOM     13  C   LIG    1      -10.601  -2.317   0.299  0.00  0.00    +0.000 A 
ATOM     14  C   LIG    1      -11.674  -1.988  -0.511  0.00  0.00    +0.080 A 
ATOM     15  C   LIG    1      -11.469  -1.327  -1.708  0.00  0.00    -0.010 A 
ATOM     16  C   LIG    1      -10.188  -0.985  -2.101  0.00  0.00    +0.170 A 
ATOM     17  F   LIG    1       -9.988  -0.334  -3.268  0.00  0.00    -0.110 F 
ENDBRANCH   9  11
ENDBRANCH   4   7
BRANCH   1  18
ATOM     18  S   LIG    1       -1.227   0.545  -2.344  0.00  0.00    +2.690 S 
ATOM     19  O   LIG    1       -0.424  -0.623  -2.439  0.00  0.00    -0.950 OA
ATOM     20  O   LIG    1       -1.381   1.471  -3.411  0.00  0.00    -0.950 OA
BRANCH  18  26
ATOM     21  C   LIG    1        0.291   0.504   2.501  0.00  0.00    +0.030 C 
ATOM     22  C   LIG    1       -0.554   1.081   1.362  0.00  0.00    -0.040 C 
ATOM     23  C   LIG    1       -0.646   2.601   1.509  0.00  0.00    +0.030 C 
ATOM     24  C   LIG    1       -1.515   3.175   0.387  0.00  0.00    -0.040 C 
ATOM     25  C   LIG    1       -0.870   2.859  -0.966  0.00  0.00    +0.290 C 
ATOM     26  N   LIG    1       -0.648   1.409  -1.056  0.00  0.00    -1.000 NA
ATOM     27  C   LIG    1       -1.630   4.692   0.556  0.00  0.00    +0.030 C 
ATOM     28  C   LIG    1        0.099   0.740   0.019  0.00  0.00    +0.290 C 
ENDBRANCH  18  26
ENDBRANCH   1  18
TORSDOF 4
