REMARK  Name = ZINCrH000004kbjx.0
REMARK                            x       y       z     vdW  Elec       q    Type
REMARK                         _______ _______ _______ _____ _____    ______ ____
ROOT
ATOM      1  N   LIG    1       -1.136  -1.936   0.928  0.00  0.00    -0.710 N 
ATOM      2  H   LIG    1       -1.463  -1.854   1.838  0.00  0.00    +0.410 HD
ATOM      3  C   LIG    1       -0.557  -3.083   0.521  0.00  0.00    +0.610 C 
ATOM      4  O   LIG    1       -0.146  -3.185  -0.620  0.00  0.00    -0.510 OA
ENDROOT
BRANCH   1  14
ATOM      5  C   LIG    1       -3.704   2.017  -0.265  0.00  0.00    +0.200 C 
ATOM      6  N   LIG    1       -2.427   1.298  -0.375  0.00  0.00    -0.530 NA
ATOM      7  C   LIG    1       -1.307   2.152   0.032  0.00  0.00    +0.230 C 
ATOM      8  C   LIG    1       -0.017   1.375   0.010  0.00  0.00    -0.070 A 
ATOM      9  C   LIG    1        1.178   2.079   0.002  0.00  0.00    +0.000 A 
ATOM     10  C   LIG    1        2.384   1.407  -0.008  0.00  0.00    +0.010 A 
ATOM     11  C   LIG    1        2.402   0.025  -0.011  0.00  0.00    +0.000 A 
ATOM     12  C   LIG    1        1.214  -0.678  -0.007  0.00  0.00    +0.030 A 
ATOM     13  C   LIG    1        0.002  -0.004   0.002  0.00  0.00    -0.090 A 
ATOM     14  C   LIG    1       -1.270  -0.812  -0.002  0.00  0.00    +0.300 C 
ATOM     15  C   LIG    1       -2.447   0.065   0.427  0.00  0.00    +0.190 C 
ENDBRANCH   1  14
BRANCH   3  16
ATOM     16  C   LIG    1       -0.422  -4.208   1.452  0.00  0.00    -0.080 A 
ATOM     17  C   LIG    1        0.141  -5.419   1.171  0.00  0.00    -0.080 A 
ATOM     18  C   LIG    1        0.058  -6.185   2.344  0.00  0.00    -0.040 A 
ATOM     19  C   LIG    1       -0.544  -5.417   3.279  0.00  0.00    +0.220 A 
ATOM     20  O   LIG    1       -0.828  -4.224   2.739  0.00  0.00    -0.160 OA
BRANCH  17  21
ATOM     21  C   LIG    1        0.736  -5.851  -0.145  0.00  0.00    +0.310 C 
BRANCH  21  22
ATOM     22  O   LIG    1        1.220  -7.191  -0.032  0.00  0.00    -0.310 OA
BRANCH  22  23
ATOM     23  C   LIG    1        1.792  -7.735  -1.138  0.00  0.00    +0.130 A 
ATOM     24  C   LIG    1        1.879  -6.998  -2.310  0.00  0.00    -0.080 A 
ATOM     25  C   LIG    1        2.466  -7.552  -3.431  0.00  0.00    +0.050 A 
ATOM     26  C   LIG    1        2.955  -8.844  -3.389  0.00  0.00    -0.040 A 
ATOM     27  C   LIG    1        2.864  -9.584  -2.225  0.00  0.00    +0.050 A 
ATOM     28  C   LIG    1        2.284  -9.032  -1.099  0.00  0.00    -0.020 A 
ENDBRANCH  22  23
ENDBRANCH  21  22
ENDBRANCH  17  21
ENDBRANCH   3  16
TORSDOF 5
