REMARK  Name = ZINCvU0000000JGc.0
REMARK                            x       y       z     vdW  Elec       q    Type
REMARK                         _______ _______ _______ _____ _____    ______ ____
ROOT
ATOM      1  O   LIG    1        3.290  11.582   0.029  0.00  0.00    -0.490 OA
ATOM      2  C   LIG    1        2.318  12.308   0.050  0.00  0.00    +0.520 C 
ATOM      3  N   LIG    1        2.477  13.647   0.054  0.00  0.00    -0.660 N 
ATOM      4  H   LIG    1        1.702  14.227  -0.010  0.00  0.00    +0.410 HD
ENDROOT
BRANCH   3   5
ATOM      5  C   LIG    1        3.757  14.198   0.150  0.00  0.00    +0.160 A 
ATOM      6  C   LIG    1        4.784  13.476   0.741  0.00  0.00    +0.020 A 
ATOM      7  C   LIG    1        6.051  14.021   0.829  0.00  0.00    +0.040 A 
ATOM      8  C   LIG    1        6.301  15.292   0.342  0.00  0.00    +0.000 A 
ATOM      9  C   LIG    1        5.287  16.024  -0.243  0.00  0.00    +0.050 A 
ATOM     10  C   LIG    1        4.008  15.484  -0.344  0.00  0.00    -0.080 A 
BRANCH  10  11
ATOM     11  C   LIG    1        2.915  16.267  -0.971  0.00  0.00    -0.050 A 
ATOM     12  C   LIG    1        2.128  15.694  -1.968  0.00  0.00    +0.000 A 
ATOM     13  C   LIG    1        1.110  16.426  -2.545  0.00  0.00    +0.010 A 
ATOM     14  C   LIG    1        0.877  17.728  -2.142  0.00  0.00    +0.000 A 
ATOM     15  C   LIG    1        1.659  18.304  -1.157  0.00  0.00    +0.010 A 
ATOM     16  C   LIG    1        2.676  17.580  -0.569  0.00  0.00    +0.030 A 
ENDBRANCH  10  11
ENDBRANCH   3   5
BRANCH   2  17
ATOM     17  C   LIG    1        0.934  11.714   0.072  0.00  0.00    +0.270 C 
BRANCH  17  18
ATOM     18  O   LIG    1        1.029  10.265   0.063  0.00  0.00    -0.330 OA
BRANCH  18  19
ATOM     19  C   LIG    1       -0.128   9.575   0.081  0.00  0.00    +0.510 C 
ATOM     20  O   LIG    1       -1.188  10.169   0.102  0.00  0.00    -0.500 OA
BRANCH  19  21
ATOM     21  C   LIG    1       -0.108   8.100   0.073  0.00  0.00    -0.130 A 
ATOM     22  C   LIG    1       -1.309   7.384   0.091  0.00  0.00    +0.090 A 
ATOM     23  C   LIG    1       -1.289   6.008   0.084  0.00  0.00    +0.010 A 
ATOM     24  C   LIG    1       -0.071   5.327   0.059  0.00  0.00    -0.000 A 
ATOM     25  C   LIG    1        1.128   6.040   0.047  0.00  0.00    +0.010 A 
ATOM     26  C   LIG    1        1.111   7.417   0.048  0.00  0.00    +0.090 A 
BRANCH  24  27
ATOM     27  C   LIG    1       -0.051   3.845   0.053  0.00  0.00    -0.060 A 
ATOM     28  C   LIG    1        1.163   3.161   0.029  0.00  0.00    +0.030 A 
ATOM     29  C   LIG    1        1.176   1.781   0.023  0.00  0.00    +0.010 A 
ATOM     30  C   LIG    1       -0.014   1.076   0.040  0.00  0.00    +0.020 A 
ATOM     31  C   LIG    1       -1.223   1.749   0.059  0.00  0.00    +0.010 A 
ATOM     32  C   LIG    1       -1.248   3.129   0.071  0.00  0.00    +0.030 A 
ENDBRANCH  24  27
ENDBRANCH  19  21
ENDBRANCH  18  19
ENDBRANCH  17  18
ENDBRANCH   2  17
TORSDOF 7
