REMARK  Name = ZINCtV00000L6kbl.0
REMARK                            x       y       z     vdW  Elec       q    Type
REMARK                         _______ _______ _______ _____ _____    ______ ____
ROOT
ATOM      1  C   LIG    1       -0.666  -3.121  -1.166  0.00  0.00    +0.430 A 
ATOM      2  C   LIG    1       -1.212  -2.620  -2.329  0.00  0.00    -0.060 A 
ATOM      3  C   LIG    1       -1.448  -1.250  -2.435  0.00  0.00    +0.230 A 
ATOM      4  N   LIG    1       -1.153  -0.445  -1.436  0.00  0.00    -0.460 NA
ATOM      5  C   LIG    1       -0.627  -0.916  -0.300  0.00  0.00    +0.290 A 
ATOM      6  C   LIG    1       -0.224  -0.289   0.885  0.00  0.00    -0.200 A 
ATOM      7  C   LIG    1        0.265  -1.288   1.736  0.00  0.00    +0.140 A 
ATOM      8  N   LIG    1        0.177  -2.444   1.126  0.00  0.00    -0.300 NA
ATOM      9  C   LIG    1        0.803  -1.069   3.127  0.00  0.00    +0.180 C 
ATOM     10  N   LIG    1       -0.371  -2.253  -0.147  0.00  0.00    -0.330 N 
ENDROOT
BRANCH   6  11
ATOM     11  C   LIG    1       -0.305   1.159   1.186  0.00  0.00    +0.010 A 
ATOM     12  C   LIG    1       -1.547   1.788   1.272  0.00  0.00    +0.020 A 
ATOM     13  C   LIG    1       -1.616   3.136   1.557  0.00  0.00    +0.000 A 
ATOM     14  C   LIG    1       -0.456   3.866   1.746  0.00  0.00    +0.000 A 
ATOM     15  C   LIG    1        0.779   3.249   1.657  0.00  0.00    +0.000 A 
ATOM     16  C   LIG    1        0.861   1.901   1.378  0.00  0.00    +0.010 A 
ENDBRANCH   6  11
BRANCH   3  17
ATOM     17  C   LIG    1       -2.044  -0.687  -3.700  0.00  0.00    -0.020 C 
ATOM     18  C   LIG    1       -3.416  -1.320  -3.942  0.00  0.00    +0.050 C 
ATOM     19  C   LIG    1       -1.122  -0.998  -4.880  0.00  0.00    +0.050 C 
ATOM     20  C   LIG    1       -2.200   0.829  -3.560  0.00  0.00    +0.050 C 
ENDBRANCH   3  17
BRANCH   1  21
ATOM     21  N   LIG    1       -0.420  -4.471  -1.030  0.00  0.00    -0.670 N 
ATOM     22  H   LIG    1       -1.147  -5.107  -1.119  0.00  0.00    +0.430 HD
BRANCH  21  27
ATOM     23  C   LIG    1        4.840  -6.301   0.044  0.00  0.00    +0.090 C 
ATOM     24  C   LIG    1        3.442  -5.815  -0.241  0.00  0.00    -0.110 A 
ATOM     25  C   LIG    1        3.222  -4.482  -0.533  0.00  0.00    +0.060 A 
ATOM     26  C   LIG    1        1.943  -4.034  -0.800  0.00  0.00    -0.030 A 
ATOM     27  C   LIG    1        0.875  -4.922  -0.765  0.00  0.00    +0.200 A 
ATOM     28  C   LIG    1        1.099  -6.261  -0.471  0.00  0.00    -0.010 A 
ATOM     29  C   LIG    1        2.382  -6.705  -0.209  0.00  0.00    +0.000 A 
ATOM     30 CL   LIG    1        2.663  -8.378   0.158  0.00  0.00    -0.060 Cl
ENDBRANCH  21  27
ENDBRANCH   1  21
TORSDOF 4
