REMARK  Name = ZINCrD0000074vWN.0
REMARK                            x       y       z     vdW  Elec       q    Type
REMARK                         _______ _______ _______ _____ _____    ______ ____
ROOT
ATOM      1  N   LIG    1       -0.079   1.103  -2.438  0.00  0.00    -0.730 N 
ATOM      2  H   LIG    1        0.454   0.294  -2.401  0.00  0.00    +0.400 HD
ATOM      3  C   LIG    1       -0.199   1.778  -3.598  0.00  0.00    +0.520 C 
ATOM      4  O   LIG    1       -0.866   2.791  -3.644  0.00  0.00    -0.530 OA
ENDROOT
BRANCH   1   9
ATOM      5  N   LIG    1       -0.700   1.559   1.216  0.00  0.00    -0.470 N 
ATOM      6  C   LIG    1       -2.071   1.038   1.287  0.00  0.00    +0.180 C 
ATOM      7  C   LIG    1       -2.872   1.544   0.085  0.00  0.00    +0.050 C 
ATOM      8  C   LIG    1       -2.194   1.077  -1.207  0.00  0.00    +0.010 C 
ATOM      9  C   LIG    1       -0.752   1.593  -1.232  0.00  0.00    +0.250 C 
ATOM     10  C   LIG    1       -0.013   1.086   0.008  0.00  0.00    +0.210 C 
BRANCH   5  15
ATOM     11  C   LIG    1        2.826  -0.245   4.250  0.00  0.00    +0.160 C 
ATOM     12  C   LIG    1        1.579   0.431   3.742  0.00  0.00    +0.090 A 
ATOM     13  N   LIG    1        0.663   1.003   4.481  0.00  0.00    -0.300 NA
ATOM     14  N   LIG    1       -0.331   1.513   3.636  0.00  0.00    -0.380 N 
ATOM     15  C   LIG    1        0.019   1.227   2.361  0.00  0.00    +0.280 A 
ATOM     16  C   LIG    1       -1.537   2.229   4.059  0.00  0.00    +0.350 C 
ATOM     17  C   LIG    1        1.200   0.550   2.402  0.00  0.00    -0.160 A 
ENDBRANCH   5  15
ENDBRANCH   1   9
BRANCH   3  18
ATOM     18  C   LIG    1        0.494   1.275  -4.838  0.00  0.00    +0.080 C 
BRANCH  18  19
ATOM     19  C   LIG    1        0.196   2.217  -6.006  0.00  0.00    -0.010 C 
ATOM     20  C   LIG    1       -1.095   1.868  -6.766  0.00  0.00    +0.040 C 
ATOM     21  C   LIG    1       -0.233   0.954  -7.652  0.00  0.00    +0.020 C 
ATOM     22  C   LIG    1        0.957   1.860  -7.294  0.00  0.00    +0.040 C 
BRANCH  21  23
ATOM     23  C   LIG    1       -0.607   0.998  -9.111  0.00  0.00    -0.070 A 
ATOM     24  C   LIG    1       -0.997   2.191  -9.689  0.00  0.00    +0.000 A 
ATOM     25  C   LIG    1       -1.337   2.232 -11.029  0.00  0.00    +0.000 A 
ATOM     26  C   LIG    1       -1.295   1.078 -11.788  0.00  0.00    -0.010 A 
ATOM     27  C   LIG    1       -0.909  -0.117 -11.209  0.00  0.00    +0.000 A 
ATOM     28  C   LIG    1       -0.566  -0.157  -9.870  0.00  0.00    +0.000 A 
ENDBRANCH  21  23
ENDBRANCH  18  19
ENDBRANCH   3  18
TORSDOF 5
