REMARK  Name = ZINCrg000000tR2C.0
REMARK                            x       y       z     vdW  Elec       q    Type
REMARK                         _______ _______ _______ _____ _____    ______ ____
ROOT
ATOM      1  C   LIG    1       -1.064  -2.266   4.142  0.00  0.00    +0.130 A 
ATOM      2  C   LIG    1       -1.577  -1.896   2.906  0.00  0.00    +0.030 A 
ATOM      3  C   LIG    1       -1.226  -0.683   2.347  0.00  0.00    +0.010 A 
ATOM      4  C   LIG    1       -0.363   0.169   3.025  0.00  0.00    +0.140 A 
ATOM      5  C   LIG    1        0.154  -0.203   4.258  0.00  0.00    -0.090 A 
ATOM      6  C   LIG    1        1.093   0.722   4.986  0.00  0.00    +0.110 C 
ATOM      7  C   LIG    1        1.958   1.474   3.974  0.00  0.00    +0.100 C 
ATOM      8  C   LIG    1        1.089   2.054   2.889  0.00  0.00    +0.520 C 
ATOM      9  O   LIG    1        1.377   3.126   2.400  0.00  0.00    -0.510 OA
ATOM     10  N   LIG    1       -0.002   1.397   2.457  0.00  0.00    -0.550 N 
ATOM     11  C   LIG    1       -0.197  -1.415   4.816  0.00  0.00    +0.060 A 
ENDROOT
BRANCH   1  13
ATOM     12  C   LIG    1       -1.530  -3.615   6.047  0.00  0.00    +0.490 C 
ATOM     13  N   LIG    1       -1.420  -3.496   4.709  0.00  0.00    -0.670 N 
ATOM     14  H   LIG    1       -1.586  -4.263   4.138  0.00  0.00    +0.410 HD
ATOM     15  O   LIG    1       -1.416  -2.636   6.754  0.00  0.00    -0.510 OA
BRANCH  12  16
ATOM     16  C   LIG    1       -1.796  -4.964   6.664  0.00  0.00    +0.400 C 
BRANCH  16  20
ATOM     17  O   LIG    1       -3.217  -4.326  11.349  0.00  0.00    -0.470 OA
ATOM     18  C   LIG    1       -2.570  -4.521  10.343  0.00  0.00    +0.530 C 
ATOM     19  C   LIG    1       -3.082  -4.553   8.916  0.00  0.00    +0.320 C 
ATOM     20  N   LIG    1       -1.873  -4.828   8.121  0.00  0.00    -0.610 N 
ATOM     21  C   LIG    1       -0.854  -4.935   8.993  0.00  0.00    +0.710 C 
ATOM     22  O   LIG    1        0.293  -5.165   8.666  0.00  0.00    -0.540 OA
ATOM     23  N   LIG    1       -1.245  -4.756  10.260  0.00  0.00    -0.680 N 
ATOM     24  H   LIG    1       -0.650  -4.795  11.024  0.00  0.00    +0.440 HD
ENDBRANCH  16  20
ENDBRANCH  12  16
ENDBRANCH   1  13
BRANCH  10  25
ATOM     25  C   LIG    1       -0.821   1.973   1.387  0.00  0.00    +0.330 C 
BRANCH  25  26
ATOM     26  C   LIG    1       -0.304   1.488   0.031  0.00  0.00    +0.430 C 
ATOM     27  F   LIG    1       -1.087   2.038  -0.990  0.00  0.00    -0.180 F 
ATOM     28  F   LIG    1        1.026   1.892  -0.132  0.00  0.00    -0.170 F 
ATOM     29  F   LIG    1       -0.378   0.092  -0.025  0.00  0.00    -0.180 F 
ENDBRANCH  25  26
ENDBRANCH  10  25
TORSDOF 5
