REMARK  Name = ZINCrH000004rIJW.0
REMARK                            x       y       z     vdW  Elec       q    Type
REMARK                         _______ _______ _______ _____ _____    ______ ____
ROOT
ATOM      1  C   LIG    1       -4.814   2.354   0.062  0.00  0.00    +0.320 C 
ATOM      2  C   LIG    1       -5.356   2.436  -1.381  0.00  0.00    +0.050 C 
ATOM      3  C   LIG    1       -6.558   1.455  -1.356  0.00  0.00    +0.040 C 
ATOM      4  C   LIG    1       -6.040   0.352  -0.400  0.00  0.00    +0.260 C 
ATOM      5  N   LIG    1       -5.268   1.075   0.627  0.00  0.00    -0.600 N 
ATOM      6  C   LIG    1       -5.019   0.635   1.877  0.00  0.00    +0.540 C 
ATOM      7  O   LIG    1       -4.368   1.317   2.640  0.00  0.00    -0.520 OA
ENDROOT
BRANCH   1  15
ATOM      8  C   LIG    1        2.472   1.034  -0.016  0.00  0.00    +0.100 C 
ATOM      9  C   LIG    1        1.161   1.776   0.001  0.00  0.00    -0.090 A 
ATOM     10  C   LIG    1        1.157   3.163   0.009  0.00  0.00    +0.030 A 
ATOM     11  C   LIG    1       -0.034   3.859   0.024  0.00  0.00    +0.010 A 
ATOM     12  C   LIG    1       -1.236   3.164   0.031  0.00  0.00    +0.050 A 
ATOM     13  N   LIG    1       -2.564   3.541   0.046  0.00  0.00    -0.600 N 
ATOM     14  H   LIG    1       -2.904   4.449   0.054  0.00  0.00    +0.420 HD
ATOM     15  C   LIG    1       -3.307   2.402   0.047  0.00  0.00    +0.280 A 
ATOM     16  N   LIG    1       -2.529   1.359   0.033  0.00  0.00    -0.470 NA
ATOM     17  C   LIG    1       -1.231   1.759   0.017  0.00  0.00    +0.050 A 
ATOM     18  C   LIG    1       -0.013   1.076   0.008  0.00  0.00    +0.060 A 
ENDBRANCH   1  15
BRANCH   6  19
ATOM     19  C   LIG    1       -5.548  -0.702   2.325  0.00  0.00    +0.110 C 
BRANCH  19  20
ATOM     20  C   LIG    1       -5.133  -0.955   3.751  0.00  0.00    -0.100 A 
ATOM     21  C   LIG    1       -5.945  -0.545   4.792  0.00  0.00    +0.060 A 
ATOM     22  C   LIG    1       -5.571  -0.777   6.100  0.00  0.00    -0.010 A 
ATOM     23  C   LIG    1       -4.372  -1.424   6.383  0.00  0.00    +0.110 A 
ATOM     24  O   LIG    1       -3.822  -1.760   7.582  0.00  0.00    -0.310 OA
ATOM     25  C   LIG    1       -2.418  -2.013   7.406  0.00  0.00    +0.240 C 
ATOM     26  C   LIG    1       -2.336  -2.482   5.934  0.00  0.00    +0.070 C 
ATOM     27  C   LIG    1       -3.562  -1.827   5.328  0.00  0.00    -0.170 A 
ATOM     28  C   LIG    1       -3.941  -1.603   4.023  0.00  0.00    +0.070 A 
ENDBRANCH  19  20
ENDBRANCH   6  19
TORSDOF 3
