REMARK  Name = ZINCrH000004rIJW.1
REMARK                            x       y       z     vdW  Elec       q    Type
REMARK                         _______ _______ _______ _____ _____    ______ ____
ROOT
ATOM      1  C   LIG    1        1.223  -0.328  -0.885  0.00  0.00    +0.320 C 
ATOM      2  C   LIG    1        0.002  -0.004   0.002  0.00  0.00    +0.050 C 
ATOM      3  C   LIG    1       -0.019   1.547   0.011  0.00  0.00    +0.040 C 
ATOM      4  C   LIG    1        1.494   1.879  -0.002  0.00  0.00    +0.260 C 
ATOM      5  N   LIG    1        2.098   0.853  -0.871  0.00  0.00    -0.600 N 
ATOM      6  C   LIG    1        3.260   0.977  -1.543  0.00  0.00    +0.540 C 
ATOM      7  O   LIG    1        3.662   0.064  -2.233  0.00  0.00    -0.520 OA
ENDROOT
BRANCH   1  14
ATOM      8  C   LIG    1        3.985  -6.937   1.137  0.00  0.00    +0.100 C 
ATOM      9  C   LIG    1        3.767  -5.451   1.009  0.00  0.00    -0.070 A 
ATOM     10  C   LIG    1        4.589  -4.572   1.701  0.00  0.00    +0.000 A 
ATOM     11  C   LIG    1        4.408  -3.222   1.598  0.00  0.00    +0.070 A 
ATOM     12  C   LIG    1        3.388  -2.716   0.790  0.00  0.00    +0.040 A 
ATOM     13  N   LIG    1        2.967  -1.460   0.489  0.00  0.00    -0.470 NA
ATOM     14  C   LIG    1        1.957  -1.521  -0.330  0.00  0.00    +0.280 A 
ATOM     15  N   LIG    1        1.658  -2.819  -0.607  0.00  0.00    -0.600 N 
ATOM     16  H   LIG    1        0.947  -3.134  -1.186  0.00  0.00    +0.420 HD
ATOM     17  C   LIG    1        2.556  -3.605   0.088  0.00  0.00    +0.050 A 
ATOM     18  C   LIG    1        2.754  -4.973   0.205  0.00  0.00    +0.000 A 
ENDBRANCH   1  14
BRANCH   6  19
ATOM     19  C   LIG    1        4.059   2.250  -1.437  0.00  0.00    +0.110 C 
BRANCH  19  20
ATOM     20  C   LIG    1        5.305   2.133  -2.277  0.00  0.00    -0.100 A 
ATOM     21  C   LIG    1        5.288   2.527  -3.602  0.00  0.00    +0.060 A 
ATOM     22  C   LIG    1        6.426   2.425  -4.375  0.00  0.00    -0.010 A 
ATOM     23  C   LIG    1        7.603   1.922  -3.826  0.00  0.00    +0.110 A 
ATOM     24  O   LIG    1        8.827   1.747  -4.396  0.00  0.00    -0.310 OA
ATOM     25  C   LIG    1        9.591   0.822  -3.604  0.00  0.00    +0.240 C 
ATOM     26  C   LIG    1        9.001   1.015  -2.187  0.00  0.00    +0.070 C 
ATOM     27  C   LIG    1        7.606   1.524  -2.495  0.00  0.00    -0.170 A 
ATOM     28  C   LIG    1        6.471   1.635  -1.724  0.00  0.00    +0.070 A 
ENDBRANCH  19  20
ENDBRANCH   6  19
TORSDOF 3
