REMARK  Name = ZINCvU00000007Zs.0
REMARK                            x       y       z     vdW  Elec       q    Type
REMARK                         _______ _______ _______ _____ _____    ______ ____
ROOT
ATOM      1  N   LIG    1        8.051  -2.418  -1.534  0.00  0.00    -0.580 N 
ATOM      2  C   LIG    1        7.093  -2.625  -2.438  0.00  0.00    +0.530 C 
ATOM      3  C   LIG    1        6.044  -3.691  -2.306  0.00  0.00    +0.070 C 
ATOM      4  C   LIG    1        6.485  -4.731  -1.273  0.00  0.00    +0.070 C 
ATOM      5  C   LIG    1        6.948  -3.994  -0.010  0.00  0.00    +0.000 C 
ATOM      6  O   LIG    1        7.068  -1.913  -3.420  0.00  0.00    -0.550 OA
ATOM      7  C   LIG    1        8.229  -3.225  -0.333  0.00  0.00    +0.310 C 
ENDROOT
BRANCH   7   8
ATOM      8  C   LIG    1        8.576  -2.325   0.825  0.00  0.00    -0.140 A 
ATOM      9  C   LIG    1        9.714  -1.541   0.773  0.00  0.00    +0.070 A 
ATOM     10  C   LIG    1       10.030  -0.711   1.831  0.00  0.00    -0.080 A 
ATOM     11  C   LIG    1        9.212  -0.673   2.950  0.00  0.00    +0.140 A 
ATOM     12  C   LIG    1        8.074  -1.464   3.002  0.00  0.00    -0.020 A 
ATOM     13  C   LIG    1        7.758  -2.288   1.939  0.00  0.00    +0.060 A 
BRANCH  11  14
ATOM     14  O   LIG    1        9.525   0.138   3.995  0.00  0.00    -0.320 OA
ATOM     15  C   LIG    1       10.712   0.925   3.873  0.00  0.00    +0.250 C 
ENDBRANCH  11  14
ENDBRANCH   7   8
BRANCH   5  16
ATOM     16  C   LIG    1        5.878  -3.029   0.433  0.00  0.00    +0.510 C 
ATOM     17  N   LIG    1        4.937  -3.425   1.314  0.00  0.00    -0.640 N 
ATOM     18  H   LIG    1        4.949  -4.330   1.663  0.00  0.00    +0.420 HD
ATOM     19  O   LIG    1        5.863  -1.898  -0.003  0.00  0.00    -0.440 OA
BRANCH  17  20
ATOM     20  C   LIG    1        3.954  -2.538   1.721  0.00  0.00    +0.340 A 
ATOM     21  N   LIG    1        3.850  -1.319   1.319  0.00  0.00    -0.460 NA
ATOM     22  C   LIG    1        2.836  -0.578   1.806  0.00  0.00    +0.110 A 
ATOM     23  C   LIG    1        2.510   0.766   1.525  0.00  0.00    +0.070 A 
ATOM     24  C   LIG    1        1.427   1.358   2.125  0.00  0.00    +0.040 A 
ATOM     25  C   LIG    1        0.636   0.647   3.015  0.00  0.00    +0.030 A 
ATOM     26  C   LIG    1        0.935  -0.666   3.304  0.00  0.00    +0.060 A 
ATOM     27  C   LIG    1        2.030  -1.283   2.705  0.00  0.00    -0.180 A 
ATOM     28  S   LIG    1        2.670  -2.918   2.861  0.00  0.00    +0.060 S 
ENDBRANCH  17  20
ENDBRANCH   5  16
BRANCH   1  29
ATOM     29  C   LIG    1        8.983  -1.311  -1.762  0.00  0.00    +0.270 C 
BRANCH  29  30
ATOM     30  C   LIG    1       10.278  -1.852  -2.373  0.00  0.00    -0.010 C 
BRANCH  30  32
ATOM     31  C   LIG    1       12.546  -1.237  -3.221  0.00  0.00    +0.010 C 
ATOM     32  C   LIG    1       11.251  -0.696  -2.611  0.00  0.00    +0.010 C 
ENDBRANCH  30  32
ENDBRANCH  29  30
ENDBRANCH   1  29
TORSDOF 7
