REMARK  Name = ZINCnE000001UbEB.0
REMARK                            x       y       z     vdW  Elec       q    Type
REMARK                         _______ _______ _______ _____ _____    ______ ____
ROOT
ATOM      1  C   LIG    1       -0.022   1.754   0.012  0.00  0.00    +0.460 A 
ATOM      2  N   LIG    1        1.179   2.219   0.003  0.00  0.00    -0.620 NA
ATOM      3  C   LIG    1        2.199   1.334  -0.012  0.00  0.00    +0.160 A 
ATOM      4  C   LIG    1        3.586   1.588  -0.025  0.00  0.00    +0.070 A 
ATOM      5  C   LIG    1        4.484   0.550  -0.039  0.00  0.00    -0.030 A 
ATOM      6  C   LIG    1        4.040  -0.768  -0.042  0.00  0.00    +0.050 A 
ATOM      7  C   LIG    1        2.685  -1.038  -0.030  0.00  0.00    +0.080 A 
ATOM      8  C   LIG    1        1.764   0.006  -0.015  0.00  0.00    -0.200 A 
ATOM      9  S   LIG    1        0.002  -0.004   0.002  0.00  0.00    +0.030 S 
ENDROOT
BRANCH   1  10
ATOM     10  N   LIG    1       -1.166   2.526   0.021  0.00  0.00    -1.040 NA
BRANCH  10  12
ATOM     11  O   LIG    1       -0.472   4.534   1.279  0.00  0.00    -0.990 OA
ATOM     12  S   LIG    1       -1.050   4.178   0.030  0.00  0.00    +2.670 S 
ATOM     13  O   LIG    1       -0.485   4.547  -1.221  0.00  0.00    -0.990 OA
BRANCH  12  14
ATOM     14  C   LIG    1       -2.692   4.817   0.041  0.00  0.00    -0.720 A 
ATOM     15  C   LIG    1       -3.451   5.102   1.122  0.00  0.00    +0.090 A 
ATOM     16  C   LIG    1       -4.705   5.595   0.833  0.00  0.00    +0.260 A 
ATOM     17  N   LIG    1       -5.013   5.719  -0.425  0.00  0.00    -0.460 NA
ATOM     18  S   LIG    1       -3.670   5.201  -1.321  0.00  0.00    +0.370 S 
ENDBRANCH  12  14
ENDBRANCH  10  12
ENDBRANCH   1  10
BRANCH   6  19
ATOM     19  O   LIG    1        4.939  -1.789  -0.056  0.00  0.00    -0.310 OA
BRANCH  19  20
ATOM     20  C   LIG    1        6.323  -1.435  -0.069  0.00  0.00    +0.600 C 
ATOM     21  F   LIG    1        6.600  -0.674  -1.210  0.00  0.00    -0.170 F 
ATOM     22  F   LIG    1        7.101  -2.597  -0.083  0.00  0.00    -0.140 F 
ATOM     23  F   LIG    1        6.623  -0.686   1.075  0.00  0.00    -0.170 F 
ENDBRANCH  19  20
ENDBRANCH   6  19
TORSDOF 5
