REMARK  Name = ZINCkj000005iYJu.1
REMARK                            x       y       z     vdW  Elec       q    Type
REMARK                         _______ _______ _______ _____ _____    ______ ____
ROOT
ATOM      1  N   LIG    1        4.046  -0.270  -0.038  0.00  0.00    -0.380 N 
ATOM      2  C   LIG    1        4.644   0.213   1.214  0.00  0.00    +0.330 C 
ATOM      3  H   LIG    1        4.466   0.211  -0.819  0.00  0.00    +0.430 HD
ENDROOT
BRANCH   1   4
ATOM      4  C   LIG    1        4.281  -1.714  -0.168  0.00  0.00    +0.330 C 
BRANCH   4   8
ATOM      5  C   LIG    1        8.474  -2.444  -0.562  0.00  0.00    -0.050 A 
ATOM      6  C   LIG    1        7.887  -2.417   0.697  0.00  0.00    +0.040 A 
ATOM      7  C   LIG    1        6.532  -2.181   0.821  0.00  0.00    +0.070 A 
ATOM      8  C   LIG    1        5.759  -1.971  -0.307  0.00  0.00    -0.180 A 
ATOM      9  C   LIG    1        6.339  -2.003  -1.562  0.00  0.00    +0.060 A 
ATOM     10  C   LIG    1        7.694  -2.233  -1.693  0.00  0.00    +0.000 A 
BRANCH   5  12
ATOM     11  C   LIG    1       10.461  -2.679  -2.519  0.00  0.00    +0.150 C 
ATOM     12  S   LIG    1       10.202  -2.745  -0.725  0.00  0.00    -0.080 S 
ENDBRANCH   5  12
ENDBRANCH   4   8
ENDBRANCH   1   4
BRANCH   1  13
ATOM     13  C   LIG    1        2.600  -0.009  -0.022  0.00  0.00    +0.320 C 
BRANCH  13  14
ATOM     14  C   LIG    1        2.358   1.479  -0.013  0.00  0.00    +0.540 C 
ATOM     15  N   LIG    1        1.098   1.957   0.002  0.00  0.00    -0.570 N 
ATOM     16  C   LIG    1        0.727   3.380   0.013  0.00  0.00    +0.300 C 
ATOM     17  C   LIG    1       -0.814   3.358   0.028  0.00  0.00    +0.280 C 
ATOM     18  N   LIG    1       -1.147   1.926   0.018  0.00  0.00    -0.710 N 
ATOM     19  H   LIG    1       -2.044   1.558   0.020  0.00  0.00    +0.450 HD
ATOM     20  C   LIG    1       -0.014   1.211   0.009  0.00  0.00    +0.700 C 
ATOM     21  O   LIG    1        0.002  -0.004   0.002  0.00  0.00    -0.560 OA
ATOM     22  O   LIG    1        3.297   2.246  -0.018  0.00  0.00    -0.490 OA
ENDBRANCH  13  14
ENDBRANCH   1  13
TORSDOF 5
