REMARK  Name = ZINCkj000005iYJu.2
REMARK                            x       y       z     vdW  Elec       q    Type
REMARK                         _______ _______ _______ _____ _____    ______ ____
ROOT
ATOM      1  N   LIG    1       -0.099   6.528  -1.349  0.00  0.00    -0.380 N 
ATOM      2  C   LIG    1       -1.355   6.126  -1.996  0.00  0.00    +0.330 C 
ATOM      3  H   LIG    1        0.681   6.139  -1.857  0.00  0.00    +0.430 HD
ENDROOT
BRANCH   1   4
ATOM      4  C   LIG    1       -0.080   6.032   0.034  0.00  0.00    +0.330 C 
BRANCH   4   8
ATOM      5  C   LIG    1       -0.022   1.758   0.012  0.00  0.00    -0.050 A 
ATOM      6  C   LIG    1       -1.234   2.438   0.021  0.00  0.00    +0.000 A 
ATOM      7  C   LIG    1       -1.248   3.819   0.034  0.00  0.00    +0.060 A 
ATOM      8  C   LIG    1       -0.059   4.525   0.026  0.00  0.00    -0.180 A 
ATOM      9  C   LIG    1        1.149   3.851   0.011  0.00  0.00    +0.070 A 
ATOM     10  C   LIG    1        1.171   2.471   0.004  0.00  0.00    +0.040 A 
BRANCH   5  12
ATOM     11  C   LIG    1       -1.760  -0.436   0.017  0.00  0.00    +0.150 C 
ATOM     12  S   LIG    1        0.002  -0.004   0.002  0.00  0.00    -0.080 S 
ENDBRANCH   5  12
ENDBRANCH   4   8
ENDBRANCH   1   4
BRANCH   1  13
ATOM     13  C   LIG    1        0.001   7.994  -1.344  0.00  0.00    +0.320 C 
BRANCH  13  14
ATOM     14  C   LIG    1        0.105   8.495  -2.761  0.00  0.00    +0.540 C 
ATOM     15  N   LIG    1        0.208   9.816  -3.003  0.00  0.00    -0.570 N 
ATOM     16  C   LIG    1        0.321  10.433  -4.333  0.00  0.00    +0.300 C 
ATOM     17  C   LIG    1        0.405  11.943  -4.035  0.00  0.00    +0.280 C 
ATOM     18  N   LIG    1        0.339  12.015  -2.568  0.00  0.00    -0.710 N 
ATOM     19  H   LIG    1        0.370  12.831  -2.043  0.00  0.00    +0.450 HD
ATOM     20  C   LIG    1        0.229  10.777  -2.070  0.00  0.00    +0.700 C 
ATOM     21  O   LIG    1        0.156  10.545  -0.879  0.00  0.00    -0.560 OA
ATOM     22  O   LIG    1        0.096   7.708  -3.684  0.00  0.00    -0.490 OA
ENDBRANCH  13  14
ENDBRANCH   1  13
TORSDOF 5
