REMARK  Name = ZINCqH000000303M.0
REMARK                            x       y       z     vdW  Elec       q    Type
REMARK                         _______ _______ _______ _____ _____    ______ ____
ROOT
ATOM      1  C   LIG    1       -2.489   1.348   0.021  0.00  0.00    +0.060 C 
ENDROOT
BRANCH   1   2
ATOM      2  C   LIG    1       -2.801   0.886  -1.379  0.00  0.00    -0.090 A 
ATOM      3  C   LIG    1       -2.971   1.813  -2.390  0.00  0.00    +0.040 A 
ATOM      4  C   LIG    1       -3.253   1.390  -3.676  0.00  0.00    +0.000 A 
ATOM      5  C   LIG    1       -3.373   0.040  -3.948  0.00  0.00    +0.010 A 
ATOM      6  C   LIG    1       -3.208  -0.887  -2.936  0.00  0.00    +0.010 A 
ATOM      7  C   LIG    1       -2.922  -0.464  -1.651  0.00  0.00    +0.060 A 
ENDBRANCH   1   2
BRANCH   1   9
ATOM      8  N   LIG    1       -0.018   1.461   0.010  0.00  0.00    -0.600 N 
ATOM      9  C   LIG    1       -1.194   2.119   0.019  0.00  0.00    +0.540 C 
ATOM     10  O   LIG    1       -1.210   3.331   0.026  0.00  0.00    -0.520 OA
BRANCH   8  12
ATOM     11  C   LIG    1        0.023  -0.522   1.442  0.00  0.00    +0.020 C 
ATOM     12  C   LIG    1        0.002  -0.004   0.002  0.00  0.00    +0.270 C 
ENDBRANCH   8  12
BRANCH   8  13
ATOM     13  C   LIG    1        1.241   2.211   0.002  0.00  0.00    +0.280 C 
ATOM     14  C   LIG    1        1.665   2.479  -1.443  0.00  0.00    +0.020 C 
ENDBRANCH   8  13
ENDBRANCH   1   9
BRANCH   1  15
ATOM     15  S   LIG    1       -3.825   2.413   0.617  0.00  0.00    +0.090 S 
BRANCH  15  16
ATOM     16  C   LIG    1       -5.148   1.250   0.661  0.00  0.00    +0.150 A 
ATOM     17  N   LIG    1       -5.079  -0.020   0.331  0.00  0.00    -0.270 NA
ATOM     18  N   LIG    1       -6.227  -0.578   0.480  0.00  0.00    -0.250 NA
ATOM     19  C   LIG    1       -7.101   0.302   0.915  0.00  0.00    +0.260 A 
ATOM     20  N   LIG    1       -6.434   1.500   1.049  0.00  0.00    -0.460 N 
ATOM     21  C   LIG    1       -6.988   2.776   1.508  0.00  0.00    +0.360 C 
BRANCH  19  22
ATOM     22  C   LIG    1       -8.521   0.054   1.209  0.00  0.00    +0.040 A 
ATOM     23  C   LIG    1       -9.108  -1.167   1.351  0.00  0.00    +0.030 A 
ATOM     24  C   LIG    1      -10.469  -0.934   1.626  0.00  0.00    -0.050 A 
ATOM     25  C   LIG    1      -10.649   0.401   1.631  0.00  0.00    +0.200 A 
ATOM     26  O   LIG    1       -9.471   0.996   1.378  0.00  0.00    -0.180 OA
ENDBRANCH  19  22
ENDBRANCH  15  16
ENDBRANCH   1  15
TORSDOF 7
