REMARK  Name = ZINCrH00000No4zB.0
REMARK                            x       y       z     vdW  Elec       q    Type
REMARK                         _______ _______ _______ _____ _____    ______ ____
ROOT
ATOM      1  N   LIG    1        0.002  -0.004   0.002  0.00  0.00    -0.680 N 
ATOM      2  H   LIG    1       -0.827  -0.501   0.090  0.00  0.00    +0.410 HD
ATOM      3  C   LIG    1        1.173  -0.661  -0.114  0.00  0.00    +0.720 C 
ATOM      4  N   LIG    1        1.183  -2.005  -0.223  0.00  0.00    -0.630 N 
ATOM      5  C   LIG    1       -0.006  -2.876  -0.223  0.00  0.00    +0.230 C 
ATOM      6  C   LIG    1        0.511  -4.256   0.248  0.00  0.00    +0.040 C 
ATOM      7  C   LIG    1        1.911  -4.312  -0.420  0.00  0.00    +0.050 C 
ATOM      8  C   LIG    1        2.383  -2.844  -0.356  0.00  0.00    +0.300 C 
ATOM      9  O   LIG    1        2.220  -0.043  -0.121  0.00  0.00    -0.550 OA
ENDROOT
BRANCH   1  14
ATOM     10  C   LIG    1        0.981   3.491  -0.622  0.00  0.00    +0.150 A 
ATOM     11  C   LIG    1       -0.063   4.170  -0.012  0.00  0.00    -0.090 A 
ATOM     12  C   LIG    1       -1.083   3.467   0.601  0.00  0.00    +0.060 A 
ATOM     13  C   LIG    1       -1.069   2.082   0.603  0.00  0.00    +0.030 A 
ATOM     14  C   LIG    1       -0.018   1.397  -0.004  0.00  0.00    +0.190 A 
ATOM     15  C   LIG    1        1.004   2.104  -0.618  0.00  0.00    +0.010 A 
BRANCH  10  17
ATOM     16  C   LIG    1        1.897   5.611  -1.190  0.00  0.00    +0.250 C 
ATOM     17  O   LIG    1        1.984   4.185  -1.224  0.00  0.00    -0.310 OA
ENDBRANCH  10  17
BRANCH  13  18
ATOM     18  O   LIG    1       -2.076   1.391   1.202  0.00  0.00    -0.490 OA
ATOM     19  H   LIG    1       -1.921   1.201   2.137  0.00  0.00    +0.380 HD
ENDBRANCH  13  18
ENDBRANCH   1  14
BRANCH   8  20
ATOM     20  C   LIG    1        3.123  -2.485  -1.619  0.00  0.00    -0.150 A 
ATOM     21  C   LIG    1        2.477  -1.792  -2.624  0.00  0.00    +0.100 A 
ATOM     22  C   LIG    1        3.152  -1.461  -3.783  0.00  0.00    -0.110 A 
ATOM     23  C   LIG    1        4.483  -1.823  -3.939  0.00  0.00    +0.170 A 
ATOM     24  C   LIG    1        5.134  -2.518  -2.932  0.00  0.00    -0.100 A 
ATOM     25  C   LIG    1        4.455  -2.845  -1.768  0.00  0.00    +0.180 A 
BRANCH  23  26
ATOM     26  O   LIG    1        5.147  -1.497  -5.079  0.00  0.00    -0.320 OA
ATOM     27  C   LIG    1        4.414  -0.780  -6.075  0.00  0.00    +0.250 C 
ENDBRANCH  23  26
BRANCH  25  28
ATOM     28  O   LIG    1        5.092  -3.522  -0.776  0.00  0.00    -0.310 OA
ATOM     29  C   LIG    1        6.463  -3.860  -0.999  0.00  0.00    +0.250 C 
ENDBRANCH  25  28
ENDBRANCH   8  20
TORSDOF 6
