REMARK  Name = ZINCtj00000nxB4a.0
REMARK                            x       y       z     vdW  Elec       q    Type
REMARK                         _______ _______ _______ _____ _____    ______ ____
ROOT
ATOM      1  C   LIG    1       -1.453  -1.327  -0.219  0.00  0.00    +0.190 C 
ATOM      2  C   LIG    1       -2.562  -0.316  -0.082  0.00  0.00    +0.150 A 
ATOM      3  C   LIG    1       -3.902  -0.579  -0.029  0.00  0.00    -0.120 A 
ATOM      4  N   LIG    1       -4.559   0.587   0.095  0.00  0.00    -0.200 NA
ATOM      5  N   LIG    1       -3.714   1.558   0.128  0.00  0.00    -0.040 NA
ATOM      6  N   LIG    1       -2.423   1.024   0.011  0.00  0.00    -0.300 N 
ENDROOT
BRANCH   6   7
ATOM      7  C   LIG    1       -1.221   1.742   0.000  0.00  0.00    +0.110 A 
ATOM      8  C   LIG    1       -0.172   1.357   0.807  0.00  0.00    +0.070 A 
ATOM      9  C   LIG    1        1.029   2.061   0.798  0.00  0.00    +0.030 A 
ATOM     10  C   LIG    1        1.203   3.150  -0.001  0.00  0.00    +0.100 A 
ATOM     11  C   LIG    1        0.156   3.578  -0.834  0.00  0.00    -0.110 A 
ATOM     12  C   LIG    1        0.285   4.694  -1.676  0.00  0.00    +0.340 A 
ATOM     13  N   LIG    1       -0.720   5.058  -2.438  0.00  0.00    -0.480 NA
ATOM     14  C   LIG    1       -1.877   4.412  -2.455  0.00  0.00    +0.260 A 
ATOM     15  C   LIG    1       -2.102   3.317  -1.675  0.00  0.00    -0.020 A 
ATOM     16  C   LIG    1       -1.072   2.868  -0.832  0.00  0.00    -0.000 A 
ENDBRANCH   6   7
BRANCH   3  17
ATOM     17  C   LIG    1       -4.522  -1.915  -0.095  0.00  0.00    +0.620 C 
ATOM     18  N   LIG    1       -5.862  -2.041  -0.032  0.00  0.00    -0.730 N 
ATOM     19  H   LIG    1       -6.419  -1.251   0.058  0.00  0.00    +0.400 HD
ATOM     20  O   LIG    1       -3.824  -2.905  -0.208  0.00  0.00    -0.510 OA
BRANCH  18  21
ATOM     21  C   LIG    1       -6.478  -3.368  -0.098  0.00  0.00    +0.280 C 
BRANCH  21  22
ATOM     22  C   LIG    1       -7.999  -3.230  -0.005  0.00  0.00    +0.120 C 
ATOM     23  C   LIG    1       -8.367  -2.451   1.260  0.00  0.00    +0.230 C 
ATOM     24  N   LIG    1       -9.205  -3.277   2.132  0.00  0.00    -0.370 N 
ATOM     25  C   LIG    1      -10.456  -3.634   1.458  0.00  0.00    +0.250 C 
ATOM     26  C   LIG    1      -10.157  -4.452   0.199  0.00  0.00    +0.080 C 
ATOM     27  C   LIG    1       -8.483  -4.481   2.552  0.00  0.00    +0.260 C 
ATOM     28  C   LIG    1       -8.120  -5.327   1.329  0.00  0.00    +0.080 C 
ATOM     29  H   LIG    1       -9.436  -2.740   2.954  0.00  0.00    +0.430 HD
ATOM     30  C   LIG    1       -8.638  -4.623   0.068  0.00  0.00    +0.050 C 
BRANCH  22  31
ATOM     31  O   LIG    1       -8.488  -2.536  -1.154  0.00  0.00    -0.530 OA
ATOM     32  H   LIG    1       -8.127  -1.645  -1.258  0.00  0.00    +0.390 HD
ENDBRANCH  22  31
ENDBRANCH  21  22
ENDBRANCH  18  21
ENDBRANCH   3  17
TORSDOF 5
