REMARK  Name = ZINCqH0000037ePV.0
REMARK                            x       y       z     vdW  Elec       q    Type
REMARK                         _______ _______ _______ _____ _____    ______ ____
ROOT
ATOM      1  N   LIG    1       -1.372  -0.511   0.012  0.00  0.00    -0.710 N 
ATOM      2  H   LIG    1       -1.794  -0.752   0.852  0.00  0.00    +0.410 HD
ATOM      3  C   LIG    1       -2.051  -0.643  -1.145  0.00  0.00    +0.600 C 
ATOM      4  O   LIG    1       -1.522  -0.341  -2.197  0.00  0.00    -0.530 OA
ENDROOT
BRANCH   3   5
ATOM      5  C   LIG    1       -3.433  -1.153  -1.134  0.00  0.00    +0.010 A 
ATOM      6  C   LIG    1       -4.160  -1.299  -2.264  0.00  0.00    -0.020 A 
ATOM      7  S   LIG    1       -5.704  -1.915  -1.861  0.00  0.00    +0.190 S 
ATOM      8  C   LIG    1       -5.271  -1.929  -0.155  0.00  0.00    +0.100 A 
ATOM      9  N   LIG    1       -4.056  -1.496  -0.015  0.00  0.00    -0.440 NA
BRANCH   8  10
ATOM     10  C   LIG    1       -6.155  -2.367   0.948  0.00  0.00    -0.030 A 
ATOM     11  C   LIG    1       -5.698  -2.339   2.265  0.00  0.00    +0.060 A 
ATOM     12  C   LIG    1       -6.529  -2.742   3.290  0.00  0.00    +0.010 A 
ATOM     13  C   LIG    1       -7.810  -3.185   3.011  0.00  0.00    +0.030 A 
ATOM     14  C   LIG    1       -8.268  -3.222   1.706  0.00  0.00    +0.010 A 
ATOM     15  C   LIG    1       -7.448  -2.815   0.673  0.00  0.00    +0.030 A 
ENDBRANCH   8  10
ENDBRANCH   3   5
BRANCH   1  17
ATOM     16  C   LIG    1       -0.019   1.526   0.010  0.00  0.00    +0.040 C 
ATOM     17  C   LIG    1        0.002  -0.004   0.002  0.00  0.00    +0.290 C 
BRANCH  17  18
ATOM     18  C   LIG    1        0.731  -0.503   1.223  0.00  0.00    -0.110 A 
ATOM     19  C   LIG    1        0.084  -0.554   2.444  0.00  0.00    +0.050 A 
ATOM     20  C   LIG    1        0.746  -1.010   3.565  0.00  0.00    +0.000 A 
ATOM     21  C   LIG    1        2.073  -1.425   3.474  0.00  0.00    +0.140 A 
ATOM     22  N   LIG    1        2.943  -1.918   4.447  0.00  0.00    -0.660 N 
ATOM     23  H   LIG    1        2.701  -2.039   5.378  0.00  0.00    +0.410 HD
ATOM     24  C   LIG    1        4.156  -2.207   3.945  0.00  0.00    +0.530 C 
ATOM     25  C   LIG    1        4.117  -1.877   2.468  0.00  0.00    +0.140 C 
ATOM     26  O   LIG    1        5.104  -2.648   4.560  0.00  0.00    -0.500 OA
ATOM     27  C   LIG    1        2.712  -1.369   2.242  0.00  0.00    -0.140 A 
ATOM     28  C   LIG    1        2.048  -0.918   1.124  0.00  0.00    +0.080 A 
ENDBRANCH  17  18
ENDBRANCH   1  17
TORSDOF 4
