REMARK  Name = ZINCrH000004mg7I.0
REMARK                            x       y       z     vdW  Elec       q    Type
REMARK                         _______ _______ _______ _____ _____    ______ ____
ROOT
ATOM      1  C   LIG    1       -2.122  12.042   0.188  0.00  0.00    +0.560 C 
ATOM      2  N   LIG    1       -2.169  10.699   0.079  0.00  0.00    -0.670 N 
ATOM      3  H   LIG    1       -3.025  10.247   0.017  0.00  0.00    +0.410 HD
ATOM      4  O   LIG    1       -1.050  12.616   0.181  0.00  0.00    -0.500 OA
ENDROOT
BRANCH   1   9
ATOM      5  C   LIG    1       -5.777  12.891   0.442  0.00  0.00    +0.160 A 
ATOM      6  C   LIG    1       -5.726  14.273   0.553  0.00  0.00    -0.130 A 
ATOM      7  C   LIG    1       -4.504  14.930   0.547  0.00  0.00    +0.160 A 
ATOM      8  C   LIG    1       -3.328  14.207   0.428  0.00  0.00    +0.030 A 
ATOM      9  C   LIG    1       -3.374  12.817   0.315  0.00  0.00    -0.060 A 
ATOM     10  C   LIG    1       -4.606  12.162   0.318  0.00  0.00    -0.020 A 
BRANCH   5  12
ATOM     11  C   LIG    1       -8.144  13.068   0.576  0.00  0.00    +0.250 C 
ATOM     12  O   LIG    1       -6.976  12.253   0.450  0.00  0.00    -0.310 OA
ENDBRANCH   5  12
BRANCH   7  13
ATOM     13  O   LIG    1       -4.460  16.284   0.656  0.00  0.00    -0.310 OA
ATOM     14  C   LIG    1       -5.710  16.965   0.776  0.00  0.00    +0.250 C 
ENDBRANCH   7  13
ENDBRANCH   1   9
BRANCH   2  15
ATOM     15  C   LIG    1       -0.983   9.958   0.056  0.00  0.00    +0.140 A 
ATOM     16  C   LIG    1       -0.936   8.704   0.653  0.00  0.00    +0.000 A 
ATOM     17  C   LIG    1        0.234   7.966   0.633  0.00  0.00    +0.040 A 
ATOM     18  C   LIG    1        1.361   8.467   0.016  0.00  0.00    +0.030 A 
ATOM     19  C   LIG    1        1.327   9.731  -0.582  0.00  0.00    +0.030 A 
ATOM     20  C   LIG    1        0.145  10.475  -0.562  0.00  0.00    +0.060 A 
BRANCH  19  21
ATOM     21  C   LIG    1        2.497  10.257  -1.218  0.00  0.00    -0.080 C 
ATOM     22  C   LIG    1        3.456  10.688  -1.740  0.00  0.00    -0.110 C 
BRANCH  22  23
ATOM     23  C   LIG    1        4.626  11.214  -2.376  0.00  0.00    +0.230 A 
ATOM     24  C   LIG    1        4.582  12.475  -2.976  0.00  0.00    +0.000 A 
ATOM     25  C   LIG    1        5.722  12.971  -3.581  0.00  0.00    +0.070 A 
ATOM     26  C   LIG    1        6.869  12.188  -3.578  0.00  0.00    -0.030 A 
ATOM     27  C   LIG    1        6.844  10.948  -2.966  0.00  0.00    +0.270 A 
ATOM     28  N   LIG    1        5.747  10.499  -2.391  0.00  0.00    -0.470 NA
ENDBRANCH  22  23
ENDBRANCH  19  21
ENDBRANCH   2  15
TORSDOF 6
