REMARK  Name = ZINCrD000000AtfI.0
REMARK                            x       y       z     vdW  Elec       q    Type
REMARK                         _______ _______ _______ _____ _____    ______ ____
ROOT
ATOM      1  C   LIG    1       -0.126   0.575   2.770  0.00  0.00    +0.330 A 
ATOM      2  N   LIG    1        0.912  -0.139   2.377  0.00  0.00    -0.560 NA
ATOM      3  C   LIG    1        1.821  -0.565   3.267  0.00  0.00    +0.200 A 
ATOM      4  C   LIG    1        2.934  -1.324   2.884  0.00  0.00    +0.030 A 
ATOM      5  C   LIG    1        3.829  -1.731   3.829  0.00  0.00    +0.070 A 
ATOM      6  C   LIG    1        3.654  -1.405   5.170  0.00  0.00    +0.000 A 
ATOM      7  C   LIG    1        2.580  -0.668   5.577  0.00  0.00    +0.060 A 
ATOM      8  C   LIG    1        1.644  -0.234   4.633  0.00  0.00    -0.200 A 
ATOM      9  C   LIG    1        0.510   0.535   4.997  0.00  0.00    +0.480 A 
ATOM     10  N   LIG    1       -0.327   0.912   4.042  0.00  0.00    -0.560 NA
ENDROOT
BRANCH   9  11
ATOM     11  N   LIG    1        0.287   0.888   6.312  0.00  0.00    -0.630 N 
ATOM     12  H   LIG    1        0.864   0.542   7.011  0.00  0.00    +0.420 HD
BRANCH  11  13
ATOM     13  C   LIG    1       -0.770   1.742   6.637  0.00  0.00    +0.140 A 
ATOM     14  C   LIG    1       -1.152   2.744   5.754  0.00  0.00    +0.030 A 
ATOM     15  C   LIG    1       -2.200   3.584   6.076  0.00  0.00    +0.030 A 
ATOM     16  C   LIG    1       -2.862   3.434   7.281  0.00  0.00    -0.010 A 
ATOM     17  C   LIG    1       -2.481   2.441   8.165  0.00  0.00    +0.030 A 
ATOM     18  C   LIG    1       -1.438   1.595   7.846  0.00  0.00    -0.030 A 
ENDBRANCH  11  13
ENDBRANCH   9  11
BRANCH   1  19
ATOM     19  S   LIG    1       -1.290   1.110   1.561  0.00  0.00    +0.100 S 
BRANCH  19  20
ATOM     20  C   LIG    1       -0.544   0.402   0.072  0.00  0.00    +0.110 C 
BRANCH  20  22
ATOM     21  O   LIG    1       -2.404   1.397  -0.986  0.00  0.00    -0.520 OA
ATOM     22  C   LIG    1       -1.393   0.742  -1.126  0.00  0.00    +0.540 C 
ATOM     23  N   LIG    1       -1.030   0.316  -2.352  0.00  0.00    -0.610 N 
ATOM     24  C   LIG    1        0.195  -0.475  -2.547  0.00  0.00    +0.250 C 
ATOM     25  C   LIG    1       -0.168  -1.725  -3.367  0.00  0.00    +0.220 C 
ATOM     26  O   LIG    1       -0.859  -1.324  -4.552  0.00  0.00    -0.380 OA
ATOM     27  C   LIG    1       -2.104  -0.663  -4.308  0.00  0.00    +0.220 C 
ATOM     28  C   LIG    1       -1.843   0.635  -3.536  0.00  0.00    +0.270 C 
ENDBRANCH  20  22
ENDBRANCH  19  20
ENDBRANCH   1  19
TORSDOF 5
