REMARK  Name = ZINCpe000000VYiP.0
REMARK                            x       y       z     vdW  Elec       q    Type
REMARK                         _______ _______ _______ _____ _____    ______ ____
ROOT
ATOM      1  N   LIG    1        1.157   3.089  -2.447  0.00  0.00    -0.730 N 
ATOM      2  H   LIG    1        1.053   3.667  -3.219  0.00  0.00    +0.400 HD
ATOM      3  C   LIG    1        1.891   1.964  -2.542  0.00  0.00    +0.710 C 
ATOM      4  N   LIG    1        2.567   1.694  -3.677  0.00  0.00    -0.630 N 
ATOM      5  C   LIG    1        3.471   0.536  -3.760  0.00  0.00    +0.330 C 
ATOM      6  C   LIG    1        3.102  -0.275  -5.012  0.00  0.00    +0.210 C 
ATOM      7  N   LIG    1        3.117   0.610  -6.184  0.00  0.00    -0.470 N 
ATOM      8  C   LIG    1        2.101   1.665  -6.069  0.00  0.00    +0.210 C 
ATOM      9  C   LIG    1        2.424   2.552  -4.863  0.00  0.00    +0.280 C 
ATOM     10  O   LIG    1        1.945   1.191  -1.605  0.00  0.00    -0.580 OA
ENDROOT
BRANCH   7  11
ATOM     11  C   LIG    1        2.952  -0.113  -7.354  0.00  0.00    +0.360 A 
ATOM     12  C   LIG    1        3.814  -1.167  -7.664  0.00  0.00    -0.100 A 
ATOM     13  C   LIG    1        3.607  -1.858  -8.842  0.00  0.00    +0.340 A 
ATOM     14  N   LIG    1        2.606  -1.501  -9.634  0.00  0.00    -0.540 NA
ATOM     15  C   LIG    1        1.810  -0.501  -9.313  0.00  0.00    +0.340 A 
ATOM     16  C   LIG    1        0.685  -0.132 -10.246  0.00  0.00    +0.180 C 
ATOM     17  N   LIG    1        1.967   0.182  -8.198  0.00  0.00    -0.560 NA
ENDBRANCH   7  11
BRANCH   1  18
ATOM     18  C   LIG    1        0.515   3.440  -1.177  0.00  0.00    +0.290 C 
BRANCH  18  19
ATOM     19  C   LIG    1        1.296   4.574  -0.508  0.00  0.00    +0.150 C 
ATOM     20  C   LIG    1        2.710   4.093  -0.114  0.00  0.00    +0.000 C 
ATOM     21  C   LIG    1        2.985   4.798   1.233  0.00  0.00    +0.000 C 
ATOM     22  C   LIG    1        1.704   5.621   1.494  0.00  0.00    +0.200 C 
ATOM     23  O   LIG    1        0.670   4.947   0.739  0.00  0.00    -0.370 OA
ENDBRANCH  18  19
BRANCH  18  24
ATOM     24  C   LIG    1       -0.921   3.897  -1.441  0.00  0.00    +0.180 C 
BRANCH  24  26
ATOM     25  C   LIG    1       -2.204   5.619  -2.505  0.00  0.00    +0.200 C 
ATOM     26  O   LIG    1       -0.905   5.105  -2.203  0.00  0.00    -0.390 OA
ENDBRANCH  24  26
ENDBRANCH  18  24
ENDBRANCH   1  18
TORSDOF 5
