REMARK  Name = ZINCvU0000000EKv.0
REMARK                            x       y       z     vdW  Elec       q    Type
REMARK                         _______ _______ _______ _____ _____    ______ ____
ROOT
ATOM      1  C   LIG    1       -1.101   2.208  -0.639  0.00  0.00    +0.420 A 
ATOM      2  C   LIG    1       -1.924   3.294  -0.249  0.00  0.00    -0.170 A 
ATOM      3  C   LIG    1       -1.752   4.272   0.817  0.00  0.00    -0.020 A 
ATOM      4  C   LIG    1       -2.728   5.174   0.899  0.00  0.00    -0.020 A 
ATOM      5  S   LIG    1       -3.946   4.908  -0.333  0.00  0.00    +0.180 S 
ATOM      6  C   LIG    1       -3.091   3.516  -0.981  0.00  0.00    +0.100 A 
ATOM      7  N   LIG    1       -3.386   2.699  -2.000  0.00  0.00    -0.500 NA
ATOM      8  C   LIG    1       -2.594   1.702  -2.320  0.00  0.00    +0.530 A 
ATOM      9  N   LIG    1       -1.476   1.454  -1.662  0.00  0.00    -0.560 NA
ENDROOT
BRANCH   3  10
ATOM     10  C   LIG    1       -0.589   4.261   1.737  0.00  0.00    -0.050 A 
ATOM     11  C   LIG    1       -0.284   3.111   2.465  0.00  0.00    +0.120 A 
ATOM     12  C   LIG    1        0.802   3.103   3.315  0.00  0.00    -0.020 A 
ATOM     13  C   LIG    1        1.582   4.240   3.456  0.00  0.00    +0.110 A 
ATOM     14  C   LIG    1        1.280   5.386   2.740  0.00  0.00    -0.020 A 
ATOM     15  F   LIG    1        2.642   4.229   4.294  0.00  0.00    -0.140 F 
ATOM     16  C   LIG    1        0.199   5.402   1.883  0.00  0.00    +0.050 A 
ENDBRANCH   3  10
BRANCH   1  17
ATOM     17  N   LIG    1        0.072   1.936   0.041  0.00  0.00    -0.460 N 
ATOM     18  C   LIG    1        1.126   2.892  -0.323  0.00  0.00    +0.240 C 
BRANCH  17  19
ATOM     19  C   LIG    1        0.510   0.554  -0.196  0.00  0.00    +0.270 C 
BRANCH  19  23
ATOM     20  C   LIG    1        3.167  -0.658   2.932  0.00  0.00    +0.130 A 
ATOM     21  C   LIG    1        3.672  -0.225   1.715  0.00  0.00    -0.060 A 
ATOM     22  C   LIG    1        2.811   0.166   0.707  0.00  0.00    +0.070 A 
ATOM     23  C   LIG    1        1.444   0.126   0.906  0.00  0.00    -0.130 A 
ATOM     24  C   LIG    1        0.931  -0.301   2.122  0.00  0.00    +0.140 A 
ATOM     25  C   LIG    1        1.793  -0.699   3.136  0.00  0.00    +0.040 A 
BRANCH  20  27
ATOM     26  C   LIG    1        5.415  -0.974   3.642  0.00  0.00    +0.240 C 
ATOM     27  O   LIG    1        4.015  -1.042   3.923  0.00  0.00    -0.300 OA
ENDBRANCH  20  27
BRANCH  24  28
ATOM     28  O   LIG    1       -0.414  -0.334   2.320  0.00  0.00    -0.320 OA
ATOM     29  C   LIG    1       -1.090  -1.546   1.979  0.00  0.00    +0.230 C 
ENDBRANCH  24  28
BRANCH  25  30
ATOM     30  O   LIG    1        1.294  -1.124   4.329  0.00  0.00    -0.320 OA
ATOM     31  C   LIG    1        1.142  -0.141   5.356  0.00  0.00    +0.230 C 
ENDBRANCH  25  30
ENDBRANCH  19  23
ENDBRANCH  17  19
ENDBRANCH   1  17
TORSDOF 7
