REMARK  Name = ZINCvU0000000DDj.0
REMARK                            x       y       z     vdW  Elec       q    Type
REMARK                         _______ _______ _______ _____ _____    ______ ____
ROOT
ATOM      1  N   LIG    1        4.864   4.275   0.079  0.00  0.00    -0.620 N 
ATOM      2  H   LIG    1        5.688   3.767   0.142  0.00  0.00    +0.430 HD
ATOM      3  C   LIG    1        3.682   3.634  -0.015  0.00  0.00    +0.560 C 
ATOM      4  O   LIG    1        2.650   4.271  -0.094  0.00  0.00    -0.440 OA
ENDROOT
BRANCH   3   5
ATOM      5  C   LIG    1        3.642   2.156  -0.021  0.00  0.00    -0.060 A 
ATOM      6  C   LIG    1        4.806   1.404  -0.050  0.00  0.00    +0.020 A 
ATOM      7  C   LIG    1        4.720  -0.000  -0.056  0.00  0.00    +0.230 A 
ATOM      8  N   LIG    1        3.563  -0.634  -0.035  0.00  0.00    -0.440 NA
ATOM      9  C   LIG    1        2.396   0.012  -0.006  0.00  0.00    +0.130 A 
ATOM     10  C   LIG    1        1.178  -0.691   0.016  0.00  0.00    +0.050 A 
ATOM     11  C   LIG    1        0.003  -0.004   0.045  0.00  0.00    +0.050 A 
ATOM     12  C   LIG    1       -0.016   1.388   0.053  0.00  0.00    +0.040 A 
ATOM     13  C   LIG    1        1.146   2.103   0.032  0.00  0.00    +0.060 A 
ATOM     14  C   LIG    1        2.371   1.429   0.002  0.00  0.00    -0.060 A 
BRANCH   7  15
ATOM     15  C   LIG    1        5.965  -0.790  -0.087  0.00  0.00    -0.160 A 
ATOM     16  C   LIG    1        6.033  -2.138  -0.090  0.00  0.00    +0.090 A 
ATOM     17  C   LIG    1        7.311  -2.650  -0.126  0.00  0.00    +0.040 A 
ATOM     18  C   LIG    1        8.289  -1.735  -0.141  0.00  0.00    -0.140 A 
ATOM     19 CL   LIG    1        9.988  -2.088  -0.178  0.00  0.00    -0.000 Cl
ATOM     20  S   LIG    1        7.591  -0.120  -0.117  0.00  0.00    +0.180 S 
ENDBRANCH   7  15
ENDBRANCH   3   5
BRANCH   1  24
ATOM     21  C   LIG    1        5.327   8.101   0.124  0.00  0.00    -0.040 A 
ATOM     22  N   LIG    1        4.092   7.702   0.027  0.00  0.00    -0.240 NA
ATOM     23  N   LIG    1        3.877   6.460   0.007  0.00  0.00    -0.250 NA
ATOM     24  C   LIG    1        4.902   5.666   0.085  0.00  0.00    +0.250 A 
ATOM     25  S   LIG    1        6.351   6.666   0.208  0.00  0.00    +0.150 S 
BRANCH  21  26
ATOM     26  S   LIG    1        5.878   9.774   0.171  0.00  0.00    +0.110 S 
BRANCH  26  27
ATOM     27  C   LIG    1        4.332  10.716   0.053  0.00  0.00    +0.150 C 
BRANCH  27  28
ATOM     28  C   LIG    1        4.639  12.191   0.081  0.00  0.00    +0.490 C 
ATOM     29  O   LIG    1        5.784  12.568   0.171  0.00  0.00    -0.490 OA
BRANCH  28  30
ATOM     30  O   LIG    1        3.642  13.085   0.005  0.00  0.00    -0.350 OA
BRANCH  30  32
ATOM     31  C   LIG    1        2.751  15.351  -0.059  0.00  0.00    +0.070 C 
ATOM     32  C   LIG    1        4.012  14.489   0.038  0.00  0.00    +0.200 C 
ENDBRANCH  30  32
ENDBRANCH  28  30
ENDBRANCH  27  28
ENDBRANCH  26  27
ENDBRANCH  21  26
ENDBRANCH   1  24
TORSDOF 8
