REMARK  Name = ZINCtV00001bB3AB.0
REMARK                            x       y       z     vdW  Elec       q    Type
REMARK                         _______ _______ _______ _____ _____    ______ ____
ROOT
ATOM      1  C   LIG    1        2.519  10.315   0.033  0.00  0.00    +0.280 A 
ATOM      2  N   LIG    1        2.385   9.027   0.027  0.00  0.00    -0.450 NA
ATOM      3  C   LIG    1        3.522   8.325   0.013  0.00  0.00    +0.090 A 
ATOM      4  C   LIG    1        4.658   9.081   0.012  0.00  0.00    -0.080 A 
ATOM      5  S   LIG    1        4.227  10.736   0.019  0.00  0.00    +0.170 S 
ENDROOT
BRANCH   1   8
ATOM      6  C   LIG    1       -0.940  11.780   0.071  0.00  0.00    +0.110 C 
ATOM      7  C   LIG    1        0.196  10.790   0.056  0.00  0.00    +0.520 C 
ATOM      8  N   LIG    1        1.471  11.228   0.047  0.00  0.00    -0.480 N 
ATOM      9  O   LIG    1       -0.036   9.600   0.051  0.00  0.00    -0.470 OA
BRANCH   8  10
ATOM     10  C   LIG    1        1.739  12.602   0.052  0.00  0.00    +0.100 A 
ATOM     11  C   LIG    1        1.868  13.290  -1.147  0.00  0.00    +0.030 A 
ATOM     12  C   LIG    1        2.128  14.647  -1.139  0.00  0.00    +0.030 A 
ATOM     13  C   LIG    1        2.271  15.318   0.061  0.00  0.00    +0.040 A 
ATOM     14  C   LIG    1        2.148  14.634   1.258  0.00  0.00    -0.080 A 
ATOM     15  C   LIG    1        2.304  15.369   2.564  0.00  0.00    +0.100 C 
ATOM     16  C   LIG    1        1.883  13.279   1.256  0.00  0.00    -0.060 A 
ATOM     17  C   LIG    1        1.750  12.535   2.560  0.00  0.00    +0.100 C 
ENDBRANCH   8  10
ENDBRANCH   1   8
BRANCH   3  18
ATOM     18  C   LIG    1        3.547   6.860   0.005  0.00  0.00    +0.170 C 
ATOM     19  C   LIG    1        2.385   6.162   0.012  0.00  0.00    -0.060 C 
BRANCH  19  20
ATOM     20  C   LIG    1        2.409   4.749   0.005  0.00  0.00    +0.430 C 
ATOM     21  O   LIG    1        3.474   4.158  -0.008  0.00  0.00    -0.460 OA
BRANCH  20  22
ATOM     22  C   LIG    1        1.141   3.988   0.012  0.00  0.00    -0.170 A 
ATOM     23  C   LIG    1       -0.081   4.663   0.027  0.00  0.00    +0.120 A 
ATOM     24  C   LIG    1       -1.261   3.949   0.034  0.00  0.00    -0.010 A 
ATOM     25  C   LIG    1       -1.235   2.563   0.022  0.00  0.00    +0.160 A 
ATOM     26  C   LIG    1       -0.024   1.887   0.012  0.00  0.00    -0.150 A 
ATOM     27 BR   LIG    1        0.002  -0.004   0.002  0.00  0.00    -0.020 Br
ATOM     28  F   LIG    1       -2.394   1.868   0.024  0.00  0.00    -0.120 F 
ATOM     29  C   LIG    1        1.162   2.591   0.005  0.00  0.00    +0.140 A 
ENDBRANCH  20  22
ENDBRANCH  19  20
ENDBRANCH   3  18
TORSDOF 5
