REMARK  Name = ZINCrD000000CD8H.0
REMARK                            x       y       z     vdW  Elec       q    Type
REMARK                         _______ _______ _______ _____ _____    ______ ____
ROOT
ATOM      1  C   LIG    1        3.768   3.263  -0.036  0.00  0.00    -0.090 A 
ATOM      2  C   LIG    1        2.598   4.029   0.020  0.00  0.00    +0.020 A 
ATOM      3  C   LIG    1        1.372   3.425   0.018  0.00  0.00    +0.110 A 
ATOM      4  C   LIG    1        1.284   2.036  -0.039  0.00  0.00    -0.180 A 
ATOM      5  C   LIG    1       -0.014   1.340  -0.046  0.00  0.00    +0.550 A 
ATOM      6  N   LIG    1        0.005  -0.007  -0.118  0.00  0.00    -0.540 N 
ATOM      7  C   LIG    1       -1.250  -0.769  -0.140  0.00  0.00    +0.300 C 
ATOM      8  C   LIG    1       -1.493  -1.292  -1.554  0.00  0.00    +0.020 C 
ATOM      9  C   LIG    1       -0.854  -2.657  -1.751  0.00  0.00    +0.010 C 
ATOM     10  C   LIG    1        0.661  -2.598  -1.663  0.00  0.00    +0.040 C 
ATOM     11  C   LIG    1        1.117  -2.203  -0.261  0.00  0.00    +0.130 C 
ATOM     12  C   LIG    1        1.185  -0.694  -0.169  0.00  0.00    +0.410 A 
ATOM     13  N   LIG    1        2.341  -0.102  -0.151  0.00  0.00    -0.520 NA
ATOM     14  O   LIG    1       -1.062   1.956   0.006  0.00  0.00    -0.510 OA
ATOM     15  C   LIG    1        2.455   1.248  -0.094  0.00  0.00    +0.150 A 
ATOM     16  C   LIG    1        3.702   1.876  -0.093  0.00  0.00    +0.120 A 
ENDROOT
BRANCH   1  18
ATOM     17  O   LIG    1        6.104   3.278   0.067  0.00  0.00    -0.500 OA
ATOM     18  C   LIG    1        5.087   3.935  -0.034  0.00  0.00    +0.570 C 
ATOM     19  N   LIG    1        5.159   5.277  -0.144  0.00  0.00    -0.550 N 
ATOM     20  C   LIG    1        4.007   6.182  -0.153  0.00  0.00    +0.290 C 
ATOM     21  C   LIG    1        4.604   7.592  -0.296  0.00  0.00    +0.110 C 
ATOM     22  C   LIG    1        6.098   7.368  -0.360  0.00  0.00    -0.140 A 
ATOM     23  C   LIG    1        7.143   8.262  -0.488  0.00  0.00    +0.050 A 
ATOM     24  C   LIG    1        8.448   7.807  -0.505  0.00  0.00    -0.010 A 
ATOM     25  C   LIG    1        8.705   6.451  -0.410  0.00  0.00    +0.040 A 
ATOM     26  C   LIG    1        7.665   5.555  -0.289  0.00  0.00    +0.010 A 
ATOM     27  C   LIG    1        6.345   6.008  -0.260  0.00  0.00    +0.140 A 
ENDBRANCH   1  18
TORSDOF 1
