REMARK  Name = ZINCvU00000005Kh.0
REMARK                            x       y       z     vdW  Elec       q    Type
REMARK                         _______ _______ _______ _____ _____    ______ ____
ROOT
ATOM      1  C   LIG    1       -1.139   3.309  -0.431  0.00  0.00    +0.210 A 
ATOM      2  C   LIG    1        0.075   3.981  -0.400  0.00  0.00    +0.020 A 
ATOM      3  C   LIG    1        1.241   3.291  -0.136  0.00  0.00    +0.050 A 
ATOM      4  C   LIG    1        1.211   1.927   0.100  0.00  0.00    -0.010 A 
ATOM      5  C   LIG    1        0.015   1.242   0.073  0.00  0.00    +0.050 A 
ATOM      6  C   LIG    1       -1.173   1.926  -0.198  0.00  0.00    -0.170 A 
ENDROOT
BRANCH   1   9
ATOM      7  O   LIG    1       -1.512   5.859   0.215  0.00  0.00    -0.500 OA
ATOM      8  C   LIG    1       -2.448   5.285  -0.299  0.00  0.00    +0.520 C 
ATOM      9  N   LIG    1       -2.317   4.003  -0.696  0.00  0.00    -0.670 N 
ATOM     10  H   LIG    1       -3.043   3.564  -1.166  0.00  0.00    +0.420 HD
BRANCH   8  11
ATOM     11  C   LIG    1       -3.758   6.004  -0.495  0.00  0.00    +0.120 C 
BRANCH  11  12
ATOM     12  C   LIG    1       -3.641   7.412   0.029  0.00  0.00    -0.070 A 
ATOM     13  C   LIG    1       -3.958   7.688   1.346  0.00  0.00    +0.020 A 
ATOM     14  C   LIG    1       -3.846   8.978   1.828  0.00  0.00    +0.000 A 
ATOM     15  C   LIG    1       -3.427   9.995   0.990  0.00  0.00    +0.000 A 
ATOM     16  C   LIG    1       -3.116   9.720  -0.328  0.00  0.00    +0.000 A 
ATOM     17  C   LIG    1       -3.223   8.429  -0.809  0.00  0.00    +0.020 A 
ENDBRANCH  11  12
ENDBRANCH   8  11
ENDBRANCH   1   9
BRANCH   6  18
ATOM     18  C   LIG    1       -2.456   1.198  -0.234  0.00  0.00    +0.570 C 
ATOM     19  N   LIG    1       -2.835   0.449   0.821  0.00  0.00    -0.600 N 
ATOM     20  O   LIG    1       -3.171   1.275  -1.214  0.00  0.00    -0.520 OA
BRANCH  19  21
ATOM     21  C   LIG    1       -2.037   0.455   2.049  0.00  0.00    +0.370 C 
BRANCH  21  22
ATOM     22  C   LIG    1       -2.512   1.564   2.952  0.00  0.00    -0.210 A 
ATOM     23  C   LIG    1       -3.465   1.446   3.878  0.00  0.00    +0.020 A 
ATOM     24  C   LIG    1       -3.734   2.603   4.589  0.00  0.00    +0.000 A 
ATOM     25  C   LIG    1       -2.999   3.660   4.241  0.00  0.00    -0.050 A 
ATOM     26  S   LIG    1       -1.890   3.209   2.952  0.00  0.00    +0.130 S 
ENDBRANCH  21  22
ENDBRANCH  19  21
BRANCH  19  27
ATOM     27  C   LIG    1       -4.046  -0.371   0.738  0.00  0.00    +0.410 C 
BRANCH  27  28
ATOM     28  C   LIG    1       -3.692  -1.739   0.214  0.00  0.00    -0.040 A 
ATOM     29  C   LIG    1       -3.341  -2.801   0.962  0.00  0.00    -0.040 A 
ATOM     30  C   LIG    1       -3.096  -3.868   0.068  0.00  0.00    -0.070 A 
ATOM     31  C   LIG    1       -3.312  -3.395  -1.173  0.00  0.00    +0.170 A 
ATOM     32  O   LIG    1       -3.679  -2.106  -1.077  0.00  0.00    -0.160 OA
ENDBRANCH  27  28
ENDBRANCH  19  27
ENDBRANCH   6  18
TORSDOF 8
