REMARK  Name = ZINCqH0000007SLn.0
REMARK                            x       y       z     vdW  Elec       q    Type
REMARK                         _______ _______ _______ _____ _____    ______ ____
ROOT
ATOM      1  N   LIG    1        3.527  -2.051   0.542  0.00  0.00    -0.710 N 
ATOM      2  H   LIG    1        2.671  -2.501   0.463  0.00  0.00    +0.400 HD
ATOM      3  C   LIG    1        4.548  -2.652   1.185  0.00  0.00    +0.590 C 
ATOM      4  O   LIG    1        5.620  -2.088   1.284  0.00  0.00    -0.510 OA
ENDROOT
BRANCH   3   5
ATOM      5  C   LIG    1        4.364  -3.993   1.766  0.00  0.00    -0.170 A 
ATOM      6  C   LIG    1        3.939  -4.292   3.022  0.00  0.00    +0.070 A 
ATOM      7  O   LIG    1        3.901  -5.621   3.171  0.00  0.00    -0.160 OA
ATOM      8  C   LIG    1        4.289  -6.248   2.051  0.00  0.00    +0.300 A 
ATOM      9  C   LIG    1        3.568  -3.285   4.081  0.00  0.00    +0.210 C 
ATOM     10  C   LIG    1        4.597  -5.295   1.102  0.00  0.00    -0.110 A 
BRANCH   8  11
ATOM     11  N   LIG    1        4.363  -7.623   1.875  0.00  0.00    -0.380 N 
ATOM     12  C   LIG    1        4.753  -8.261   0.730  0.00  0.00    +0.160 A 
ATOM     13  C   LIG    1        4.699  -9.590   0.949  0.00  0.00    -0.020 A 
ATOM     14  C   LIG    1        4.249  -9.784   2.272  0.00  0.00    -0.020 A 
ATOM     15  C   LIG    1        4.052  -8.566   2.815  0.00  0.00    +0.170 A 
ENDBRANCH   8  11
BRANCH  10  16
ATOM     16  C   LIG    1        5.049  -5.518  -0.239  0.00  0.00    +0.280 C 
ATOM     17  N   LIG    1        5.407  -5.695  -1.302  0.00  0.00    -0.390 NA
ENDBRANCH  10  16
ENDBRANCH   3   5
BRANCH   1  18
ATOM     18  C   LIG    1        3.710  -0.717  -0.036  0.00  0.00    +0.300 C 
ATOM     19  C   LIG    1        4.269  -0.848  -1.454  0.00  0.00    +0.030 C 
BRANCH  18  25
ATOM     20  C   LIG    1        2.338   1.382  -0.039  0.00  0.00    +0.140 A 
ATOM     21  C   LIG    1        1.115   2.036  -0.083  0.00  0.00    -0.070 A 
ATOM     22  C   LIG    1       -0.054   1.306  -0.170  0.00  0.00    +0.050 A 
ATOM     23  C   LIG    1       -0.007  -0.075  -0.214  0.00  0.00    -0.020 A 
ATOM     24  C   LIG    1        1.211  -0.729  -0.171  0.00  0.00    +0.050 A 
ATOM     25  C   LIG    1        2.383  -0.004  -0.083  0.00  0.00    -0.130 A 
BRANCH  20  27
ATOM     26  C   LIG    1        3.367   3.522   0.089  0.00  0.00    +0.250 C 
ATOM     27  O   LIG    1        3.490   2.098   0.048  0.00  0.00    -0.310 OA
ENDBRANCH  20  27
ENDBRANCH  18  25
ENDBRANCH   1  18
TORSDOF 6
