REMARK  Name = ZINCAx0000000jvb.0
REMARK                            x       y       z     vdW  Elec       q    Type
REMARK                         _______ _______ _______ _____ _____    ______ ____
ROOT
ATOM      1  N   LIG    1        3.831  -1.666   0.216  0.00  0.00    -0.520 NA
ATOM      2  C   LIG    1        4.239  -0.744   1.285  0.00  0.00    +0.170 C 
ATOM      3  C   LIG    1        4.442  -1.531   2.584  0.00  0.00    +0.320 C 
ATOM      4  N   LIG    1        5.380  -2.633   2.322  0.00  0.00    -1.000 NA
ATOM      5  C   LIG    1        5.111  -3.519   1.179  0.00  0.00    +0.320 C 
ATOM      6  C   LIG    1        4.882  -2.654  -0.065  0.00  0.00    +0.170 C 
ENDROOT
BRANCH   4   7
ATOM      7  S   LIG    1        6.706  -2.869   3.286  0.00  0.00    +2.700 S 
ATOM      8  O   LIG    1        7.065  -4.236   3.147  0.00  0.00    -0.950 OA
ATOM      9  O   LIG    1        6.402  -2.268   4.538  0.00  0.00    -0.950 OA
BRANCH   7  10
ATOM     10  C   LIG    1        8.028  -1.933   2.593  0.00  0.00    -0.680 A 
ATOM     11  C   LIG    1        8.229  -0.624   2.989  0.00  0.00    +0.140 A 
ATOM     12  C   LIG    1        9.264   0.114   2.446  0.00  0.00    +0.020 A 
ATOM     13  C   LIG    1       10.105  -0.459   1.504  0.00  0.00    +0.110 A 
ATOM     14  O   LIG    1       11.117   0.282   0.973  0.00  0.00    -0.300 OA
ATOM     15  C   LIG    1       12.162  -0.437   0.311  0.00  0.00    +0.230 C 
ATOM     16  C   LIG    1       11.518  -1.479  -0.614  0.00  0.00    +0.230 C 
ATOM     17  O   LIG    1       10.722  -2.359   0.188  0.00  0.00    -0.300 OA
ATOM     18  C   LIG    1        9.905  -1.776   1.108  0.00  0.00    +0.030 A 
ATOM     19  C   LIG    1        8.867  -2.512   1.659  0.00  0.00    +0.140 A 
ENDBRANCH   7  10
ENDBRANCH   4   7
BRANCH   1  20
ATOM     20  C   LIG    1        3.461  -0.931  -1.000  0.00  0.00    +0.280 C 
BRANCH  20  24
ATOM     21  O   LIG    1        1.154   3.224  -0.550  0.00  0.00    -0.510 OA
ATOM     22  C   LIG    1        1.122   2.004  -0.521  0.00  0.00    +0.520 A 
ATOM     23  C   LIG    1        2.281   1.267  -0.771  0.00  0.00    -0.140 A 
ATOM     24  C   LIG    1        2.225  -0.110  -0.734  0.00  0.00    +0.220 A 
ATOM     25  N   LIG    1        1.070  -0.704  -0.461  0.00  0.00    -0.480 NA
ATOM     26  C   LIG    1       -0.025  -0.005  -0.224  0.00  0.00    +0.310 A 
ATOM     27  S   LIG    1       -1.677  -0.518   0.162  0.00  0.00    +0.190 S 
ATOM     28  C   LIG    1       -2.311   1.133   0.277  0.00  0.00    +0.010 A 
ATOM     29  C   LIG    1       -1.270   1.933   0.030  0.00  0.00    +0.130 A 
ATOM     30  N   LIG    1       -0.047   1.356  -0.243  0.00  0.00    -0.460 N 
BRANCH  29  31
ATOM     31  C   LIG    1       -1.427   3.403   0.041  0.00  0.00    -0.060 A 
ATOM     32  C   LIG    1       -0.651   4.184   0.898  0.00  0.00    +0.070 A 
ATOM     33  C   LIG    1       -0.798   5.556   0.899  0.00  0.00    +0.010 A 
ATOM     34  C   LIG    1       -1.720   6.157   0.060  0.00  0.00    +0.030 A 
ATOM     35  C   LIG    1       -2.496   5.387  -0.789  0.00  0.00    +0.000 A 
ATOM     36  C   LIG    1       -2.354   4.015  -0.803  0.00  0.00    +0.040 A 
ENDBRANCH  29  31
ENDBRANCH  20  24
ENDBRANCH   1  20
TORSDOF 5
