REMARK  Name = ZINCrD000000gTbT.0
REMARK                            x       y       z     vdW  Elec       q    Type
REMARK                         _______ _______ _______ _____ _____    ______ ____
ROOT
ATOM      1  C   LIG    1        2.369   1.025  -0.015  0.00  0.00    +0.520 C 
ATOM      2  N   LIG    1        1.193   1.683  -0.000  0.00  0.00    -0.520 N 
ATOM      3  H   LIG    1        1.179   2.653   0.005  0.00  0.00    +0.430 HD
ATOM      4  O   LIG    1        2.385  -0.188  -0.022  0.00  0.00    -0.530 OA
ENDROOT
BRANCH   2   5
ATOM      5  N   LIG    1       -0.011   0.966   0.007  0.00  0.00    -0.520 N 
ATOM      6  H   LIG    1        0.002  -0.004   0.002  0.00  0.00    +0.430 HD
ATOM      7  C   LIG    1       -1.187   1.624   0.017  0.00  0.00    +0.560 C 
ATOM      8  O   LIG    1       -1.204   2.840   0.023  0.00  0.00    -0.520 OA
BRANCH   7   9
ATOM      9  C   LIG    1       -2.455   0.869   0.018  0.00  0.00    -0.160 A 
ATOM     10  C   LIG    1       -2.441  -0.528   0.011  0.00  0.00    +0.060 A 
ATOM     11  C   LIG    1       -3.628  -1.227   0.013  0.00  0.00    +0.010 A 
ATOM     12  C   LIG    1       -4.837  -0.551   0.021  0.00  0.00    +0.070 A 
ATOM     13  C   LIG    1       -4.866   0.829   0.029  0.00  0.00    -0.010 A 
ATOM     14  C   LIG    1       -3.680   1.549   0.034  0.00  0.00    +0.180 A 
BRANCH  14  15
ATOM     15  O   LIG    1       -3.707   2.905   0.047  0.00  0.00    -0.480 OA
ATOM     16  H   LIG    1       -3.721   3.307  -0.832  0.00  0.00    +0.400 HD
ENDBRANCH  14  15
ENDBRANCH   7   9
ENDBRANCH   2   5
BRANCH   1  17
ATOM     17  C   LIG    1        3.663   1.796  -0.023  0.00  0.00    +0.090 C 
BRANCH  17  18
ATOM     18  C   LIG    1        4.840   0.818  -0.040  0.00  0.00    +0.080 C 
BRANCH  18  19
ATOM     19  C   LIG    1        6.154   1.601  -0.048  0.00  0.00    +0.180 C 
BRANCH  19  20
ATOM     20  O   LIG    1        7.253   0.687  -0.064  0.00  0.00    -0.310 OA
BRANCH  20  24
ATOM     21  C   LIG    1       11.043   2.316  -0.091  0.00  0.00    -0.110 A 
ATOM     22  C   LIG    1       10.882   0.942  -0.097  0.00  0.00    +0.050 A 
ATOM     23  C   LIG    1        9.614   0.395  -0.088  0.00  0.00    -0.020 A 
ATOM     24  C   LIG    1        8.501   1.223  -0.072  0.00  0.00    +0.130 A 
ATOM     25  C   LIG    1        8.666   2.601  -0.072  0.00  0.00    -0.080 A 
ATOM     26  C   LIG    1        9.936   3.144  -0.076  0.00  0.00    +0.050 A 
BRANCH  21  28
ATOM     27  C   LIG    1       13.169   2.456  -1.360  0.00  0.00    +0.040 C 
ATOM     28  C   LIG    1       12.428   2.910  -0.101  0.00  0.00    -0.030 C 
ATOM     29  C   LIG    1       13.193   2.442   1.139  0.00  0.00    +0.040 C 
ATOM     30  C   LIG    1       12.327   4.437  -0.092  0.00  0.00    +0.030 C 
ENDBRANCH  21  28
ENDBRANCH  20  24
ENDBRANCH  19  20
ENDBRANCH  18  19
ENDBRANCH  17  18
ENDBRANCH   1  17
TORSDOF 9
