REMARK  Name = ZINCrH000004ny9N.0
REMARK                            x       y       z     vdW  Elec       q    Type
REMARK                         _______ _______ _______ _____ _____    ______ ____
ROOT
ATOM      1  C   LIG    1       -0.754   1.594  -1.235  0.00  0.00    +0.330 C 
ATOM      2  C   LIG    1       -0.013   1.086   0.008  0.00  0.00    +0.020 C 
ATOM      3  C   LIG    1       -0.729   1.579   1.268  0.00  0.00    +0.040 C 
ATOM      4  C   LIG    1       -0.528   3.093   1.411  0.00  0.00    +0.110 C 
ATOM      5  C   LIG    1       -0.877   3.745   0.096  0.00  0.00    +0.100 A 
ATOM      6  N   LIG    1       -1.139   5.041  -0.142  0.00  0.00    -0.360 N 
ATOM      7  N   LIG    1       -1.413   5.179  -1.510  0.00  0.00    -0.300 NA
ATOM      8  C   LIG    1       -1.316   3.998  -2.071  0.00  0.00    +0.260 A 
ATOM      9  C   LIG    1       -0.979   3.077  -1.081  0.00  0.00    -0.250 A 
ENDROOT
BRANCH   1  11
ATOM     10  C   LIG    1       -0.543   1.217  -3.633  0.00  0.00    +0.560 C 
ATOM     11  N   LIG    1        0.053   1.338  -2.430  0.00  0.00    -0.720 N 
ATOM     12  H   LIG    1        1.017   1.255  -2.356  0.00  0.00    +0.400 HD
ATOM     13  O   LIG    1       -1.750   1.321  -3.726  0.00  0.00    -0.510 OA
BRANCH  10  19
ATOM     14  C   LIG    1       -0.346   0.828  -6.089  0.00  0.00    +0.190 A 
ATOM     15  C   LIG    1        0.429   0.592  -7.214  0.00  0.00    -0.080 A 
ATOM     16  C   LIG    1        1.800   0.475  -7.099  0.00  0.00    +0.080 A 
ATOM     17  C   LIG    1        2.412   0.598  -5.862  0.00  0.00    -0.040 A 
ATOM     18  C   LIG    1        1.658   0.839  -4.734  0.00  0.00    +0.080 A 
ATOM     19  C   LIG    1        0.271   0.960  -4.837  0.00  0.00    -0.180 A 
BRANCH  14  21
ATOM     20  C   LIG    1       -2.250   0.792  -7.508  0.00  0.00    +0.240 C 
ATOM     21  O   LIG    1       -1.693   0.937  -6.200  0.00  0.00    -0.280 OA
ENDBRANCH  14  21
ENDBRANCH  10  19
ENDBRANCH   1  11
BRANCH   6  22
ATOM     22  C   LIG    1       -1.138   6.118   0.852  0.00  0.00    +0.370 C 
BRANCH  22  23
ATOM     23  C   LIG    1        0.241   6.719   0.939  0.00  0.00    -0.120 A 
ATOM     24  C   LIG    1        1.161   6.211   1.837  0.00  0.00    +0.020 A 
ATOM     25  C   LIG    1        2.428   6.760   1.914  0.00  0.00    +0.010 A 
ATOM     26  C   LIG    1        2.771   7.823   1.100  0.00  0.00    +0.010 A 
ATOM     27  C   LIG    1        1.849   8.334   0.206  0.00  0.00    +0.010 A 
ATOM     28  C   LIG    1        0.585   7.783   0.126  0.00  0.00    +0.030 A 
ENDBRANCH  22  23
ENDBRANCH   6  22
TORSDOF 5
