REMARK  Name = ZINCvU0000000BVE.0
REMARK                            x       y       z     vdW  Elec       q    Type
REMARK                         _______ _______ _______ _____ _____    ______ ____
ROOT
ATOM      1  C   LIG    1        5.463   5.190  -0.206  0.00  0.00    +0.580 C 
ATOM      2  N   LIG    1        4.120   5.203  -0.093  0.00  0.00    -0.460 N 
ATOM      3  N   LIG    1        3.313   4.085   0.105  0.00  0.00    -0.230 NA
ATOM      4  C   LIG    1        2.052   4.353   0.181  0.00  0.00    +0.180 C 
ATOM      5  C   LIG    1        1.842   5.842   0.020  0.00  0.00    +0.100 C 
ATOM      6  C   LIG    1        3.268   6.401  -0.159  0.00  0.00    +0.310 C 
ATOM      7  O   LIG    1        6.067   6.228  -0.378  0.00  0.00    -0.490 OA
ENDROOT
BRANCH   4   8
ATOM      8  C   LIG    1        0.987   3.365   0.386  0.00  0.00    -0.160 A 
ATOM      9  C   LIG    1        1.174   2.022   0.526  0.00  0.00    +0.070 A 
ATOM     10  C   LIG    1        0.014   1.302   0.708  0.00  0.00    +0.010 A 
ATOM     11  C   LIG    1       -1.110   2.026   0.713  0.00  0.00    -0.030 A 
ATOM     12  S   LIG    1       -0.731   3.728   0.490  0.00  0.00    +0.160 S 
ENDBRANCH   4   8
BRANCH   6  13
ATOM     13  C   LIG    1        3.405   7.076  -1.499  0.00  0.00    -0.200 A 
ATOM     14  C   LIG    1        3.424   8.395  -1.697  0.00  0.00    +0.030 A 
ATOM     15  C   LIG    1        3.563   8.785  -3.018  0.00  0.00    +0.000 A 
ATOM     16  C   LIG    1        3.648   7.782  -3.894  0.00  0.00    -0.030 A 
ATOM     17  S   LIG    1        3.558   6.246  -3.042  0.00  0.00    +0.110 S 
ENDBRANCH   6  13
BRANCH   1  18
ATOM     18  C   LIG    1        6.214   3.886  -0.120  0.00  0.00    +0.130 C 
BRANCH  18  19
ATOM     19  S   LIG    1        7.987   4.197  -0.307  0.00  0.00    +0.080 S 
BRANCH  19  22
ATOM     20  C   LIG    1       11.077   3.031  -0.449  0.00  0.00    +0.350 C 
ATOM     21  N   LIG    1        9.911   2.168  -0.242  0.00  0.00    -0.460 N 
ATOM     22  C   LIG    1        8.602   2.552  -0.169  0.00  0.00    +0.140 A 
ATOM     23  N   LIG    1        7.887   1.465   0.017  0.00  0.00    -0.290 NA
ATOM     24  N   LIG    1        8.655   0.436   0.071  0.00  0.00    -0.270 NA
ATOM     25  C   LIG    1        9.907   0.802  -0.078  0.00  0.00    +0.230 A 
BRANCH  25  26
ATOM     26  C   LIG    1       11.088  -0.087  -0.076  0.00  0.00    -0.020 A 
ATOM     27  C   LIG    1       10.933  -1.460  -0.274  0.00  0.00    +0.070 A 
ATOM     28  C   LIG    1       12.041  -2.282  -0.276  0.00  0.00    +0.010 A 
ATOM     29  C   LIG    1       13.302  -1.751  -0.071  0.00  0.00    +0.030 A 
ATOM     30  C   LIG    1       13.461  -0.392   0.131  0.00  0.00    +0.010 A 
ATOM     31  C   LIG    1       12.363   0.443   0.130  0.00  0.00    +0.020 A 
ENDBRANCH  25  26
ENDBRANCH  19  22
ENDBRANCH  18  19
ENDBRANCH   1  18
TORSDOF 6
