REMARK  Name = ZINCrD0000074oRv.0
REMARK                            x       y       z     vdW  Elec       q    Type
REMARK                         _______ _______ _______ _____ _____    ______ ____
ROOT
ATOM      1  O   LIG    1       -1.722  -1.016  -1.355  0.00  0.00    -0.350 OA
ENDROOT
BRANCH   1   2
ATOM      2  C   LIG    1       -2.867  -1.696  -1.523  0.00  0.00    +0.470 C 
ATOM      3  O   LIG    1       -3.490  -2.077  -0.561  0.00  0.00    -0.510 OA
BRANCH   2   4
ATOM      4  C   LIG    1       -3.376  -1.983  -2.913  0.00  0.00    +0.120 C 
BRANCH   4   5
ATOM      5  C   LIG    1       -4.688  -2.765  -2.824  0.00  0.00    +0.070 C 
BRANCH   5   6
ATOM      6  C   LIG    1       -5.196  -3.053  -4.213  0.00  0.00    +0.420 C 
ATOM      7  O   LIG    1       -4.571  -2.669  -5.179  0.00  0.00    -0.450 OA
BRANCH   6  11
ATOM      8  C   LIG    1       -9.358  -5.547  -2.779  0.00  0.00    +0.150 C 
ATOM      9  C   LIG    1       -8.338  -4.929  -3.701  0.00  0.00    -0.200 A 
ATOM     10  C   LIG    1       -7.250  -4.286  -3.300  0.00  0.00    +0.050 A 
ATOM     11  C   LIG    1       -6.445  -3.794  -4.396  0.00  0.00    -0.210 A 
ATOM     12  C   LIG    1       -6.974  -4.089  -5.619  0.00  0.00    -0.140 A 
ATOM     13  C   LIG    1       -6.355  -3.698  -6.936  0.00  0.00    +0.150 C 
ATOM     14  S   LIG    1       -8.428  -4.963  -5.454  0.00  0.00    +0.190 S 
ENDBRANCH   6  11
ENDBRANCH   5   6
ENDBRANCH   4   5
ENDBRANCH   2   4
ENDBRANCH   1   2
BRANCH   1  15
ATOM     15  C   LIG    1       -1.293  -0.775   0.011  0.00  0.00    +0.290 C 
BRANCH  15  16
ATOM     16  C   LIG    1        0.002  -0.004   0.002  0.00  0.00    -0.120 A 
ATOM     17  C   LIG    1        1.208  -0.679  -0.013  0.00  0.00    +0.100 A 
ATOM     18  C   LIG    1        2.396   0.029  -0.021  0.00  0.00    +0.000 A 
ATOM     19  C   LIG    1        2.377   1.411  -0.015  0.00  0.00    +0.130 A 
ATOM     20  C   LIG    1        1.171   2.086   0.002  0.00  0.00    -0.680 A 
ATOM     21  C   LIG    1       -0.017   1.378   0.010  0.00  0.00    +0.140 A 
BRANCH  20  22
ATOM     22  S   LIG    1        1.147   3.847   0.012  0.00  0.00    +2.690 S 
ATOM     23  O   LIG    1       -0.113   4.235  -0.518  0.00  0.00    -0.950 OA
ATOM     24  O   LIG    1        2.386   4.269  -0.542  0.00  0.00    -0.950 OA
BRANCH  22  25
ATOM     25  N   LIG    1        1.155   4.329   1.596  0.00  0.00    -1.000 NA
ATOM     26  C   LIG    1       -0.109   4.525   2.309  0.00  0.00    +0.300 C 
ATOM     27  C   LIG    1        2.428   4.559   2.285  0.00  0.00    +0.300 C 
ENDBRANCH  22  25
ENDBRANCH  20  22
ENDBRANCH  15  16
ENDBRANCH   1  15
TORSDOF 9
