REMARK  Name = ZINCnE000001TAPf.0
REMARK                            x       y       z     vdW  Elec       q    Type
REMARK                         _______ _______ _______ _____ _____    ______ ____
ROOT
ATOM      1  C   LIG    1        6.374   0.177  -3.131  0.00  0.00    -0.110 C 
ATOM      2  C   LIG    1        5.485   1.284  -2.551  0.00  0.00    +0.260 C 
ATOM      3  O   LIG    1        4.395   0.671  -1.861  0.00  0.00    -0.320 OA
ATOM      4  C   LIG    1        4.678  -0.322  -0.980  0.00  0.00    +0.160 A 
ATOM      5  C   LIG    1        5.896  -0.975  -0.983  0.00  0.00    -0.140 A 
ATOM      6  C   LIG    1        6.139  -1.986  -0.067  0.00  0.00    +0.060 A 
ATOM      7  C   LIG    1        5.176  -2.346   0.857  0.00  0.00    -0.030 A 
ATOM      8  C   LIG    1        3.958  -1.696   0.876  0.00  0.00    +0.050 A 
ATOM      9  C   LIG    1        3.702  -0.679  -0.038  0.00  0.00    -0.110 A 
ATOM     10  C   LIG    1        6.978  -0.614  -1.968  0.00  0.00    +0.100 C 
ENDROOT
BRANCH   9  11
ATOM     11  C   LIG    1        2.395   0.022  -0.021  0.00  0.00    +0.030 A 
ATOM     12  C   LIG    1        2.330   1.418  -0.013  0.00  0.00    +0.040 A 
ATOM     13  C   LIG    1        1.093   2.030   0.003  0.00  0.00    +0.280 A 
ATOM     14  N   LIG    1       -0.016   1.315   0.009  0.00  0.00    -0.450 NA
ATOM     15  C   LIG    1        0.002  -0.004   0.002  0.00  0.00    +0.030 A 
ATOM     16  C   LIG    1        1.195  -0.696  -0.013  0.00  0.00    +0.040 A 
BRANCH  15  17
ATOM     17  C   LIG    1       -1.299  -0.765   0.010  0.00  0.00    +0.520 C 
ATOM     18  F   LIG    1       -1.408  -1.488   1.203  0.00  0.00    -0.170 F 
ATOM     19  F   LIG    1       -1.329  -1.648  -1.075  0.00  0.00    -0.170 F 
ATOM     20  F   LIG    1       -2.366   0.134  -0.090  0.00  0.00    -0.160 F 
ENDBRANCH  15  17
ENDBRANCH   9  11
BRANCH   1  22
ATOM     21  O   LIG    1        7.390   0.807  -5.172  0.00  0.00    -0.690 OA
ATOM     22  C   LIG    1        7.476   0.790  -3.956  0.00  0.00    +0.500 C 
ATOM     23  O   LIG    1        8.454   1.268  -3.408  0.00  0.00    -0.690 OA
ENDBRANCH   1  22
TORSDOF 3
