REMARK  Name = ZINCvU00000006Ja.0
REMARK                            x       y       z     vdW  Elec       q    Type
REMARK                         _______ _______ _______ _____ _____    ______ ____
ROOT
ATOM      1  C   LIG    1       -1.772  -1.077   1.200  0.00  0.00    +0.370 A 
ATOM      2  N   LIG    1       -2.894  -1.748   1.282  0.00  0.00    -0.530 NA
ATOM      3  C   LIG    1       -3.569  -2.138   0.174  0.00  0.00    +0.170 A 
ATOM      4  C   LIG    1       -4.766  -2.854   0.262  0.00  0.00    +0.030 A 
ATOM      5  C   LIG    1       -5.420  -3.232  -0.888  0.00  0.00    +0.070 A 
ATOM      6  C   LIG    1       -4.905  -2.911  -2.138  0.00  0.00    -0.010 A 
ATOM      7  C   LIG    1       -3.727  -2.206  -2.251  0.00  0.00    +0.100 A 
ATOM      8  C   LIG    1       -3.048  -1.812  -1.099  0.00  0.00    -0.200 A 
ATOM      9  C   LIG    1       -1.791  -1.055  -1.162  0.00  0.00    +0.550 A 
ATOM     10  O   LIG    1       -1.296  -0.742  -2.229  0.00  0.00    -0.490 OA
ATOM     11  N   LIG    1       -1.201  -0.722   0.009  0.00  0.00    -0.480 N 
ENDROOT
BRANCH  11  12
ATOM     12  C   LIG    1        0.002  -0.004   0.002  0.00  0.00    +0.090 A 
ATOM     13  C   LIG    1        1.215  -0.679  -0.013  0.00  0.00    +0.050 A 
ATOM     14  C   LIG    1        2.400   0.032  -0.021  0.00  0.00    +0.010 A 
ATOM     15  C   LIG    1        2.377   1.415  -0.013  0.00  0.00    +0.040 A 
ATOM     16  C   LIG    1        1.171   2.090   0.002  0.00  0.00    +0.020 A 
ATOM     17  C   LIG    1       -0.017   1.385   0.010  0.00  0.00    -0.050 A 
ATOM     18  C   LIG    1       -1.331   2.121   0.020  0.00  0.00    +0.100 C 
ENDBRANCH  11  12
BRANCH   1  19
ATOM     19  S   LIG    1       -0.962  -0.610   2.693  0.00  0.00    +0.020 S 
BRANCH  19  20
ATOM     20  C   LIG    1       -2.110  -1.308   3.906  0.00  0.00    +0.170 C 
BRANCH  20  26
ATOM     21  C   LIG    1       -1.992   0.144   5.948  0.00  0.00    +0.180 A 
ATOM     22  C   LIG    1       -1.532   0.414   7.232  0.00  0.00    -0.080 A 
ATOM     23  C   LIG    1       -0.691  -0.474   7.863  0.00  0.00    +0.120 A 
ATOM     24  C   LIG    1       -0.302  -1.649   7.207  0.00  0.00    -0.210 A 
ATOM     25  C   LIG    1       -0.776  -1.914   5.916  0.00  0.00    +0.140 A 
ATOM     26  C   LIG    1       -1.606  -1.023   5.297  0.00  0.00    -0.130 A 
BRANCH  24  27
ATOM     27  C   LIG    1        0.595  -2.602   7.873  0.00  0.00    +0.400 C 
ATOM     28  O   LIG    1        0.930  -3.619   7.303  0.00  0.00    -0.460 OA
ATOM     29  C   LIG    1        1.099  -2.317   9.264  0.00  0.00    +0.080 C 
ENDBRANCH  24  27
BRANCH  21  31
ATOM     30  C   LIG    1       -3.178   2.199   6.054  0.00  0.00    +0.250 C 
ATOM     31  O   LIG    1       -2.821   1.021   5.329  0.00  0.00    -0.300 OA
ENDBRANCH  21  31
ENDBRANCH  20  26
ENDBRANCH  19  20
ENDBRANCH   1  19
TORSDOF 6
