REMARK  Name = ZINCrg00000SjSvV.0
REMARK                            x       y       z     vdW  Elec       q    Type
REMARK                         _______ _______ _______ _____ _____    ______ ____
ROOT
ATOM      1  N   LIG    1       -0.698   1.558   1.213  0.00  0.00    -0.510 N 
ATOM      2  C   LIG    1       -0.353   2.738   1.767  0.00  0.00    +0.500 C 
ATOM      3  O   LIG    1       -0.921   3.129   2.764  0.00  0.00    -0.490 OA
ENDROOT
BRANCH   1   4
ATOM      4  C   LIG    1       -1.702   0.793   1.784  0.00  0.00    +0.320 A 
ATOM      5  N   LIG    1       -2.109  -0.342   1.331  0.00  0.00    -0.500 NA
ATOM      6  C   LIG    1       -3.094  -0.972   2.001  0.00  0.00    +0.110 A 
ATOM      7  C   LIG    1       -3.704  -2.212   1.715  0.00  0.00    +0.060 A 
ATOM      8  C   LIG    1       -4.707  -2.694   2.517  0.00  0.00    +0.040 A 
ATOM      9  C   LIG    1       -5.138  -1.973   3.621  0.00  0.00    +0.030 A 
ATOM     10  C   LIG    1       -4.557  -0.761   3.920  0.00  0.00    +0.060 A 
ATOM     11  C   LIG    1       -3.537  -0.255   3.117  0.00  0.00    -0.220 A 
ATOM     12  S   LIG    1       -2.605   1.236   3.226  0.00  0.00    +0.170 S 
ENDBRANCH   1   4
BRANCH   1  14
ATOM     13  C   LIG    1       -0.753   1.593  -1.232  0.00  0.00    +0.040 C 
ATOM     14  C   LIG    1       -0.013   1.086   0.008  0.00  0.00    +0.300 C 
ENDBRANCH   1  14
BRANCH   2  15
ATOM     15  C   LIG    1        0.739   3.570   1.145  0.00  0.00    +0.400 C 
BRANCH  15  16
ATOM     16  N   LIG    1        0.923   4.795   1.928  0.00  0.00    -0.570 N 
ATOM     17  C   LIG    1        1.768   4.941   2.971  0.00  0.00    +0.510 C 
ATOM     18  C   LIG    1        1.596   6.359   3.429  0.00  0.00    +0.510 C 
ATOM     19  N   LIG    1        0.669   6.893   2.605  0.00  0.00    -0.570 N 
ATOM     20  O   LIG    1        2.169   6.909   4.346  0.00  0.00    -0.410 OA
ATOM     21  O   LIG    1        2.509   4.102   3.439  0.00  0.00    -0.400 OA
ATOM     22  C   LIG    1        0.285   5.958   1.720  0.00  0.00    +0.720 C 
ATOM     23  O   LIG    1       -0.538   6.141   0.845  0.00  0.00    -0.470 OA
BRANCH  19  24
ATOM     24  C   LIG    1        0.167   8.268   2.664  0.00  0.00    +0.350 C 
BRANCH  24  25
ATOM     25  C   LIG    1        1.036   9.166   1.780  0.00  0.00    +0.180 C 
BRANCH  25  26
ATOM     26  O   LIG    1        0.896   8.770   0.415  0.00  0.00    -0.380 OA
ATOM     27  C   LIG    1        1.670   9.549  -0.499  0.00  0.00    +0.200 C 
ENDBRANCH  25  26
ENDBRANCH  24  25
ENDBRANCH  19  24
ENDBRANCH  15  16
ENDBRANCH   2  15
TORSDOF 7
