REMARK  Name = ZINCpk00000ebwDt.0
REMARK                            x       y       z     vdW  Elec       q    Type
REMARK                         _______ _______ _______ _____ _____    ______ ____
ROOT
ATOM      1  O   LIG    1        6.617   1.804  -1.715  0.00  0.00    -0.330 OA
ENDROOT
BRANCH   1   3
ATOM      2  O   LIG    1        4.538   2.170  -2.367  0.00  0.00    -0.490 OA
ATOM      3  C   LIG    1        5.319   2.030  -1.457  0.00  0.00    +0.440 C 
BRANCH   3   4
ATOM      4  C   LIG    1        4.837   2.110  -0.031  0.00  0.00    +0.440 C 
BRANCH   4   5
ATOM      5  N   LIG    1        3.394   2.362  -0.017  0.00  0.00    -0.540 N 
ATOM      6  C   LIG    1        2.796   3.570  -0.005  0.00  0.00    +0.650 A 
ATOM      7  O   LIG    1        1.464   3.409   0.006  0.00  0.00    -0.230 OA
ATOM      8  C   LIG    1        1.175   2.085   0.002  0.00  0.00    +0.040 A 
ATOM      9  C   LIG    1       -0.017   1.377   0.010  0.00  0.00    +0.060 A 
ATOM     10  C   LIG    1        0.002  -0.004   0.002  0.00  0.00    +0.050 A 
ATOM     11  C   LIG    1        1.206  -0.686  -0.013  0.00  0.00    +0.040 A 
ATOM     12  C   LIG    1        2.399   0.011  -0.020  0.00  0.00    +0.030 A 
ATOM     13  O   LIG    1        3.375   4.640  -0.005  0.00  0.00    -0.480 OA
ATOM     14  C   LIG    1        2.388   1.396  -0.013  0.00  0.00    +0.070 A 
ENDBRANCH   4   5
ENDBRANCH   3   4
ENDBRANCH   1   3
BRANCH   1  15
ATOM     15  C   LIG    1        7.010   1.740  -3.111  0.00  0.00    +0.240 C 
BRANCH  15  16
ATOM     16  C   LIG    1        8.492   1.482  -3.204  0.00  0.00    +0.400 C 
ATOM     17  O   LIG    1        9.152   1.363  -2.193  0.00  0.00    -0.410 OA
BRANCH  16  18
ATOM     18  C   LIG    1        9.135   1.374  -4.516  0.00  0.00    -0.210 A 
ATOM     19  C   LIG    1        8.375   1.505  -5.686  0.00  0.00    +0.100 A 
ATOM     20  C   LIG    1        8.978   1.408  -6.907  0.00  0.00    -0.030 A 
ATOM     21  C   LIG    1       10.346   1.170  -7.000  0.00  0.00    +0.170 A 
ATOM     22  C   LIG    1       11.114   1.032  -5.852  0.00  0.00    -0.040 A 
ATOM     23  C   LIG    1       10.518   1.132  -4.607  0.00  0.00    +0.200 A 
BRANCH  21  24
ATOM     24  O   LIG    1       10.932   1.071  -8.220  0.00  0.00    -0.490 OA
ATOM     25  H   LIG    1       10.950   0.172  -8.576  0.00  0.00    +0.400 HD
ENDBRANCH  21  24
BRANCH  23  26
ATOM     26  O   LIG    1       11.263   0.998  -3.482  0.00  0.00    -0.480 OA
ATOM     27  H   LIG    1       11.327   0.089  -3.159  0.00  0.00    +0.400 HD
ENDBRANCH  23  26
ENDBRANCH  16  18
ENDBRANCH  15  16
ENDBRANCH   1  15
TORSDOF 8
