REMARK  Name = ZINCkj000005kVyI.1
REMARK                            x       y       z     vdW  Elec       q    Type
REMARK                         _______ _______ _______ _____ _____    ______ ____
ROOT
ATOM      1  N   LIG    1       -2.742   2.841   0.054  0.00  0.00    -0.520 N 
ATOM      2  H   LIG    1       -2.684   3.406  -0.780  0.00  0.00    +0.440 HD
ATOM      3  H   LIG    1       -1.857   2.863   0.537  0.00  0.00    +0.430 HD
ENDROOT
BRANCH   1   4
ATOM      4  C   LIG    1       -3.065   1.456  -0.315  0.00  0.00    +0.190 C 
ATOM      5  C   LIG    1       -3.939   1.448  -1.571  0.00  0.00    +0.090 C 
ATOM      6  C   LIG    1       -3.545   2.576  -2.507  0.00  0.00    +0.020 C 
ATOM      7  C   LIG    1       -2.162   2.415  -3.111  0.00  0.00    +0.040 C 
ATOM      8  C   LIG    1       -1.081   2.538  -2.035  0.00  0.00    +0.260 C 
ATOM      9  N   LIG    1       -0.870   1.216  -1.425  0.00  0.00    -0.720 N 
ATOM     10  H   LIG    1       -0.058   0.721  -1.614  0.00  0.00    +0.430 HD
ATOM     11  C   LIG    1       -1.790   0.694  -0.612  0.00  0.00    +0.500 C 
ATOM     12  O   LIG    1       -1.605  -0.394  -0.109  0.00  0.00    -0.480 OA
ENDBRANCH   1   4
BRANCH   1  13
ATOM     13  C   LIG    1       -3.793   3.372   0.932  0.00  0.00    +0.400 C 
BRANCH  13  23
ATOM     14  C   LIG    1       -2.148   4.260   3.395  0.00  0.00    +0.330 C 
ATOM     15  N   LIG    1       -2.736   5.160   2.400  0.00  0.00    -0.480 N 
ATOM     16  C   LIG    1       -2.653   6.538   2.392  0.00  0.00    +0.070 A 
ATOM     17  C   LIG    1       -2.055   7.475   3.224  0.00  0.00    +0.010 A 
ATOM     18  C   LIG    1       -2.167   8.818   2.931  0.00  0.00    +0.070 A 
ATOM     19  C   LIG    1       -2.873   9.237   1.812  0.00  0.00    +0.020 A 
ATOM     20  C   LIG    1       -3.467   8.329   0.982  0.00  0.00    +0.090 A 
ATOM     21  C   LIG    1       -3.367   6.963   1.259  0.00  0.00    +0.040 A 
ATOM     22  N   LIG    1       -3.835   5.846   0.644  0.00  0.00    -0.440 NA
ATOM     23  C   LIG    1       -3.463   4.792   1.310  0.00  0.00    +0.180 A 
ENDBRANCH  13  23
ENDBRANCH   1  13
TORSDOF 3
