REMARK  Name = ZINCnE00000dSSsy.0
REMARK                            x       y       z     vdW  Elec       q    Type
REMARK                         _______ _______ _______ _____ _____    ______ ____
ROOT
ATOM      1  N   LIG    1        3.364   2.143  -0.568  0.00  0.00    -0.390 N 
ATOM      2  C   LIG    1        2.714   3.321  -0.818  0.00  0.00    +0.010 A 
ATOM      3  C   LIG    1        1.393   3.140  -0.654  0.00  0.00    -0.020 A 
ATOM      4  C   LIG    1        1.210   1.732  -0.272  0.00  0.00    -0.160 A 
ATOM      5  C   LIG    1        3.376   4.615  -1.214  0.00  0.00    +0.130 C 
ATOM      6  C   LIG    1        2.483   1.181  -0.235  0.00  0.00    +0.060 A 
ATOM      7  C   LIG    1        2.820  -0.245   0.115  0.00  0.00    +0.130 C 
ENDROOT
BRANCH   1  11
ATOM      8  C   LIG    1        7.495   1.610  -0.796  0.00  0.00    +0.140 A 
ATOM      9  C   LIG    1        6.957   2.460   0.160  0.00  0.00    +0.000 A 
ATOM     10  C   LIG    1        5.589   2.636   0.236  0.00  0.00    +0.070 A 
ATOM     11  C   LIG    1        4.753   1.964  -0.645  0.00  0.00    +0.080 A 
ATOM     12  C   LIG    1        5.291   1.110  -1.598  0.00  0.00    +0.060 A 
ATOM     13  C   LIG    1        6.659   0.939  -1.677  0.00  0.00    -0.060 A 
BRANCH   8  14
ATOM     14  O   LIG    1        8.841   1.437  -0.870  0.00  0.00    -0.310 OA
BRANCH  14  16
ATOM     15  C   LIG    1       10.852   0.480  -1.808  0.00  0.00    +0.070 C 
ATOM     16  C   LIG    1        9.326   0.548  -1.879  0.00  0.00    +0.170 C 
ENDBRANCH  14  16
ENDBRANCH   8  14
ENDBRANCH   1  11
BRANCH   4  17
ATOM     17  C   LIG    1       -0.013   1.076   0.008  0.00  0.00    +0.160 C 
ATOM     18  C   LIG    1       -1.150   1.817   0.277  0.00  0.00    -0.140 C 
BRANCH  18  19
ATOM     19  C   LIG    1       -2.446   1.147   0.412  0.00  0.00    +0.530 C 
ATOM     20  O   LIG    1       -3.452   1.803   0.651  0.00  0.00    -0.690 OA
ATOM     21  O   LIG    1       -2.522  -0.069   0.287  0.00  0.00    -0.680 OA
ENDBRANCH  18  19
BRANCH  18  22
ATOM     22  C   LIG    1       -1.061   3.239   0.424  0.00  0.00    +0.300 C 
ATOM     23  N   LIG    1       -0.990   4.367   0.540  0.00  0.00    -0.480 NA
ENDBRANCH  18  22
ENDBRANCH   4  17
TORSDOF 6
