REMARK  Name = ZINCrg000000nxPG.0
REMARK                            x       y       z     vdW  Elec       q    Type
REMARK                         _______ _______ _______ _____ _____    ______ ____
ROOT
ATOM      1  C   LIG    1        3.898  -3.617   0.699  0.00  0.00    +0.600 C 
ATOM      2  N   LIG    1        3.689  -2.320   0.998  0.00  0.00    -0.700 N 
ATOM      3  H   LIG    1        3.973  -1.628   0.381  0.00  0.00    +0.410 HD
ATOM      4  O   LIG    1        3.541  -4.485   1.473  0.00  0.00    -0.540 OA
ENDROOT
BRANCH   1   7
ATOM      5  N   LIG    1        5.436  -5.151  -2.187  0.00  0.00    -0.360 N 
ATOM      6  C   LIG    1        4.829  -5.257  -0.987  0.00  0.00    +0.290 A 
ATOM      7  C   LIG    1        4.559  -3.985  -0.567  0.00  0.00    -0.100 A 
ATOM      8  N   LIG    1        4.994  -3.126  -1.505  0.00  0.00    -0.210 NA
ATOM      9  N   LIG    1        5.524  -3.783  -2.478  0.00  0.00    -0.050 NA
BRANCH   5  10
ATOM     10  C   LIG    1        5.911  -6.255  -3.025  0.00  0.00    +0.350 C 
BRANCH  10  12
ATOM     11  C   LIG    1        5.397  -4.736  -5.009  0.00  0.00    +0.090 C 
ATOM     12  C   LIG    1        5.289  -6.143  -4.418  0.00  0.00    -0.140 C 
ATOM     13  C   LIG    1        3.880  -6.757  -4.521  0.00  0.00    +0.210 C 
ATOM     14  O   LIG    1        4.336  -7.310  -5.772  0.00  0.00    -0.370 OA
ATOM     15  C   LIG    1        5.724  -7.259  -5.385  0.00  0.00    +0.240 C 
ENDBRANCH  10  12
ENDBRANCH   5  10
ENDBRANCH   1   7
BRANCH   2  16
ATOM     16  C   LIG    1        3.031  -1.955   2.255  0.00  0.00    +0.280 C 
BRANCH  16  17
ATOM     17  C   LIG    1        2.918  -0.432   2.348  0.00  0.00    +0.100 C 
ATOM     18  C   LIG    1        2.232  -0.050   3.661  0.00  0.00    +0.000 C 
ATOM     19  C   LIG    1        3.057  -0.573   4.838  0.00  0.00    +0.010 C 
ATOM     20  C   LIG    1        4.456   0.047   4.795  0.00  0.00    +0.000 C 
ATOM     21  C   LIG    1        5.142  -0.335   3.482  0.00  0.00    +0.020 C 
ATOM     22  C   LIG    1        4.316   0.188   2.305  0.00  0.00    +0.030 C 
BRANCH  17  23
ATOM     23  N   LIG    1        2.125   0.070   1.217  0.00  0.00    -0.520 NA
ATOM     24  C   LIG    1        0.772  -0.505   1.227  0.00  0.00    +0.150 C 
ATOM     25  C   LIG    1        0.002  -0.004   0.002  0.00  0.00    +0.220 C 
ATOM     26  O   LIG    1       -0.017   1.426   0.010  0.00  0.00    -0.380 OA
ATOM     27  C   LIG    1        1.284   2.019   0.001  0.00  0.00    +0.220 C 
ATOM     28  C   LIG    1        2.067   1.539   1.225  0.00  0.00    +0.150 C 
ENDBRANCH  17  23
ENDBRANCH  16  17
ENDBRANCH   2  16
TORSDOF 6
