REMARK  Name = ZINCrD000000CNYr.0
REMARK                            x       y       z     vdW  Elec       q    Type
REMARK                         _______ _______ _______ _____ _____    ______ ____
ROOT
ATOM      1  C   LIG    1        0.388   1.824   3.160  0.00  0.00    +0.230 C 
ENDROOT
BRANCH   1   2
ATOM      2  C   LIG    1       -0.924   1.907   2.424  0.00  0.00    +0.540 C 
ATOM      3  N   LIG    1       -0.981   1.601   1.112  0.00  0.00    -0.640 N 
ATOM      4  C   LIG    1       -0.015   1.069   0.132  0.00  0.00    +0.270 C 
ATOM      5  C   LIG    1       -0.882   1.752  -0.941  0.00  0.00    +0.040 C 
ATOM      6  C   LIG    1       -2.034   1.661   0.076  0.00  0.00    +0.250 C 
ATOM      7  O   LIG    1       -1.928   2.251   3.010  0.00  0.00    -0.510 OA
BRANCH   6   8
ATOM      8  C   LIG    1       -2.898   2.922   0.144  0.00  0.00    -0.010 C 
ATOM      9  C   LIG    1       -3.630   3.111  -1.187  0.00  0.00    +0.050 C 
ATOM     10  C   LIG    1       -4.494   4.372  -1.119  0.00  0.00    +0.030 C 
ATOM     11  C   LIG    1       -3.603   5.587  -0.849  0.00  0.00    +0.290 C 
ATOM     12  C   LIG    1       -2.871   5.397   0.481  0.00  0.00    +0.030 C 
ATOM     13  F   LIG    1       -2.667   5.717  -1.881  0.00  0.00    -0.200 F 
ATOM     14  F   LIG    1       -4.393   6.740  -0.787  0.00  0.00    -0.200 F 
ATOM     15  C   LIG    1       -2.007   4.136   0.413  0.00  0.00    +0.040 C 
ENDBRANCH   6   8
ENDBRANCH   1   2
BRANCH   1  16
ATOM     16  O   LIG    1        0.192   2.195   4.526  0.00  0.00    -0.290 OA
BRANCH  16  23
ATOM     17  O   LIG    1        5.470   2.066   9.866  0.00  0.00    -0.530 OA
ATOM     18  C   LIG    1        4.486   2.071   9.156  0.00  0.00    +0.520 C 
ATOM     19  C   LIG    1        3.118   2.039   9.780  0.00  0.00    +0.080 C 
ATOM     20  C   LIG    1        2.146   2.877   8.947  0.00  0.00    +0.110 C 
ATOM     21  C   LIG    1        2.273   2.499   7.495  0.00  0.00    -0.080 A 
ATOM     22  C   LIG    1        1.164   2.522   6.673  0.00  0.00    +0.030 A 
ATOM     23  C   LIG    1        1.284   2.173   5.335  0.00  0.00    +0.110 A 
ATOM     24  C   LIG    1        2.517   1.796   4.825  0.00  0.00    -0.050 A 
ATOM     25  C   LIG    1        3.629   1.779   5.644  0.00  0.00    +0.020 A 
ATOM     26  C   LIG    1        3.509   2.127   6.983  0.00  0.00    +0.120 A 
ATOM     27  N   LIG    1        4.632   2.104   7.818  0.00  0.00    -0.660 N 
ATOM     28  H   LIG    1        5.522   2.112   7.431  0.00  0.00    +0.410 HD
ENDBRANCH  16  23
ENDBRANCH   1  16
TORSDOF 4
