REMARK  Name = ZINCrD000000BgDB.1
REMARK                            x       y       z     vdW  Elec       q    Type
REMARK                         _______ _______ _______ _____ _____    ______ ____
ROOT
ATOM      1  O   LIG    1       -2.747   2.790  -5.292  0.00  0.00    -0.590 OA
ATOM      2  C   LIG    1       -1.952   3.398  -4.601  0.00  0.00    +0.720 C 
ATOM      3  N   LIG    1       -1.789   4.725  -4.771  0.00  0.00    -0.640 N 
ATOM      4  C   LIG    1       -0.869   5.583  -4.002  0.00  0.00    +0.250 C 
ATOM      5  C   LIG    1       -0.587   6.792  -4.931  0.00  0.00    +0.030 C 
ATOM      6  C   LIG    1       -1.973   6.999  -5.598  0.00  0.00    +0.240 C 
ATOM      7  C   LIG    1       -2.503   5.558  -5.750  0.00  0.00    +0.250 C 
ATOM      8  N   LIG    1       -1.235   2.745  -3.665  0.00  0.00    -0.730 N 
ATOM      9  H   LIG    1       -0.601   3.230  -3.114  0.00  0.00    +0.400 HD
ENDROOT
BRANCH   6  10
ATOM     10  N   LIG    1       -1.833   7.641  -6.907  0.00  0.00    -0.740 N 
ATOM     11  H   LIG    1       -0.982   7.613  -7.372  0.00  0.00    +0.400 HD
BRANCH  10  12
ATOM     12  C   LIG    1       -2.924   8.292  -7.487  0.00  0.00    +0.210 A 
ATOM     13  C   LIG    1       -4.145   8.328  -6.825  0.00  0.00    -0.080 A 
ATOM     14  C   LIG    1       -5.220   8.977  -7.399  0.00  0.00    +0.050 A 
ATOM     15  C   LIG    1       -5.086   9.582  -8.635  0.00  0.00    -0.060 A 
ATOM     16  C   LIG    1       -3.873   9.544  -9.298  0.00  0.00    +0.050 A 
ATOM     17  C   LIG    1       -2.792   8.901  -8.728  0.00  0.00    -0.070 A 
ENDBRANCH  10  12
ENDBRANCH   6  10
BRANCH   8  18
ATOM     18  C   LIG    1       -1.413   1.302  -3.481  0.00  0.00    +0.300 C 
BRANCH  18  19
ATOM     19  C   LIG    1       -0.487   0.813  -2.365  0.00  0.00    +0.270 C 
BRANCH  19  20
ATOM     20  N   LIG    1       -0.734   1.595  -1.146  0.00  0.00    -0.500 NA
ATOM     21  C   LIG    1       -0.075   0.970   0.030  0.00  0.00    +0.160 C 
ATOM     22  C   LIG    1       -0.830   1.539   1.251  0.00  0.00    +0.020 C 
ATOM     23  C   LIG    1       -2.216   1.950   0.705  0.00  0.00    +0.020 C 
ATOM     24  C   LIG    1       -2.179   1.595  -0.797  0.00  0.00    +0.170 C 
ENDBRANCH  19  20
BRANCH  19  25
ATOM     25  C   LIG    1       -0.757  -0.644  -2.091  0.00  0.00    -0.050 A 
ATOM     26  C   LIG    1        0.041  -1.670  -2.435  0.00  0.00    -0.040 A 
ATOM     27  C   LIG    1       -0.593  -2.851  -1.987  0.00  0.00    -0.060 A 
ATOM     28  C   LIG    1       -1.742  -2.476  -1.395  0.00  0.00    +0.160 A 
ATOM     29  O   LIG    1       -1.833  -1.137  -1.456  0.00  0.00    -0.170 OA
ENDBRANCH  19  25
ENDBRANCH  18  19
ENDBRANCH   8  18
TORSDOF 6
