REMARK  Name = ZINCpk00000xNGfz.0
REMARK                            x       y       z     vdW  Elec       q    Type
REMARK                         _______ _______ _______ _____ _____    ______ ____
ROOT
ATOM      1  C   LIG    1       -7.028   5.775   0.631  0.00  0.00    +0.190 C 
ATOM      2  N   LIG    1       -7.148   4.321   0.795  0.00  0.00    -0.540 NA
ATOM      3  C   LIG    1       -8.045   3.988   1.913  0.00  0.00    +0.150 C 
ATOM      4  C   LIG    1       -8.184   2.468   2.018  0.00  0.00    +0.220 C 
ATOM      5  O   LIG    1       -6.888   1.881   2.167  0.00  0.00    -0.380 OA
ATOM      6  C   LIG    1       -5.996   2.183   1.093  0.00  0.00    +0.170 C 
ATOM      7  C   LIG    1       -4.632   1.541   1.353  0.00  0.00    +0.040 C 
ATOM      8  C   LIG    1       -3.701   1.842   0.167  0.00  0.00    +0.270 C 
ATOM      9  N   LIG    1       -3.659   3.296  -0.041  0.00  0.00    -0.590 N 
ATOM     10  C   LIG    1       -4.924   4.027  -0.202  0.00  0.00    +0.300 C 
ATOM     11  C   LIG    1       -2.480   3.947  -0.089  0.00  0.00    +0.580 C 
ATOM     12  O   LIG    1       -2.458   5.160  -0.166  0.00  0.00    -0.540 OA
ATOM     13  C   LIG    1       -5.829   3.703   0.990  0.00  0.00    +0.100 C 
ENDROOT
BRANCH  11  14
ATOM     14  C   LIG    1       -1.213   3.186  -0.048  0.00  0.00    -0.090 A 
ATOM     15  C   LIG    1       -0.997   2.136  -0.943  0.00  0.00    +0.030 A 
ATOM     16  C   LIG    1        0.186   1.427  -0.896  0.00  0.00    +0.020 A 
ATOM     17  C   LIG    1        1.160   1.760   0.028  0.00  0.00    +0.030 A 
ATOM     18  C   LIG    1        0.954   2.803   0.914  0.00  0.00    +0.030 A 
ATOM     19  C   LIG    1       -0.226   3.517   0.881  0.00  0.00    -0.060 A 
BRANCH  19  20
ATOM     20  C   LIG    1       -0.448   4.653   1.847  0.00  0.00    +0.380 C 
BRANCH  20  21
ATOM     21  N   LIG    1       -1.231   4.176   2.990  0.00  0.00    -0.370 N 
ATOM     22  C   LIG    1       -0.880   4.274   4.289  0.00  0.00    +0.220 A 
ATOM     23  C   LIG    1       -1.868   3.717   5.027  0.00  0.00    -0.120 A 
ATOM     24  C   LIG    1       -2.857   3.263   4.148  0.00  0.00    +0.220 A 
ATOM     25  N   LIG    1       -2.479   3.542   2.927  0.00  0.00    -0.280 NA
ENDBRANCH  20  21
ENDBRANCH  19  20
ENDBRANCH  11  14
TORSDOF 3
