REMARK  Name = ZINCrH000004mUj5.0
REMARK                            x       y       z     vdW  Elec       q    Type
REMARK                         _______ _______ _______ _____ _____    ______ ____
ROOT
ATOM      1  C   LIG    1       -7.297   3.590  -0.587  0.00  0.00    +0.200 C 
ATOM      2  C   LIG    1       -8.394   2.785   0.154  0.00  0.00    +0.050 C 
ATOM      3  C   LIG    1       -7.677   2.431   1.484  0.00  0.00    +0.010 C 
ATOM      4  C   LIG    1       -6.217   2.201   1.041  0.00  0.00    +0.190 C 
ATOM      5  N   LIG    1       -6.030   2.914  -0.236  0.00  0.00    -0.510 NA
ENDROOT
BRANCH   1  10
ATOM      6  C   LIG    1       -7.157   2.485  -4.198  0.00  0.00    +0.090 A 
ATOM      7  C   LIG    1       -7.947   3.445  -4.813  0.00  0.00    -0.040 A 
ATOM      8  C   LIG    1       -8.524   4.449  -4.061  0.00  0.00    -0.040 A 
ATOM      9  C   LIG    1       -8.319   4.495  -2.690  0.00  0.00    +0.090 A 
ATOM     10  C   LIG    1       -7.525   3.538  -2.076  0.00  0.00    -0.070 A 
ATOM     11  C   LIG    1       -6.947   2.534  -2.828  0.00  0.00    +0.070 A 
BRANCH   6  13
ATOM     12  C   LIG    1       -6.848   1.507  -6.344  0.00  0.00    +0.230 C 
ATOM     13  O   LIG    1       -6.589   1.496  -4.939  0.00  0.00    -0.320 OA
ENDBRANCH   6  13
BRANCH   9  14
ATOM     14  O   LIG    1       -8.892   5.480  -1.949  0.00  0.00    -0.320 OA
ATOM     15  C   LIG    1       -9.698   6.432  -2.647  0.00  0.00    +0.230 C 
ENDBRANCH   9  14
ENDBRANCH   1  10
BRANCH   5  16
ATOM     16  C   LIG    1       -4.927   3.878  -0.144  0.00  0.00    +0.210 C 
BRANCH  16  17
ATOM     17  C   LIG    1       -3.618   3.137  -0.047  0.00  0.00    +0.520 C 
ATOM     18  N   LIG    1       -2.461   3.822   0.047  0.00  0.00    -0.670 N 
ATOM     19  H   LIG    1       -2.475   4.788   0.134  0.00  0.00    +0.420 HD
ATOM     20  O   LIG    1       -3.606   1.924  -0.055  0.00  0.00    -0.490 OA
BRANCH  18  21
ATOM     21  C   LIG    1       -1.238   3.138   0.020  0.00  0.00    +0.110 A 
ATOM     22  C   LIG    1       -1.149   1.897  -0.595  0.00  0.00    +0.090 A 
ATOM     23  C   LIG    1        0.056   1.222  -0.616  0.00  0.00    +0.010 A 
ATOM     24  C   LIG    1        1.178   1.786  -0.033  0.00  0.00    +0.110 A 
ATOM     25  C   LIG    1        1.095   3.027   0.577  0.00  0.00    -0.020 A 
ATOM     26  F   LIG    1        2.357   1.126  -0.060  0.00  0.00    -0.130 F 
ATOM     27  C   LIG    1       -0.110   3.704   0.605  0.00  0.00    +0.090 A 
ATOM     28  F   LIG    1       -0.193   4.914   1.200  0.00  0.00    -0.130 F 
ENDBRANCH  18  21
ENDBRANCH  16  17
ENDBRANCH   5  16
TORSDOF 6
