REMARK  Name = ZINCnE00000hdcBr.0
REMARK                            x       y       z     vdW  Elec       q    Type
REMARK                         _______ _______ _______ _____ _____    ______ ____
ROOT
ATOM      1  C   LIG    1        0.933  -0.447  -1.128  0.00  0.00    -0.030 C 
ATOM      2  C   LIG    1        2.308   0.219  -1.036  0.00  0.00    +0.010 C 
ATOM      3  C   LIG    1        2.149   1.738  -1.139  0.00  0.00    +0.010 C 
ATOM      4  C   LIG    1        1.292   2.238   0.027  0.00  0.00    +0.250 C 
ATOM      5  N   LIG    1        0.022   1.498   0.032  0.00  0.00    -0.610 N 
ATOM      6  C   LIG    1       -1.155   2.153   0.025  0.00  0.00    +0.520 C 
ATOM      7  O   LIG    1       -2.193   1.535  -0.080  0.00  0.00    -0.530 OA
ATOM      8  C   LIG    1        0.061   0.029   0.039  0.00  0.00    +0.280 C 
ENDROOT
BRANCH   6   9
ATOM      9  C   LIG    1       -1.182   3.655   0.148  0.00  0.00    -0.010 C 
ATOM     10  C   LIG    1       -1.254   4.280  -1.246  0.00  0.00    +0.060 C 
ATOM     11  C   LIG    1       -1.281   5.804  -1.122  0.00  0.00    +0.020 C 
ATOM     12  C   LIG    1       -2.506   6.228  -0.309  0.00  0.00    +0.020 C 
ATOM     13  C   LIG    1       -2.434   5.603   1.085  0.00  0.00    +0.040 C 
ATOM     14  C   LIG    1       -2.407   4.078   0.961  0.00  0.00    +0.010 C 
BRANCH  14  15
ATOM     15  C   LIG    1       -2.335   3.454   2.356  0.00  0.00    +0.450 C 
ATOM     16  F   LIG    1       -2.215   2.065   2.239  0.00  0.00    -0.170 F 
ATOM     17  F   LIG    1       -3.500   3.763   3.066  0.00  0.00    -0.180 F 
ATOM     18  F   LIG    1       -1.224   3.962   3.037  0.00  0.00    -0.190 F 
ENDBRANCH  14  15
ENDBRANCH   6   9
BRANCH   1  19
ATOM     19  C   LIG    1        1.095  -1.966  -1.058  0.00  0.00    +0.030 C 
BRANCH  19  20
ATOM     20  C   LIG    1        1.859  -2.455  -2.290  0.00  0.00    -0.070 C 
BRANCH  20  22
ATOM     21  O   LIG    1        1.563  -4.571  -1.275  0.00  0.00    -0.700 OA
ATOM     22  C   LIG    1        2.019  -3.952  -2.222  0.00  0.00    +0.490 C 
ATOM     23  O   LIG    1        2.603  -4.544  -3.113  0.00  0.00    -0.710 OA
ENDBRANCH  20  22
ENDBRANCH  19  20
ENDBRANCH   1  19
TORSDOF 5
