REMARK  Name = ZINCb80000006kWW.0
REMARK                            x       y       z     vdW  Elec       q    Type
REMARK                         _______ _______ _______ _____ _____    ______ ____
ROOT
ATOM      1  C   LIG    1       -0.957   1.909  -1.397  0.00  0.00    -0.820 A 
ATOM      2  C   LIG    1       -0.853   3.087  -1.999  0.00  0.00    +0.230 A 
ATOM      3  C   LIG    1       -1.742   3.226  -3.131  0.00  0.00    -0.240 A 
ATOM      4  C   LIG    1       -2.506   2.116  -3.347  0.00  0.00    +0.030 A 
ATOM      5  S   LIG    1       -2.153   0.907  -2.199  0.00  0.00    +0.320 S 
ENDROOT
BRANCH   1   6
ATOM      6  S   LIG    1       -0.017   1.417   0.010  0.00  0.00    +2.730 S 
ATOM      7  O   LIG    1        1.162   2.210   0.003  0.00  0.00    -0.950 OA
ATOM      8  O   LIG    1        0.002  -0.004   0.002  0.00  0.00    -0.950 OA
BRANCH   6   9
ATOM      9  N   LIG    1       -0.875   1.865   1.354  0.00  0.00    -1.250 NA
ATOM     10  H   LIG    1       -1.730   2.313   1.256  0.00  0.00    +0.420 HD
ATOM     11  H   LIG    1       -0.522   1.680   2.238  0.00  0.00    +0.420 HD
ENDBRANCH   6   9
ENDBRANCH   1   6
BRANCH   3  12
ATOM     12  C   LIG    1       -1.815   4.431  -3.958  0.00  0.00    +0.510 C 
ATOM     13  O   LIG    1       -1.105   5.383  -3.707  0.00  0.00    -0.450 OA
ENDBRANCH   3  12
TORSDOF 3
