REMARK  Name = ZINCrH00000tj11U.0
REMARK                            x       y       z     vdW  Elec       q    Type
REMARK                         _______ _______ _______ _____ _____    ______ ____
ROOT
ATOM      1  C   LIG    1       -0.185   0.352   6.454  0.00  0.00    +0.150 A 
ATOM      2  C   LIG    1       -0.035   0.980   5.226  0.00  0.00    -0.080 A 
ATOM      3  C   LIG    1       -1.029   0.872   4.277  0.00  0.00    +0.060 A 
ATOM      4  C   LIG    1       -2.181   0.140   4.538  0.00  0.00    -0.130 A 
ATOM      5  C   LIG    1       -2.330  -0.489   5.756  0.00  0.00    -0.010 A 
ATOM      6  C   LIG    1       -3.549  -1.304   6.101  0.00  0.00    +0.090 C 
ATOM      7  C   LIG    1       -4.707  -0.966   5.165  0.00  0.00    +0.040 C 
ATOM      8  C   LIG    1       -4.210  -1.070   3.718  0.00  0.00    +0.050 C 
ATOM      9  C   LIG    1       -3.228   0.067   3.463  0.00  0.00    +0.180 C 
ATOM     10  N   LIG    1       -3.943   1.346   3.360  0.00  0.00    -0.710 N 
ATOM     11  H   LIG    1       -4.476   1.771   4.051  0.00  0.00    +0.440 HD
ATOM     12  C   LIG    1       -3.711   1.814   2.119  0.00  0.00    +0.700 C 
ATOM     13  N   LIG    1       -2.933   0.995   1.402  0.00  0.00    -0.570 N 
ATOM     14  O   LIG    1       -4.159   2.862   1.697  0.00  0.00    -0.520 OA
ATOM     15  C   LIG    1       -2.581  -0.100   2.107  0.00  0.00    +0.530 C 
ATOM     16  O   LIG    1       -1.889  -1.022   1.732  0.00  0.00    -0.440 OA
ATOM     17  C   LIG    1       -1.332  -0.380   6.714  0.00  0.00    -0.020 A 
ENDROOT
BRANCH   1  19
ATOM     18  C   LIG    1        1.941   1.227   7.058  0.00  0.00    +0.250 C 
ATOM     19  O   LIG    1        0.788   0.455   7.398  0.00  0.00    -0.310 OA
ENDBRANCH   1  19
BRANCH  13  20
ATOM     20  C   LIG    1       -2.519   1.253   0.020  0.00  0.00    +0.390 C 
BRANCH  20  21
ATOM     21  C   LIG    1       -1.224   2.023   0.019  0.00  0.00    -0.160 A 
ATOM     22  C   LIG    1       -0.016   1.347   0.009  0.00  0.00    +0.130 A 
ATOM     23  C   LIG    1        1.173   2.056   0.002  0.00  0.00    -0.020 A 
ATOM     24  C   LIG    1        1.154   3.438   0.009  0.00  0.00    +0.080 A 
ATOM     25  C   LIG    1       -0.052   4.113   0.025  0.00  0.00    +0.010 A 
ATOM     26  F   LIG    1        0.002  -0.004   0.002  0.00  0.00    -0.120 F 
ATOM     27  C   LIG    1       -1.241   3.406   0.032  0.00  0.00    +0.010 A 
ATOM     28 CL   LIG    1       -2.756   4.255   0.051  0.00  0.00    -0.020 Cl
ENDBRANCH  20  21
ENDBRANCH  13  20
TORSDOF 3
