REMARK  Name = ZINCpe00000yvmUU.0
REMARK                            x       y       z     vdW  Elec       q    Type
REMARK                         _______ _______ _______ _____ _____    ______ ____
ROOT
ATOM      1  C   LIG    1        3.093   4.049   0.657  0.00  0.00    +0.530 C 
ATOM      2  N   LIG    1        3.889   3.018   0.310  0.00  0.00    -0.610 N 
ATOM      3  C   LIG    1        3.601   2.219  -0.888  0.00  0.00    +0.270 C 
ATOM      4  C   LIG    1        4.858   2.190  -1.770  0.00  0.00    +0.020 C 
ATOM      5  C   LIG    1        6.041   1.679  -0.945  0.00  0.00    +0.030 C 
ATOM      6  C   LIG    1        6.297   2.631   0.226  0.00  0.00    +0.050 C 
ATOM      7  C   LIG    1        5.059   2.668   1.128  0.00  0.00    +0.300 C 
ATOM      8  O   LIG    1        3.394   4.760   1.592  0.00  0.00    -0.510 OA
ENDROOT
BRANCH   6   9
ATOM      9  C   LIG    1        7.482   2.144   1.020  0.00  0.00    +0.230 A 
ATOM     10  C   LIG    1        7.714   0.786   1.173  0.00  0.00    -0.140 A 
ATOM     11  C   LIG    1        8.819   0.382   1.907  0.00  0.00    +0.370 A 
ATOM     12  N   LIG    1        9.608   1.297   2.443  0.00  0.00    -0.570 NA
ATOM     13  C   LIG    1        9.355   2.588   2.282  0.00  0.00    +0.570 A 
ATOM     14  N   LIG    1        8.311   3.008   1.583  0.00  0.00    -0.570 NA
BRANCH  13  15
ATOM     15  N   LIG    1       10.202   3.519   2.857  0.00  0.00    -0.820 N 
ATOM     16  H   LIG    1       10.969   3.225   3.372  0.00  0.00    +0.420 HD
ATOM     17  H   LIG    1       10.027   4.467   2.746  0.00  0.00    +0.420 HD
ENDBRANCH  13  15
ENDBRANCH   6   9
BRANCH   1  18
ATOM     18  C   LIG    1        1.829   4.318  -0.118  0.00  0.00    +0.260 C 
BRANCH  18  24
ATOM     19  C   LIG    1        1.882   2.283   2.268  0.00  0.00    +0.320 C 
ATOM     20  N   LIG    1        0.851   2.361   1.230  0.00  0.00    -0.450 N 
ATOM     21  C   LIG    1       -0.243   1.576   1.127  0.00  0.00    +0.400 A 
ATOM     22  N   LIG    1       -0.923   1.942   0.074  0.00  0.00    -0.490 NA
ATOM     23  C   LIG    1       -0.298   2.969  -0.521  0.00  0.00    +0.160 A 
ATOM     24  C   LIG    1        0.816   3.244   0.185  0.00  0.00    -0.060 A 
ENDBRANCH  18  24
BRANCH  18  25
ATOM     25  N   LIG    1        1.286   5.627   0.269  0.00  0.00    -0.510 NA
ATOM     26  C   LIG    1        0.780   5.600   1.648  0.00  0.00    +0.200 C 
ATOM     27  C   LIG    1        0.241   6.061  -0.667  0.00  0.00    +0.200 C 
ENDBRANCH  18  25
ENDBRANCH   1  18
TORSDOF 5
