REMARK  Name = ZINCrg00000J1gAI.0
REMARK                            x       y       z     vdW  Elec       q    Type
REMARK                         _______ _______ _______ _____ _____    ______ ____
ROOT
ATOM      1  O   LIG    1       -2.197   4.857   1.548  0.00  0.00    -0.510 OA
ATOM      2  C   LIG    1       -2.309   3.788   0.986  0.00  0.00    +0.510 C 
ATOM      3  C   LIG    1       -1.238   3.337   0.026  0.00  0.00    +0.340 C 
ATOM      4  N   LIG    1       -1.191   1.867   0.018  0.00  0.00    -0.560 N 
ATOM      5  C   LIG    1       -2.410   1.171   0.014  0.00  0.00    +0.110 A 
ATOM      6  C   LIG    1       -2.522  -0.076  -0.569  0.00  0.00    +0.060 A 
ATOM      7  C   LIG    1       -3.738  -0.735  -0.554  0.00  0.00    +0.010 A 
ATOM      8  C   LIG    1       -4.839  -0.150   0.045  0.00  0.00    +0.030 A 
ATOM      9  C   LIG    1       -4.733   1.096   0.636  0.00  0.00    +0.010 A 
ATOM     10  C   LIG    1       -3.518   1.762   0.628  0.00  0.00    +0.130 A 
ATOM     11  C   LIG    1       -0.014   1.209   0.009  0.00  0.00    +0.520 C 
ATOM     12  O   LIG    1        0.002  -0.004   0.002  0.00  0.00    -0.480 OA
ATOM     13  N   LIG    1       -3.389   3.021   1.225  0.00  0.00    -0.650 N 
ATOM     14  H   LIG    1       -4.084   3.344   1.819  0.00  0.00    +0.420 HD
ENDROOT
BRANCH  11  15
ATOM     15  C   LIG    1        1.280   1.980   0.001  0.00  0.00    +0.270 C 
BRANCH  15  16
ATOM     16  O   LIG    1        2.397   1.052  -0.015  0.00  0.00    -0.320 OA
BRANCH  16  17
ATOM     17  C   LIG    1        3.630   1.581  -0.024  0.00  0.00    +0.460 C 
ATOM     18  O   LIG    1        3.772   2.781  -0.019  0.00  0.00    -0.490 OA
BRANCH  17  19
ATOM     19  C   LIG    1        4.837   0.680  -0.041  0.00  0.00    +0.450 C 
BRANCH  19  20
ATOM     20  N   LIG    1        6.055   1.494  -0.048  0.00  0.00    -0.340 N 
ATOM     21  N   LIG    1        6.567   1.843  -1.172  0.00  0.00    -0.190 NA
ATOM     22  C   LIG    1        7.645   2.571  -1.255  0.00  0.00    +0.280 A 
ATOM     23  C   LIG    1        8.306   3.000  -0.090  0.00  0.00    +0.010 A 
ATOM     24  C   LIG    1        7.785   2.637   1.122  0.00  0.00    -0.110 A 
ATOM     25 CL   LIG    1        8.541   3.125   2.607  0.00  0.00    +0.020 Cl
ATOM     26 CL   LIG    1        9.747   3.963  -0.187  0.00  0.00    +0.000 Cl
ATOM     27  C   LIG    1        6.611   1.853   1.125  0.00  0.00    +0.500 A 
ATOM     28  O   LIG    1        6.106   1.502   2.180  0.00  0.00    -0.490 OA
ENDBRANCH  19  20
ENDBRANCH  17  19
ENDBRANCH  16  17
ENDBRANCH  15  16
ENDBRANCH  11  15
TORSDOF 5
