REMARK  Name = ZINC9p0000004T1x.0
REMARK                            x       y       z     vdW  Elec       q    Type
REMARK                         _______ _______ _______ _____ _____    ______ ____
ROOT
ATOM      1  C   LIG    1        1.487   1.907  -0.002  0.00  0.00    +0.000 C 
ATOM      2  C   LIG    1        2.139   0.844   0.906  0.00  0.00    +0.040 C 
ATOM      3  C   LIG    1        1.195  -0.371   0.908  0.00  0.00    +0.050 C 
ATOM      4  C   LIG    1        0.002  -0.004   0.002  0.00  0.00    +0.170 C 
ATOM      5  C   LIG    1       -0.019   1.545   0.011  0.00  0.00    +0.050 C 
ENDROOT
BRANCH   4   6
ATOM      6  N   LIG    1       -1.250  -0.538   0.554  0.00  0.00    -0.630 N 
ATOM      7  H   LIG    1       -1.363  -0.217   1.504  0.00  0.00    +0.430 HD
ATOM      8  H   LIG    1       -1.220  -1.547   0.541  0.00  0.00    +0.440 HD
ATOM      9  H   LIG    1       -2.027  -0.218  -0.004  0.00  0.00    +0.440 HD
ENDBRANCH   4   6
BRANCH   1  10
ATOM     10  C   LIG    1        1.705   3.308   0.572  0.00  0.00    +0.020 C 
BRANCH  10  12
ATOM     11  C   LIG    1        3.398   5.093   1.009  0.00  0.00    +0.010 C 
ATOM     12  C   LIG    1        3.180   3.692   0.435  0.00  0.00    -0.010 C 
ENDBRANCH  10  12
ENDBRANCH   1  10
TORSDOF 3
