REMARK  Name = ZINCpe00000MJId5.0
REMARK                            x       y       z     vdW  Elec       q    Type
REMARK                         _______ _______ _______ _____ _____    ______ ____
ROOT
ATOM      1  C   LIG    1        1.205  -3.017   1.232  0.00  0.00    +0.070 C 
ENDROOT
BRANCH   1   6
ATOM      2  C   LIG    1       -1.331   2.079   0.020  0.00  0.00    +0.120 C 
ATOM      3  C   LIG    1       -0.016   1.344   0.009  0.00  0.00    +0.520 C 
ATOM      4  N   LIG    1        0.002  -0.004   0.002  0.00  0.00    -0.550 N 
ATOM      5  C   LIG    1        1.214  -0.828  -0.014  0.00  0.00    +0.290 C 
ATOM      6  C   LIG    1        0.714  -2.281  -0.016  0.00  0.00    +0.050 C 
ATOM      7  C   LIG    1       -0.794  -2.165  -0.001  0.00  0.00    -0.130 A 
ATOM      8  C   LIG    1       -1.777  -3.135   0.004  0.00  0.00    +0.050 A 
ATOM      9  C   LIG    1       -3.111  -2.772   0.033  0.00  0.00    -0.010 A 
ATOM     10  C   LIG    1       -3.459  -1.434   0.045  0.00  0.00    +0.050 A 
ATOM     11  C   LIG    1       -2.481  -0.462   0.036  0.00  0.00    -0.020 A 
ATOM     12  C   LIG    1       -1.133  -0.821   0.015  0.00  0.00    +0.150 A 
ATOM     13  O   LIG    1        1.026   1.964   0.003  0.00  0.00    -0.520 OA
ENDBRANCH   1   6
BRANCH   1  14
ATOM     14  C   LIG    1        0.802  -4.490   1.148  0.00  0.00    +0.090 C 
BRANCH  14  15
ATOM     15  C   LIG    1        1.286  -5.214   2.378  0.00  0.00    +0.520 C 
ATOM     16  N   LIG    1        1.043  -6.532   2.523  0.00  0.00    -0.490 N 
ATOM     17  H   LIG    1        0.557  -7.014   1.836  0.00  0.00    +0.420 HD
ATOM     18  O   LIG    1        1.893  -4.611   3.237  0.00  0.00    -0.510 OA
BRANCH  16  19
ATOM     19  N   LIG    1        1.493  -7.205   3.667  0.00  0.00    -0.430 N 
ATOM     20  C   LIG    1        2.635  -8.133   3.750  0.00  0.00    +0.330 C 
ATOM     21  C   LIG    1        2.651  -8.547   5.207  0.00  0.00    +0.530 C 
ATOM     22  N   LIG    1        1.619  -7.899   5.783  0.00  0.00    -0.570 N 
ATOM     23  C   LIG    1        1.260  -8.015   7.198  0.00  0.00    +0.350 C 
ATOM     24  O   LIG    1        3.429  -9.308   5.744  0.00  0.00    -0.460 OA
ATOM     25  C   LIG    1        0.963  -7.136   4.901  0.00  0.00    +0.710 C 
ATOM     26  O   LIG    1       -0.004  -6.456   5.184  0.00  0.00    -0.520 OA
ENDBRANCH  16  19
ENDBRANCH  14  15
ENDBRANCH   1  14
TORSDOF 4
