REMARK  Name = ZINCqH0000002Z03.0
REMARK                            x       y       z     vdW  Elec       q    Type
REMARK                         _______ _______ _______ _____ _____    ______ ____
ROOT
ATOM      1  N   LIG    1       -6.218   3.032  -0.933  0.00  0.00    -0.590 N 
ATOM      2  C   LIG    1       -5.187   3.444  -0.168  0.00  0.00    +0.500 C 
ATOM      3  O   LIG    1       -4.447   2.629   0.341  0.00  0.00    -0.500 OA
ENDROOT
BRANCH   2   4
ATOM      4  C   LIG    1       -4.955   4.916   0.055  0.00  0.00    +0.100 C 
ATOM      5  C   LIG    1       -4.754   5.611  -1.294  0.00  0.00    +0.100 C 
ATOM      6  C   LIG    1       -6.167   5.522   0.765  0.00  0.00    +0.050 C 
BRANCH   4   7
ATOM      7  O   LIG    1       -3.789   5.098   0.862  0.00  0.00    -0.280 OA
BRANCH   7   8
ATOM      8  C   LIG    1       -3.817   4.569   2.114  0.00  0.00    +0.140 A 
ATOM      9  C   LIG    1       -4.904   3.809   2.523  0.00  0.00    -0.040 A 
ATOM     10  C   LIG    1       -4.933   3.276   3.797  0.00  0.00    +0.050 A 
ATOM     11  C   LIG    1       -3.874   3.491   4.661  0.00  0.00    -0.070 A 
ATOM     12  C   LIG    1       -2.787   4.244   4.254  0.00  0.00    +0.070 A 
ATOM     13 CL   LIG    1       -3.909   2.814   6.260  0.00  0.00    -0.070 Cl
ATOM     14  C   LIG    1       -2.757   4.783   2.982  0.00  0.00    +0.000 A 
ENDBRANCH   7   8
ENDBRANCH   4   7
ENDBRANCH   2   4
BRANCH   1  16
ATOM     15  C   LIG    1       -7.590   1.225  -0.021  0.00  0.00    +0.020 C 
ATOM     16  C   LIG    1       -6.520   1.604  -1.048  0.00  0.00    +0.280 C 
ENDBRANCH   1  16
BRANCH   1  17
ATOM     17  C   LIG    1       -7.035   4.014  -1.650  0.00  0.00    +0.300 C 
BRANCH  17  18
ATOM     18  C   LIG    1       -6.539   4.143  -3.067  0.00  0.00    +0.490 C 
ATOM     19  N   LIG    1       -7.144   4.995  -3.918  0.00  0.00    -0.730 N 
ATOM     20  H   LIG    1       -7.899   5.525  -3.619  0.00  0.00    +0.400 HD
ATOM     21  O   LIG    1       -5.595   3.480  -3.441  0.00  0.00    -0.520 OA
BRANCH  19  22
ATOM     22  C   LIG    1       -6.661   5.120  -5.296  0.00  0.00    +0.370 C 
BRANCH  22  23
ATOM     23  C   LIG    1       -7.503   6.130  -6.033  0.00  0.00    -0.210 A 
ATOM     24  C   LIG    1       -7.252   7.438  -6.099  0.00  0.00    +0.030 A 
ATOM     25  C   LIG    1       -8.166   8.171  -6.836  0.00  0.00    +0.000 A 
ATOM     26  C   LIG    1       -9.159   7.457  -7.369  0.00  0.00    -0.030 A 
ATOM     27  S   LIG    1       -8.961   5.762  -6.944  0.00  0.00    +0.120 S 
ENDBRANCH  22  23
ENDBRANCH  19  22
ENDBRANCH  17  18
ENDBRANCH   1  17
TORSDOF 8
