REMARK  Name = ZINCqH0000001b1Q.0
REMARK                            x       y       z     vdW  Elec       q    Type
REMARK                         _______ _______ _______ _____ _____    ______ ____
ROOT
ATOM      1  C   LIG    1        2.441   4.050  -0.068  0.00  0.00    +0.340 C 
ENDROOT
BRANCH   1   2
ATOM      2  N   LIG    1        2.812   4.291  -1.465  0.00  0.00    -0.740 N 
ATOM      3  H   LIG    1        2.253   3.952  -2.181  0.00  0.00    +0.400 HD
ATOM      4  C   LIG    1        3.932   4.984  -1.754  0.00  0.00    +0.710 C 
ATOM      5  N   LIG    1        4.328   5.119  -3.035  0.00  0.00    -0.630 N 
ATOM      6  C   LIG    1        3.495   4.611  -4.134  0.00  0.00    +0.270 C 
ATOM      7  C   LIG    1        4.345   3.687  -5.012  0.00  0.00    +0.030 C 
ATOM      8  C   LIG    1        5.600   4.436  -5.468  0.00  0.00    +0.040 C 
ATOM      9  C   LIG    1        6.428   4.838  -4.246  0.00  0.00    -0.030 C 
ATOM     10  C   LIG    1        5.599   5.780  -3.360  0.00  0.00    +0.320 C 
ATOM     11  O   LIG    1        4.584   5.488  -0.860  0.00  0.00    -0.580 OA
BRANCH   9  12
ATOM     12  C   LIG    1        7.699   5.558  -4.705  0.00  0.00    +0.460 C 
ATOM     13  F   LIG    1        8.451   4.703  -5.517  0.00  0.00    -0.180 F 
ATOM     14  F   LIG    1        8.456   5.926  -3.587  0.00  0.00    -0.180 F 
ATOM     15  F   LIG    1        7.350   6.702  -5.429  0.00  0.00    -0.180 F 
ENDBRANCH   9  12
ENDBRANCH   1   2
BRANCH   1  19
ATOM     16  C   LIG    1       -1.194   1.807   0.067  0.00  0.00    +0.150 A 
ATOM     17  C   LIG    1        0.029   1.149   0.040  0.00  0.00    +0.020 A 
ATOM     18  C   LIG    1        1.202   1.877  -0.005  0.00  0.00    +0.050 A 
ATOM     19  C   LIG    1        1.159   3.259  -0.018  0.00  0.00    -0.130 A 
ATOM     20  C   LIG    1       -0.056   3.917   0.013  0.00  0.00    +0.050 A 
ATOM     21  C   LIG    1       -1.233   3.195   0.058  0.00  0.00    -0.020 A 
BRANCH  16  23
ATOM     22  C   LIG    1       -2.438  -0.087   0.791  0.00  0.00    +0.520 C 
ATOM     23  N   LIG    1       -2.385   1.073   0.106  0.00  0.00    -0.680 N 
ATOM     24  H   LIG    1       -3.171   1.398  -0.358  0.00  0.00    +0.410 HD
ATOM     25  O   LIG    1       -1.434  -0.537   1.302  0.00  0.00    -0.510 OA
BRANCH  22  27
ATOM     26  C   LIG    1       -4.264  -1.193  -0.471  0.00  0.00    +0.040 C 
ATOM     27  C   LIG    1       -3.745  -0.826   0.921  0.00  0.00    -0.010 C 
ATOM     28  C   LIG    1       -3.532  -2.101   1.739  0.00  0.00    +0.050 C 
ENDBRANCH  22  27
ENDBRANCH  16  23
ENDBRANCH   1  19
TORSDOF 5
