REMARK  Name = ZINCrH000004sOy1.0
REMARK                            x       y       z     vdW  Elec       q    Type
REMARK                         _______ _______ _______ _____ _____    ______ ____
ROOT
ATOM      1  N   LIG    1        4.481   5.644  -0.353  0.00  0.00    -0.990 NA
ATOM      2  C   LIG    1        5.652   6.533  -0.341  0.00  0.00    +0.280 C 
ATOM      3  C   LIG    1        6.652   6.017   0.698  0.00  0.00    +0.020 C 
ATOM      4  C   LIG    1        6.979   4.551   0.401  0.00  0.00    +0.030 C 
ATOM      5  C   LIG    1        5.704   3.709   0.498  0.00  0.00    +0.050 C 
ATOM      6  C   LIG    1        4.691   4.202  -0.541  0.00  0.00    +0.240 C 
ENDROOT
BRANCH   6   7
ATOM      7  C   LIG    1        3.385   3.474  -0.358  0.00  0.00    +0.520 C 
ATOM      8  N   LIG    1        2.746   2.958  -1.427  0.00  0.00    -0.660 N 
ATOM      9  H   LIG    1        3.150   3.014  -2.307  0.00  0.00    +0.410 HD
ATOM     10  O   LIG    1        2.909   3.351   0.750  0.00  0.00    -0.500 OA
BRANCH   8  11
ATOM     11  C   LIG    1        1.500   2.341  -1.267  0.00  0.00    +0.190 A 
ATOM     12  C   LIG    1        0.532   2.461  -2.255  0.00  0.00    +0.010 A 
ATOM     13  C   LIG    1       -0.697   1.851  -2.095  0.00  0.00    +0.070 A 
ATOM     14  C   LIG    1       -0.965   1.121  -0.951  0.00  0.00    -0.050 A 
ATOM     15  C   LIG    1       -0.002   1.000   0.037  0.00  0.00    -0.010 A 
ATOM     16 CL   LIG    1       -0.344   0.089   1.475  0.00  0.00    -0.040 Cl
ATOM     17 CL   LIG    1       -2.511   0.357  -0.753  0.00  0.00    -0.050 Cl
ATOM     18  C   LIG    1        1.230   1.608  -0.119  0.00  0.00    +0.060 A 
ENDBRANCH   8  11
ENDBRANCH   6   7
BRANCH   1  19
ATOM     19  S   LIG    1        2.955   6.257  -0.159  0.00  0.00    +2.720 S 
ATOM     20  O   LIG    1        2.975   7.009   1.046  0.00  0.00    -0.930 OA
ATOM     21  O   LIG    1        2.058   5.178  -0.387  0.00  0.00    -0.920 OA
BRANCH  19  28
ATOM     22  C   LIG    1        3.305   9.644  -0.255  0.00  0.00    +0.180 C 
ATOM     23  C   LIG    1        2.853   8.815  -1.430  0.00  0.00    +0.110 A 
ATOM     24  N   LIG    1        2.541   9.249  -2.617  0.00  0.00    -0.360 NA
ATOM     25  O   LIG    1        2.210   8.346  -3.349  0.00  0.00    +0.100 OA
ATOM     26  C   LIG    1        2.266   7.160  -2.725  0.00  0.00    +0.120 A 
ATOM     27  C   LIG    1        1.929   5.815  -3.313  0.00  0.00    +0.210 C 
ATOM     28  C   LIG    1        2.686   7.411  -1.462  0.00  0.00    -0.800 A 
ENDBRANCH  19  28
ENDBRANCH   1  19
TORSDOF 4
