REMARK  Name = ZINCkj00000dE76m.0
REMARK                            x       y       z     vdW  Elec       q    Type
REMARK                         _______ _______ _______ _____ _____    ______ ____
ROOT
ATOM      1  C   LIG    1        2.455   1.293  -0.076  0.00  0.00    +0.160 A 
ATOM      2  C   LIG    1        1.180   1.843  -0.069  0.00  0.00    +0.000 A 
ATOM      3  C   LIG    1        0.073   1.019  -0.134  0.00  0.00    +0.050 A 
ATOM      4  C   LIG    1        0.235  -0.357  -0.205  0.00  0.00    +0.090 A 
ATOM      5  C   LIG    1        1.509  -0.906  -0.211  0.00  0.00    +0.050 A 
ATOM      6  C   LIG    1        2.616  -0.084  -0.147  0.00  0.00    +0.040 A 
ENDROOT
BRANCH   1  10
ATOM      7  N   LIG    1        5.821   2.535  -0.516  0.00  0.00    -0.750 N 
ATOM      8  H   LIG    1        5.812   3.308   0.070  0.00  0.00    +0.410 HD
ATOM      9  C   LIG    1        4.705   1.795  -0.670  0.00  0.00    +0.710 C 
ATOM     10  N   LIG    1        3.579   2.128  -0.010  0.00  0.00    -0.680 N 
ATOM     11  H   LIG    1        3.545   2.946   0.510  0.00  0.00    +0.410 HD
ATOM     12  O   LIG    1        4.716   0.826  -1.405  0.00  0.00    -0.560 OA
BRANCH   7  13
ATOM     13  C   LIG    1        7.045   2.173  -1.234  0.00  0.00    +0.290 C 
BRANCH  13  14
ATOM     14  C   LIG    1        8.154   3.168  -0.885  0.00  0.00    +0.260 C 
BRANCH  14  15
ATOM     15  N   LIG    1        9.382   2.805  -1.605  0.00  0.00    -0.630 N 
ATOM     16  H   LIG    1        9.209   2.829  -2.598  0.00  0.00    +0.440 HD
ATOM     17  H   LIG    1        9.668   1.876  -1.335  0.00  0.00    +0.440 HD
ATOM     18  H   LIG    1       10.113   3.462  -1.375  0.00  0.00    +0.450 HD
ENDBRANCH  14  15
ENDBRANCH  13  14
ENDBRANCH   7  13
ENDBRANCH   1  10
BRANCH   4  19
ATOM     19  O   LIG    1       -0.855  -1.167  -0.268  0.00  0.00    -0.230 OA
BRANCH  19  20
ATOM     20  C   LIG    1       -1.637  -1.096  -1.372  0.00  0.00    +0.490 A 
ATOM     21  N   LIG    1       -1.375  -0.179  -2.290  0.00  0.00    -0.560 NA
ATOM     22  C   LIG    1       -2.115  -0.086  -3.383  0.00  0.00    +0.360 A 
ATOM     23  C   LIG    1       -3.182  -0.956  -3.553  0.00  0.00    -0.100 A 
ATOM     24  C   LIG    1       -3.430  -1.899  -2.569  0.00  0.00    +0.370 A 
ATOM     25  N   LIG    1       -2.647  -1.941  -1.504  0.00  0.00    -0.520 NA
ENDBRANCH  19  20
ENDBRANCH   4  19
TORSDOF 6
