REMARK  Name = ZINCtj00000031Zv.1
REMARK                            x       y       z     vdW  Elec       q    Type
REMARK                         _______ _______ _______ _____ _____    ______ ____
ROOT
ATOM      1  C   LIG    1       -0.005   1.030  -0.302  0.00  0.00    +0.500 C 
ATOM      2  N   LIG    1       -1.104   1.624  -0.809  0.00  0.00    -0.650 N 
ATOM      3  H   LIG    1       -1.050   2.527  -1.158  0.00  0.00    +0.420 HD
ATOM      4  O   LIG    1       -0.048  -0.131   0.045  0.00  0.00    -0.500 OA
ENDROOT
BRANCH   2   5
ATOM      5  C   LIG    1       -2.322   0.936  -0.832  0.00  0.00    +0.180 A 
ATOM      6  C   LIG    1       -3.228   1.160  -1.861  0.00  0.00    -0.010 A 
ATOM      7  C   LIG    1       -4.428   0.476  -1.884  0.00  0.00    +0.150 A 
ATOM      8  C   LIG    1       -4.732  -0.422  -0.877  0.00  0.00    -0.680 A 
ATOM      9  C   LIG    1       -3.835  -0.643   0.152  0.00  0.00    +0.150 A 
ATOM     10  C   LIG    1       -2.631   0.034   0.177  0.00  0.00    +0.000 A 
BRANCH   8  11
ATOM     11  S   LIG    1       -6.267  -1.288  -0.906  0.00  0.00    +2.690 S 
ATOM     12  O   LIG    1       -6.076  -2.469  -0.139  0.00  0.00    -0.950 OA
ATOM     13  O   LIG    1       -6.694  -1.302  -2.261  0.00  0.00    -0.950 OA
BRANCH  11  14
ATOM     14  N   LIG    1       -7.365  -0.365  -0.079  0.00  0.00    -0.990 NA
ATOM     15  C   LIG    1       -7.554  -0.543   1.367  0.00  0.00    +0.290 C 
ATOM     16  C   LIG    1       -7.387   0.822   2.053  0.00  0.00    +0.010 C 
ATOM     17  C   LIG    1       -8.347   1.828   1.413  0.00  0.00    +0.020 C 
ATOM     18  C   LIG    1       -8.005   1.989  -0.070  0.00  0.00    +0.010 C 
ATOM     19  C   LIG    1       -8.175   0.642  -0.778  0.00  0.00    +0.290 C 
ENDBRANCH  11  14
ENDBRANCH   8  11
ENDBRANCH   2   5
BRANCH   1  21
ATOM     20  C   LIG    1        1.304   2.531   1.175  0.00  0.00    +0.120 C 
ATOM     21  C   LIG    1        1.280   1.808  -0.173  0.00  0.00    +0.170 C 
BRANCH  21  22
ATOM     22  N   LIG    1        2.420   0.886  -0.254  0.00  0.00    -0.370 N 
ATOM     23  C   LIG    1        2.406   0.206  -1.555  0.00  0.00    +0.260 C 
ATOM     24  C   LIG    1        3.544  -0.815  -1.613  0.00  0.00    +0.080 C 
ATOM     25  C   LIG    1        4.881  -0.091  -1.430  0.00  0.00    +0.000 C 
ATOM     26  C   LIG    1        4.857   0.676  -0.105  0.00  0.00    +0.090 C 
ATOM     27  C   LIG    1        3.670   1.641  -0.102  0.00  0.00    +0.260 C 
ATOM     28  H   LIG    1        2.351   0.201   0.483  0.00  0.00    +0.430 HD
BRANCH  25  29
ATOM     29  C   LIG    1        6.001  -1.099  -1.409  0.00  0.00    +0.520 C 
ATOM     30  O   LIG    1        6.712  -1.195  -0.431  0.00  0.00    -0.530 OA
ATOM     31  N   LIG    1        6.214  -1.893  -2.477  0.00  0.00    -0.850 N 
ATOM     32  H   LIG    1        6.935  -2.542  -2.463  0.00  0.00    +0.410 HD
ATOM     33  H   LIG    1        5.645  -1.816  -3.259  0.00  0.00    +0.400 HD
ENDBRANCH  25  29
ENDBRANCH  21  22
ENDBRANCH   1  21
TORSDOF 6
