REMARK  Name = ZINCnE000005ure6.0
REMARK                            x       y       z     vdW  Elec       q    Type
REMARK                         _______ _______ _______ _____ _____    ______ ____
ROOT
ATOM      1  O   LIG    1        0.002  -0.004   0.002  0.00  0.00    -0.980 OA
ATOM      2  S   LIG    1       -0.017   1.417   0.010  0.00  0.00    +2.710 S 
ATOM      3  O   LIG    1        1.162   2.210   0.003  0.00  0.00    -0.940 OA
ENDROOT
BRANCH   2   4
ATOM      4  C   LIG    1       -0.957   1.909  -1.397  0.00  0.00    -0.820 A 
ATOM      5  C   LIG    1       -0.770   3.166  -1.951  0.00  0.00    +0.360 A 
ATOM      6  C   LIG    1       -1.512   3.552  -3.059  0.00  0.00    -0.150 A 
ATOM      7  C   LIG    1       -2.435   2.684  -3.610  0.00  0.00    +0.100 A 
ATOM      8  C   LIG    1       -2.623   1.431  -3.060  0.00  0.00    -0.220 A 
ATOM      9  O   LIG    1        0.138   4.020  -1.410  0.00  0.00    -0.660 OA
ATOM     10  C   LIG    1       -1.880   1.038  -1.955  0.00  0.00    +0.230 A 
BRANCH  10  11
ATOM     11  O   LIG    1       -2.061  -0.197  -1.418  0.00  0.00    -0.300 OA
BRANCH  11  12
ATOM     12  C   LIG    1       -3.028  -1.042  -2.045  0.00  0.00    +0.600 C 
ATOM     13  F   LIG    1       -4.283  -0.425  -2.001  0.00  0.00    -0.170 F 
ATOM     14  F   LIG    1       -3.086  -2.265  -1.369  0.00  0.00    -0.140 F 
ATOM     15  F   LIG    1       -2.662  -1.261  -3.377  0.00  0.00    -0.170 F 
ENDBRANCH  11  12
ENDBRANCH  10  11
ENDBRANCH   2   4
BRANCH   2  16
ATOM     16  N   LIG    1       -0.875   1.865   1.354  0.00  0.00    -1.120 NA
ATOM     17  H   LIG    1       -0.517   2.538   1.955  0.00  0.00    +0.410 HD
BRANCH  16  18
ATOM     18  C   LIG    1       -2.173   1.247   1.634  0.00  0.00    +0.340 C 
BRANCH  18  19
ATOM     19  C   LIG    1       -2.569   1.536   3.059  0.00  0.00    -0.090 A 
ATOM     20  C   LIG    1       -2.013   0.911   4.100  0.00  0.00    -0.130 A 
ATOM     21  S   LIG    1       -2.723   1.510   5.594  0.00  0.00    +0.140 S 
ATOM     22  C   LIG    1       -3.772   2.598   4.696  0.00  0.00    -0.040 A 
ATOM     23 CL   LIG    1       -0.777  -0.303   3.995  0.00  0.00    -0.000 Cl
ATOM     24  C   LIG    1       -3.542   2.465   3.389  0.00  0.00    +0.040 A 
ENDBRANCH  18  19
ENDBRANCH  16  18
ENDBRANCH   2  16
TORSDOF 6
