REMARK  Name = ZINCpe00000gNbwl.0
REMARK                            x       y       z     vdW  Elec       q    Type
REMARK                         _______ _______ _______ _____ _____    ______ ____
ROOT
ATOM      1  C   LIG    1        6.441   0.694   3.574  0.00  0.00    +0.520 C 
ATOM      2  N   LIG    1        7.734   1.024   3.763  0.00  0.00    -0.620 N 
ATOM      3  C   LIG    1        8.412   1.969   2.862  0.00  0.00    +0.300 C 
ATOM      4  C   LIG    1        9.084   3.054   3.719  0.00  0.00    +0.190 C 
ATOM      5  N   LIG    1        9.954   2.415   4.715  0.00  0.00    -0.480 N 
ATOM      6  C   LIG    1        9.177   1.585   5.646  0.00  0.00    +0.210 C 
ATOM      7  C   LIG    1        8.507   0.445   4.873  0.00  0.00    +0.290 C 
ATOM      8  O   LIG    1        5.900  -0.091   4.323  0.00  0.00    -0.530 OA
ENDROOT
BRANCH   5   9
ATOM      9  C   LIG    1       10.706   3.361   5.400  0.00  0.00    +0.310 A 
ATOM     10  C   LIG    1       11.512   4.246   4.691  0.00  0.00    -0.050 A 
ATOM     11  C   LIG    1       12.256   5.183   5.386  0.00  0.00    +0.090 A 
ATOM     12  C   LIG    1       12.168   5.205   6.771  0.00  0.00    -0.060 A 
ATOM     13  C   LIG    1       11.347   4.297   7.410  0.00  0.00    +0.290 A 
ATOM     14  N   LIG    1       10.645   3.417   6.722  0.00  0.00    -0.520 NA
ENDBRANCH   5   9
BRANCH   1  15
ATOM     15  C   LIG    1        5.669   1.299   2.430  0.00  0.00    +0.050 C 
BRANCH  15  16
ATOM     16  C   LIG    1        4.237   0.761   2.441  0.00  0.00    +0.290 C 
BRANCH  16  19
ATOM     17  O   LIG    1        1.651   0.234   1.890  0.00  0.00    -0.520 OA
ATOM     18  C   LIG    1        2.192   1.019   1.141  0.00  0.00    +0.510 C 
ATOM     19  N   LIG    1        3.485   1.349   1.330  0.00  0.00    -0.740 N 
ATOM     20  H   LIG    1        3.918   1.977   0.730  0.00  0.00    +0.400 HD
BRANCH  18  21
ATOM     21  C   LIG    1        1.419   1.624  -0.003  0.00  0.00    +0.050 C 
BRANCH  21  22
ATOM     22  C   LIG    1       -0.013   1.086   0.008  0.00  0.00    +0.180 C 
ATOM     23  C   LIG    1       -0.777   1.606  -1.228  0.00  0.00    +0.010 C 
ATOM     24  C   LIG    1       -2.188   1.898  -0.642  0.00  0.00    +0.000 C 
ATOM     25  C   LIG    1       -1.821   2.368   0.788  0.00  0.00    +0.190 C 
ATOM     26  O   LIG    1       -0.700   1.556   1.173  0.00  0.00    -0.360 OA
ENDBRANCH  21  22
ENDBRANCH  18  21
ENDBRANCH  16  19
ENDBRANCH  15  16
ENDBRANCH   1  15
TORSDOF 6
