REMARK  Name = ZINCqH0000034oFx.0
REMARK                            x       y       z     vdW  Elec       q    Type
REMARK                         _______ _______ _______ _____ _____    ______ ____
ROOT
ATOM      1  C   LIG    1        1.471  -3.151   0.793  0.00  0.00    +0.600 C 
ATOM      2  N   LIG    1        2.629  -2.936   1.448  0.00  0.00    -0.650 N 
ATOM      3  H   LIG    1        2.962  -2.031   1.561  0.00  0.00    +0.430 HD
ATOM      4  O   LIG    1        1.101  -4.287   0.569  0.00  0.00    -0.450 OA
ENDROOT
BRANCH   2   5
ATOM      5  C   LIG    1        3.347  -4.009   1.960  0.00  0.00    +0.410 A 
ATOM      6  C   LIG    1        4.492  -3.793   2.731  0.00  0.00    -0.120 A 
ATOM      7  C   LIG    1        5.175  -4.891   3.220  0.00  0.00    +0.200 A 
ATOM      8  N   LIG    1        4.728  -6.106   2.946  0.00  0.00    -0.530 NA
ATOM      9  C   LIG    1        3.638  -6.282   2.212  0.00  0.00    +0.400 A 
ATOM     10  C   LIG    1        6.415  -4.706   4.056  0.00  0.00    +0.150 C 
ATOM     11  N   LIG    1        2.952  -5.256   1.729  0.00  0.00    -0.510 NA
BRANCH   9  12
ATOM     12  C   LIG    1        3.171  -7.661   1.929  0.00  0.00    -0.050 A 
ATOM     13  C   LIG    1        3.878  -8.755   2.427  0.00  0.00    +0.070 A 
ATOM     14  C   LIG    1        3.436 -10.036   2.164  0.00  0.00    -0.010 A 
ATOM     15  C   LIG    1        2.301 -10.236   1.400  0.00  0.00    +0.020 A 
ATOM     16  C   LIG    1        1.599  -9.154   0.899  0.00  0.00    +0.000 A 
ATOM     17  C   LIG    1        2.028  -7.869   1.159  0.00  0.00    +0.080 A 
ENDBRANCH   9  12
ENDBRANCH   2   5
BRANCH   1  20
ATOM     18  N   LIG    1       -0.000  -0.004   0.007  0.00  0.00    -0.270 N 
ATOM     19  N   LIG    1        0.931  -0.729   0.515  0.00  0.00    -0.260 NA
ATOM     20  C   LIG    1        0.652  -2.006   0.346  0.00  0.00    -0.020 A 
ATOM     21  C   LIG    1       -0.579  -2.072  -0.348  0.00  0.00    -0.010 A 
ATOM     22  C   LIG    1       -0.955  -0.786  -0.542  0.00  0.00    +0.050 A 
BRANCH  22  23
ATOM     23  C   LIG    1       -2.205  -0.315  -1.240  0.00  0.00    +0.020 C 
ATOM     24  C   LIG    1       -3.461  -1.176  -1.097  0.00  0.00    +0.040 C 
ATOM     25  C   LIG    1       -2.705  -1.141  -2.426  0.00  0.00    +0.040 C 
ENDBRANCH  22  23
BRANCH  18  27
ATOM     26  C   LIG    1       -0.735   1.953   1.276  0.00  0.00    +0.050 C 
ATOM     27  C   LIG    1       -0.021   1.461   0.016  0.00  0.00    +0.320 C 
ENDBRANCH  18  27
ENDBRANCH   1  20
TORSDOF 5
