REMARK  Name = ZINCqH0000006MwM.0
REMARK                            x       y       z     vdW  Elec       q    Type
REMARK                         _______ _______ _______ _____ _____    ______ ____
ROOT
ATOM      1  N   LIG    1        0.962   3.546  -0.346  0.00  0.00    -0.510 NA
ATOM      2  C   LIG    1        0.285   3.780  -1.629  0.00  0.00    +0.200 C 
ENDROOT
BRANCH   1   3
ATOM      3  C   LIG    1        1.260   2.119  -0.161  0.00  0.00    +0.180 C 
ATOM      4  C   LIG    1        2.150   1.632  -1.306  0.00  0.00    +0.020 C 
BRANCH   3   5
ATOM      5  C   LIG    1       -0.026   1.334  -0.155  0.00  0.00    +0.520 C 
ATOM      6  N   LIG    1        0.002  -0.004   0.002  0.00  0.00    -0.680 N 
ATOM      7  H   LIG    1        0.852  -0.470   0.037  0.00  0.00    +0.410 HD
ATOM      8  O   LIG    1       -1.086   1.906  -0.297  0.00  0.00    -0.500 OA
BRANCH   6   9
ATOM      9  C   LIG    1       -1.194  -0.721   0.115  0.00  0.00    +0.150 A 
ATOM     10  C   LIG    1       -2.293  -0.146   0.740  0.00  0.00    +0.010 A 
ATOM     11  C   LIG    1       -3.474  -0.854   0.846  0.00  0.00    +0.030 A 
ATOM     12  C   LIG    1       -3.560  -2.138   0.340  0.00  0.00    -0.020 A 
ATOM     13  C   LIG    1       -2.466  -2.715  -0.278  0.00  0.00    +0.030 A 
ATOM     14  C   LIG    1       -1.284  -2.010  -0.392  0.00  0.00    -0.030 A 
ENDBRANCH   6   9
ENDBRANCH   3   5
ENDBRANCH   1   3
BRANCH   1  15
ATOM     15  C   LIG    1        2.182   4.357  -0.239  0.00  0.00    +0.230 C 
BRANCH  15  18
ATOM     16  C   LIG    1        1.369   7.886  -1.314  0.00  0.00    +0.120 A 
ATOM     17  C   LIG    1        1.714   6.545  -1.359  0.00  0.00    -0.030 A 
ATOM     18  C   LIG    1        1.812   5.817  -0.187  0.00  0.00    -0.060 A 
ATOM     19  C   LIG    1        1.577   6.426   1.031  0.00  0.00    +0.040 A 
ATOM     20  C   LIG    1        1.237   7.766   1.083  0.00  0.00    -0.010 A 
ATOM     21  C   LIG    1        1.131   8.500  -0.087  0.00  0.00    +0.080 A 
BRANCH  16  23
ATOM     22  C   LIG    1        1.524   7.907  -3.687  0.00  0.00    +0.250 C 
ATOM     23  O   LIG    1        1.266   8.603  -2.465  0.00  0.00    -0.310 OA
ENDBRANCH  16  23
BRANCH  21  24
ATOM     24  O   LIG    1        0.797   9.817  -0.037  0.00  0.00    -0.310 OA
BRANCH  24  25
ATOM     25  C   LIG    1        0.568  10.380   1.256  0.00  0.00    +0.590 C 
ATOM     26  F   LIG    1        1.726  10.257   2.030  0.00  0.00    -0.200 F 
ATOM     27  F   LIG    1       -0.484   9.701   1.880  0.00  0.00    -0.200 F 
ENDBRANCH  24  25
ENDBRANCH  21  24
ENDBRANCH  15  18
ENDBRANCH   1  15
TORSDOF 8
