REMARK  Name = ZINCqH0000008nOn.0
REMARK                            x       y       z     vdW  Elec       q    Type
REMARK                         _______ _______ _______ _____ _____    ______ ____
ROOT
ATOM      1  N   LIG    1       -1.191   1.870   0.018  0.00  0.00    -0.740 N 
ATOM      2  H   LIG    1       -1.204   2.840   0.023  0.00  0.00    +0.400 HD
ATOM      3  C   LIG    1       -0.014   1.212   0.009  0.00  0.00    +0.710 C 
ATOM      4  N   LIG    1        1.143   1.901   0.001  0.00  0.00    -0.740 N 
ATOM      5  H   LIG    1        1.130   2.871   0.007  0.00  0.00    +0.400 HD
ATOM      6  O   LIG    1        0.002  -0.004   0.002  0.00  0.00    -0.590 OA
ENDROOT
BRANCH   1   8
ATOM      7  C   LIG    1       -2.830   0.759  -1.417  0.00  0.00    +0.040 C 
ATOM      8  C   LIG    1       -2.449   1.120   0.020  0.00  0.00    +0.300 C 
BRANCH   8   9
ATOM      9  C   LIG    1       -3.537   1.966   0.630  0.00  0.00    -0.090 A 
ATOM     10  C   LIG    1       -3.606   3.317   0.346  0.00  0.00    +0.000 A 
ATOM     11  C   LIG    1       -4.603   4.085   0.911  0.00  0.00    +0.000 A 
ATOM     12  C   LIG    1       -5.539   3.513   1.763  0.00  0.00    -0.070 A 
ATOM     13  C   LIG    1       -6.591   4.413   2.355  0.00  0.00    +0.070 C 
ATOM     14  C   LIG    1       -7.759   3.590   2.896  0.00  0.00    +0.020 C 
ATOM     15  C   LIG    1       -7.198   2.496   3.811  0.00  0.00    +0.020 C 
ATOM     16  C   LIG    1       -6.459   1.476   2.947  0.00  0.00    +0.080 C 
ATOM     17  C   LIG    1       -5.473   2.166   2.041  0.00  0.00    -0.070 A 
ATOM     18  C   LIG    1       -4.471   1.393   1.469  0.00  0.00    +0.010 A 
ENDBRANCH   8   9
ENDBRANCH   1   8
BRANCH   4  19
ATOM     19  C   LIG    1        2.422   1.186  -0.015  0.00  0.00    +0.260 C 
BRANCH  19  20
ATOM     20  C   LIG    1        3.571   2.196  -0.020  0.00  0.00    +0.260 C 
BRANCH  20  21
ATOM     21  C   LIG    1        4.886   1.460  -0.037  0.00  0.00    -0.150 A 
ATOM     22  C   LIG    1        5.526   1.216  -1.237  0.00  0.00    +0.050 A 
ATOM     23  C   LIG    1        6.736   0.546  -1.252  0.00  0.00    +0.000 A 
ATOM     24  C   LIG    1        7.301   0.110  -0.068  0.00  0.00    +0.050 A 
ATOM     25  C   LIG    1        6.660   0.349   1.133  0.00  0.00    -0.010 A 
ATOM     26  C   LIG    1        5.451   1.025   1.150  0.00  0.00    +0.110 A 
ATOM     27  F   LIG    1        4.824   1.258   2.323  0.00  0.00    -0.130 F 
ENDBRANCH  20  21
BRANCH  20  28
ATOM     28  O   LIG    1        3.473   3.023  -1.182  0.00  0.00    -0.550 OA
ATOM     29  H   LIG    1        3.517   2.536  -2.016  0.00  0.00    +0.380 HD
ENDBRANCH  20  28
ENDBRANCH  19  20
ENDBRANCH   4  19
TORSDOF 6
