REMARK  Name = ZINCkj000018RCuR.0
REMARK                            x       y       z     vdW  Elec       q    Type
REMARK                         _______ _______ _______ _____ _____    ______ ____
ROOT
ATOM      1  C   LIG    1        3.115   5.815  -0.747  0.00  0.00    +0.190 C 
ATOM      2  C   LIG    1        2.282   4.593  -1.188  0.00  0.00    +0.230 C 
ATOM      3  N   LIG    1        2.094   3.801   0.055  0.00  0.00    -0.450 N 
ATOM      4  C   LIG    1        1.860   4.822   1.108  0.00  0.00    +0.230 C 
ATOM      5  C   LIG    1        2.838   5.966   0.763  0.00  0.00    +0.300 C 
ENDROOT
BRANCH   3   6
ATOM      6  C   LIG    1        1.002   2.944  -0.060  0.00  0.00    +0.110 A 
ATOM      7  C   LIG    1       -0.278   3.445  -0.296  0.00  0.00    -0.060 A 
ATOM      8  C   LIG    1       -1.333   2.563  -0.403  0.00  0.00    +0.290 A 
ATOM      9  N   LIG    1       -1.143   1.262  -0.291  0.00  0.00    -0.450 NA
ATOM     10  C   LIG    1        0.052   0.749  -0.062  0.00  0.00    +0.310 A 
ATOM     11  C   LIG    1        1.160   1.562   0.058  0.00  0.00    -0.060 A 
ATOM     12 CL   LIG    1        2.728   0.877   0.351  0.00  0.00    -0.020 Cl
ENDBRANCH   3   6
BRANCH   5  13
ATOM     13  N   LIG    1        2.221   7.266   1.040  0.00  0.00    -0.330 N 
ATOM     14  C   LIG    1        0.912   7.572   0.885  0.00  0.00    +0.110 A 
ATOM     15  C   LIG    1        0.781   8.867   1.254  0.00  0.00    +0.200 A 
ATOM     16  N   LIG    1        2.002   9.288   1.605  0.00  0.00    -0.240 NA
ATOM     17  N   LIG    1        2.833   8.315   1.467  0.00  0.00    -0.060 NA
ENDBRANCH   5  13
BRANCH   1  19
ATOM     18  C   LIG    1        3.609   8.121  -1.191  0.00  0.00    +0.320 C 
ATOM     19  N   LIG    1        2.679   7.018  -1.468  0.00  0.00    -0.390 N 
ATOM     20  C   LIG    1        2.661   6.744  -2.912  0.00  0.00    +0.330 C 
ATOM     21  H   LIG    1        1.752   7.275  -1.164  0.00  0.00    +0.420 HD
ENDBRANCH   1  19
TORSDOF 3
