REMARK  Name = ZINCrH000004vE5U.0
REMARK                            x       y       z     vdW  Elec       q    Type
REMARK                         _______ _______ _______ _____ _____    ______ ____
ROOT
ATOM      1  O   LIG    1        0.122   3.604  -2.811  0.00  0.00    -0.530 OA
ATOM      2  C   LIG    1       -0.536   3.958  -1.852  0.00  0.00    +0.610 C 
ATOM      3  N   LIG    1       -0.885   3.063  -0.907  0.00  0.00    -0.600 N 
ATOM      4  C   LIG    1       -0.601   1.631  -1.080  0.00  0.00    +0.310 C 
ATOM      5  C   LIG    1        0.393   1.183  -0.002  0.00  0.00    +0.110 C 
ATOM      6  C   LIG    1       -0.045   1.736   1.333  0.00  0.00    +0.080 A 
ATOM      7  C   LIG    1       -0.914   2.762   1.479  0.00  0.00    -0.190 A 
ATOM      8  C   LIG    1       -1.071   2.991   2.900  0.00  0.00    -0.090 A 
ATOM      9  C   LIG    1       -1.828   3.908   3.635  0.00  0.00    +0.060 A 
ATOM     10  C   LIG    1       -1.733   3.835   5.004  0.00  0.00    -0.030 A 
ATOM     11  C   LIG    1       -0.929   2.901   5.637  0.00  0.00    +0.020 A 
ATOM     12  C   LIG    1       -0.170   1.982   4.933  0.00  0.00    +0.000 A 
ATOM     13  C   LIG    1       -0.246   2.032   3.543  0.00  0.00    +0.100 A 
ATOM     14  N   LIG    1        0.355   1.292   2.566  0.00  0.00    -0.580 N 
ATOM     15  H   LIG    1        0.974   0.562   2.721  0.00  0.00    +0.420 HD
ATOM     16  C   LIG    1       -1.564   3.492   0.329  0.00  0.00    +0.380 C 
ENDROOT
BRANCH   2  17
ATOM     17  C   LIG    1       -0.952   5.367  -1.722  0.00  0.00    -0.090 A 
ATOM     18  C   LIG    1       -0.558   6.394  -2.533  0.00  0.00    +0.310 A 
ATOM     19  N   LIG    1       -1.164   7.510  -2.073  0.00  0.00    -0.310 N 
ATOM     20  N   LIG    1       -1.933   7.125  -0.965  0.00  0.00    -0.050 NA
ATOM     21  N   LIG    1       -1.788   5.857  -0.791  0.00  0.00    -0.190 NA
BRANCH  19  22
ATOM     22  C   LIG    1       -1.048   8.804  -2.601  0.00  0.00    +0.150 A 
ATOM     23  C   LIG    1       -0.239   9.033  -3.706  0.00  0.00    +0.030 A 
ATOM     24  C   LIG    1       -0.130  10.307  -4.228  0.00  0.00    +0.080 A 
ATOM     25  C   LIG    1       -0.817  11.357  -3.643  0.00  0.00    -0.090 A 
ATOM     26  C   LIG    1       -1.619  11.131  -2.538  0.00  0.00    +0.080 A 
ATOM     27 BR   LIG    1       -0.659  13.101  -4.355  0.00  0.00    -0.030 Br
ATOM     28  C   LIG    1       -1.736   9.858  -2.017  0.00  0.00    +0.050 A 
ENDBRANCH  19  22
ENDBRANCH   2  17
TORSDOF 2
