REMARK  Name = ZINCpk000000nu53.0
REMARK                            x       y       z     vdW  Elec       q    Type
REMARK                         _______ _______ _______ _____ _____    ______ ____
ROOT
ATOM      1  N   LIG    1       -0.352   4.208   0.550  0.00  0.00    -0.750 N 
ATOM      2  H   LIG    1       -0.453   5.159   0.709  0.00  0.00    +0.390 HD
ATOM      3  C   LIG    1       -0.843   3.320   1.438  0.00  0.00    +0.710 C 
ATOM      4  N   LIG    1       -1.384   3.753   2.594  0.00  0.00    -0.630 N 
ATOM      5  C   LIG    1       -1.833   2.799   3.620  0.00  0.00    +0.320 C 
ATOM      6  C   LIG    1       -1.206   3.207   4.963  0.00  0.00    +0.180 C 
ATOM      7  N   LIG    1       -1.526   4.614   5.240  0.00  0.00    -0.510 NA
ATOM      8  C   LIG    1       -0.937   5.503   4.231  0.00  0.00    +0.170 C 
ATOM      9  C   LIG    1       -1.547   5.190   2.860  0.00  0.00    +0.280 C 
ATOM     10  O   LIG    1       -0.799   2.130   1.195  0.00  0.00    -0.590 OA
ENDROOT
BRANCH   1  11
ATOM     11  C   LIG    1        0.336   3.735  -0.654  0.00  0.00    +0.270 C 
BRANCH  11  13
ATOM     12  C   LIG    1        1.617   4.448  -2.677  0.00  0.00    +0.030 C 
ATOM     13  C   LIG    1        0.792   4.936  -1.485  0.00  0.00    -0.030 C 
ATOM     14  C   LIG    1       -0.433   5.701  -1.992  0.00  0.00    +0.020 C 
ENDBRANCH  11  13
ENDBRANCH   1  11
BRANCH   7  15
ATOM     15  C   LIG    1       -1.097   4.995   6.593  0.00  0.00    +0.280 C 
BRANCH  15  16
ATOM     16  C   LIG    1       -1.903   4.229   7.610  0.00  0.00    +0.440 A 
ATOM     17  N   LIG    1       -2.806   3.392   7.180  0.00  0.00    -0.570 NA
ATOM     18  C   LIG    1       -3.565   2.671   8.027  0.00  0.00    +0.530 A 
ATOM     19  C   LIG    1       -3.350   2.850   9.474  0.00  0.00    -0.210 A 
ATOM     20  C   LIG    1       -4.088   2.148  10.424  0.00  0.00    +0.110 A 
ATOM     21  C   LIG    1       -3.841   2.358  11.764  0.00  0.00    -0.010 A 
ATOM     22  C   LIG    1       -2.867   3.260  12.168  0.00  0.00    +0.080 A 
ATOM     23  C   LIG    1       -2.130   3.963  11.238  0.00  0.00    -0.020 A 
ATOM     24  C   LIG    1       -2.363   3.766   9.884  0.00  0.00    +0.180 A 
ATOM     25  O   LIG    1       -4.406   1.894   7.609  0.00  0.00    -0.480 OA
ATOM     26  N   LIG    1       -1.649   4.439   8.913  0.00  0.00    -0.630 N 
ATOM     27  H   LIG    1       -0.961   5.072   9.174  0.00  0.00    +0.420 HD
ENDBRANCH  15  16
ENDBRANCH   7  15
TORSDOF 4
