REMARK  Name = ZINCpk00000y6u65.0
REMARK                            x       y       z     vdW  Elec       q    Type
REMARK                         _______ _______ _______ _____ _____    ______ ____
ROOT
ATOM      1  C   LIG    1        1.203   3.931  -1.242  0.00  0.00    +0.010 C 
ATOM      2  C   LIG    1        0.306   5.056  -0.682  0.00  0.00    +0.280 C 
ATOM      3  N   LIG    1        0.823   5.299   0.685  0.00  0.00    -0.620 N 
ATOM      4  C   LIG    1        1.135   3.947   1.205  0.00  0.00    +0.260 C 
ATOM      5  C   LIG    1        0.974   6.482   1.313  0.00  0.00    +0.540 C 
ATOM      6  O   LIG    1        0.670   7.512   0.749  0.00  0.00    -0.510 OA
ATOM      7  C   LIG    1        1.749   3.200   0.002  0.00  0.00    +0.080 C 
ENDROOT
BRANCH   7   8
ATOM      8  C   LIG    1        1.307   1.759  -0.001  0.00  0.00    -0.230 A 
ATOM      9  C   LIG    1        2.119   0.677  -0.015  0.00  0.00    +0.240 A 
ATOM     10  N   LIG    1        1.339  -0.424  -0.013  0.00  0.00    -0.370 N 
ATOM     11  N   LIG    1        0.002  -0.004   0.002  0.00  0.00    -0.290 NA
ATOM     12  C   LIG    1        1.806  -1.812  -0.025  0.00  0.00    +0.360 C 
ATOM     13  C   LIG    1       -0.016   1.304   0.009  0.00  0.00    +0.240 A 
ENDBRANCH   7   8
BRANCH   1  14
ATOM     14  C   LIG    1        2.353   4.524  -2.059  0.00  0.00    +0.170 C 
BRANCH  14  15
ATOM     15  O   LIG    1        1.838   5.094  -3.264  0.00  0.00    -0.390 OA
BRANCH  15  17
ATOM     16  C   LIG    1        2.174   6.254  -5.357  0.00  0.00    +0.040 C 
ATOM     17  C   LIG    1        2.835   5.678  -4.103  0.00  0.00    +0.160 C 
ENDBRANCH  15  17
ENDBRANCH  14  15
ENDBRANCH   1  14
BRANCH   5  18
ATOM     18  C   LIG    1        1.520   6.525   2.717  0.00  0.00    +0.240 C 
BRANCH  18  19
ATOM     19  O   LIG    1        1.585   7.881   3.162  0.00  0.00    -0.280 OA
BRANCH  19  20
ATOM     20  C   LIG    1        2.060   8.097   4.417  0.00  0.00    +0.080 A 
ATOM     21  C   LIG    1        2.159   9.390   4.921  0.00  0.00    +0.050 A 
ATOM     22  C   LIG    1        2.643   9.560   6.208  0.00  0.00    +0.020 A 
ATOM     23  C   LIG    1        3.020   8.449   6.939  0.00  0.00    +0.220 A 
ATOM     24  N   LIG    1        2.918   7.237   6.430  0.00  0.00    -0.450 NA
ATOM     25  C   LIG    1        2.457   7.032   5.212  0.00  0.00    +0.180 A 
ENDBRANCH  19  20
ENDBRANCH  18  19
ENDBRANCH   5  18
TORSDOF 7
