REMARK  Name = ZINCpe00000Rbl8j.0
REMARK                            x       y       z     vdW  Elec       q    Type
REMARK                         _______ _______ _______ _____ _____    ______ ____
ROOT
ATOM      1  O   LIG    1        0.949   2.211   0.048  0.00  0.00    -0.510 OA
ATOM      2  C   LIG    1       -0.018   1.476   0.010  0.00  0.00    +0.560 C 
ATOM      3  N   LIG    1       -1.261   1.996   0.004  0.00  0.00    -0.590 N 
ATOM      4  C   LIG    1       -2.439   1.122   0.076  0.00  0.00    +0.270 C 
ATOM      5  C   LIG    1       -3.325   1.590   1.240  0.00  0.00    +0.030 C 
ATOM      6  C   LIG    1       -3.654   3.074   1.059  0.00  0.00    +0.060 C 
ATOM      7  C   LIG    1       -2.361   3.891   1.079  0.00  0.00    +0.110 C 
ATOM      8  C   LIG    1       -1.464   3.449  -0.082  0.00  0.00    +0.270 C 
ENDROOT
BRANCH   2   9
ATOM      9  C   LIG    1        0.170   0.008  -0.035  0.00  0.00    -0.040 A 
ATOM     10  C   LIG    1       -0.421  -0.762  -1.027  0.00  0.00    +0.000 A 
ATOM     11  C   LIG    1       -0.223  -2.142  -1.040  0.00  0.00    +0.320 A 
ATOM     12  N   LIG    1        0.510  -2.745  -0.136  0.00  0.00    -0.460 NA
ATOM     13  C   LIG    1        1.107  -2.067   0.845  0.00  0.00    +0.160 A 
ATOM     14  C   LIG    1        1.895  -2.709   1.819  0.00  0.00    +0.010 A 
ATOM     15  C   LIG    1        2.491  -1.952   2.783  0.00  0.00    +0.270 A 
ATOM     16  N   LIG    1        2.334  -0.637   2.838  0.00  0.00    -0.480 NA
ATOM     17  C   LIG    1        1.608   0.026   1.968  0.00  0.00    +0.340 A 
ATOM     18  C   LIG    1        0.964  -0.659   0.930  0.00  0.00    -0.140 A 
ENDBRANCH   2   9
BRANCH   7  19
ATOM     19  O   LIG    1       -1.679   3.676   2.316  0.00  0.00    -0.540 OA
ATOM     20  H   LIG    1       -0.848   4.162   2.397  0.00  0.00    +0.390 HD
ENDBRANCH   7  19
BRANCH   7  21
ATOM     21  C   LIG    1       -2.693   5.377   0.930  0.00  0.00    +0.330 C 
BRANCH  21  22
ATOM     22  N   LIG    1       -1.451   6.147   0.826  0.00  0.00    -0.300 N 
ATOM     23  C   LIG    1       -1.130   7.002  -0.173  0.00  0.00    +0.140 A 
ATOM     24  C   LIG    1        0.096   7.490   0.128  0.00  0.00    +0.140 A 
ATOM     25  N   LIG    1        0.460   6.917   1.281  0.00  0.00    -0.260 NA
ATOM     26  N   LIG    1       -0.481   6.132   1.671  0.00  0.00    -0.090 NA
ENDBRANCH  21  22
ENDBRANCH   7  21
TORSDOF 4
