REMARK  Name = ZINCrH000004oIMV.0
REMARK                            x       y       z     vdW  Elec       q    Type
REMARK                         _______ _______ _______ _____ _____    ______ ____
ROOT
ATOM      1  C   LIG    1       -0.449  -6.247   5.368  0.00  0.00    +0.070 C 
ATOM      2  C   LIG    1       -0.117  -5.872   3.923  0.00  0.00    -0.040 C 
ATOM      3  C   LIG    1       -1.338  -5.249   3.284  0.00  0.00    +0.250 C 
ATOM      4  N   LIG    1       -1.051  -4.581   2.046  0.00  0.00    -0.510 N 
ATOM      5  C   LIG    1       -0.901  -5.356   0.906  0.00  0.00    +0.070 A 
ATOM      6  C   LIG    1       -1.411  -4.784  -0.268  0.00  0.00    +0.060 A 
ATOM      7  C   LIG    1       -1.344  -5.446  -1.473  0.00  0.00    -0.010 A 
ATOM      8  C   LIG    1       -0.764  -6.700  -1.531  0.00  0.00    +0.040 A 
ATOM      9  C   LIG    1       -0.255  -7.269  -0.387  0.00  0.00    -0.020 A 
ATOM     10  C   LIG    1       -0.310  -6.605   0.847  0.00  0.00    +0.140 A 
ATOM     11  N   LIG    1        0.260  -7.287   1.903  0.00  0.00    -0.650 N 
ATOM     12  H   LIG    1        0.718  -8.096   1.624  0.00  0.00    +0.400 HD
ATOM     13  C   LIG    1        0.324  -7.091   3.195  0.00  0.00    +0.520 C 
ATOM     14  O   LIG    1        0.787  -7.990   3.863  0.00  0.00    -0.530 OA
ENDROOT
BRANCH   4  15
ATOM     15  C   LIG    1        0.073  -3.647   2.199  0.00  0.00    +0.190 C 
BRANCH  15  16
ATOM     16  C   LIG    1        0.048  -2.627   1.060  0.00  0.00    -0.010 C 
ATOM     17  C   LIG    1        1.287  -1.733   1.148  0.00  0.00    +0.020 C 
ATOM     18  C   LIG    1        1.276  -0.735  -0.014  0.00  0.00    +0.300 C 
ATOM     19  N   LIG    1        0.002  -0.004   0.002  0.00  0.00    -0.600 N 
ATOM     20  C   LIG    1       -1.252  -0.770   0.016  0.00  0.00    +0.270 C 
ATOM     21  C   LIG    1       -0.016   1.344   0.009  0.00  0.00    +0.650 C 
ATOM     22  O   LIG    1        1.028   1.965   0.003  0.00  0.00    -0.570 OA
ATOM     23  C   LIG    1       -1.213  -1.767   1.173  0.00  0.00    +0.040 C 
BRANCH  21  24
ATOM     24  O   LIG    1       -1.191   2.001   0.019  0.00  0.00    -0.360 OA
BRANCH  24  25
ATOM     25  C   LIG    1       -1.135   3.452   0.026  0.00  0.00    +0.140 C 
ATOM     26  C   LIG    1       -0.389   3.927   1.274  0.00  0.00    +0.040 C 
ATOM     27  C   LIG    1       -2.557   4.017   0.036  0.00  0.00    +0.080 C 
ATOM     28  C   LIG    1       -0.400   3.940  -1.224  0.00  0.00    +0.040 C 
ENDBRANCH  24  25
ENDBRANCH  21  24
ENDBRANCH  15  16
ENDBRANCH   4  15
TORSDOF 4
