REMARK  Name = ZINCrH000004pGfC.0
REMARK                            x       y       z     vdW  Elec       q    Type
REMARK                         _______ _______ _______ _____ _____    ______ ____
ROOT
ATOM      1  C   LIG    1        2.216   5.266   5.035  0.00  0.00    +0.040 C 
ATOM      2  C   LIG    1        3.372   4.263   5.072  0.00  0.00    +0.010 C 
ATOM      3  C   LIG    1        2.823   2.863   5.359  0.00  0.00    +0.030 C 
ATOM      4  C   LIG    1        3.977   1.858   5.376  0.00  0.00    +0.010 C 
ATOM      5  C   LIG    1        4.673   1.855   4.013  0.00  0.00    +0.030 C 
ATOM      6  C   LIG    1        5.229   3.251   3.722  0.00  0.00    +0.010 C 
ATOM      7  C   LIG    1        5.908   3.254   2.351  0.00  0.00    +0.020 C 
ATOM      8  C   LIG    1        4.089   4.264   3.727  0.00  0.00    +0.130 C 
ATOM      9  N   LIG    1        4.591   5.607   3.411  0.00  0.00    -0.720 N 
ATOM     10  H   LIG    1        5.240   6.119   3.920  0.00  0.00    +0.440 HD
ATOM     11  C   LIG    1        3.978   5.985   2.273  0.00  0.00    +0.710 C 
ATOM     12  N   LIG    1        3.131   5.055   1.816  0.00  0.00    -0.570 N 
ATOM     13  O   LIG    1        4.170   7.053   1.725  0.00  0.00    -0.540 OA
ATOM     14  C   LIG    1        3.114   3.965   2.610  0.00  0.00    +0.550 C 
ATOM     15  O   LIG    1        2.456   2.958   2.461  0.00  0.00    -0.450 OA
ENDROOT
BRANCH  12  16
ATOM     16  C   LIG    1        2.327   5.200   0.600  0.00  0.00    +0.480 C 
BRANCH  16  17
ATOM     17  N   LIG    1        1.033   5.808   0.939  0.00  0.00    -0.540 NA
ATOM     18  C   LIG    1        1.151   7.267   1.058  0.00  0.00    +0.200 C 
BRANCH  17  19
ATOM     19  C   LIG    1        0.005   5.441  -0.045  0.00  0.00    +0.230 C 
ATOM     20  C   LIG    1        0.366   6.050  -1.399  0.00  0.00    -0.010 C 
ATOM     21  C   LIG    1       -0.816   5.843  -2.353  0.00  0.00    +0.030 C 
ATOM     22  C   LIG    1       -1.966   6.737  -1.895  0.00  0.00    +0.080 C 
ATOM     23  C   LIG    1       -2.242   6.537  -0.428  0.00  0.00    -0.070 A 
ATOM     24  C   LIG    1       -3.466   6.969   0.065  0.00  0.00    -0.010 A 
ATOM     25  C   LIG    1       -3.773   6.827   1.403  0.00  0.00    +0.010 A 
ATOM     26  C   LIG    1       -2.860   6.238   2.257  0.00  0.00    -0.010 A 
ATOM     27  C   LIG    1       -1.647   5.800   1.768  0.00  0.00    +0.040 A 
ATOM     28  C   LIG    1       -1.334   5.948   0.423  0.00  0.00    -0.080 A 
ENDBRANCH  17  19
ENDBRANCH  16  17
ENDBRANCH  12  16
TORSDOF 3
