REMARK  Name = ZINCkj000005h81E.0
REMARK                            x       y       z     vdW  Elec       q    Type
REMARK                         _______ _______ _______ _____ _____    ______ ____
ROOT
ATOM      1  C   LIG    1        1.244  -6.122   0.108  0.00  0.00    +0.160 C 
ATOM      2  C   LIG    1        1.138  -4.595   0.078  0.00  0.00    +0.220 C 
ATOM      3  N   LIG    1        2.486  -4.014   0.165  0.00  0.00    -0.470 N 
ATOM      4  C   LIG    1        3.328  -4.483  -0.945  0.00  0.00    +0.190 C 
ATOM      5  C   LIG    1        3.412  -6.011  -0.904  0.00  0.00    +0.270 C 
ATOM      6  O   LIG    1        2.091  -6.558  -0.958  0.00  0.00    -0.390 OA
ENDROOT
BRANCH   3   7
ATOM      7  C   LIG    1        2.428  -2.628   0.194  0.00  0.00    +0.280 A 
ATOM      8  N   LIG    1        1.259  -2.020   0.145  0.00  0.00    -0.470 NA
ATOM      9  C   LIG    1        1.206  -0.683   0.173  0.00  0.00    +0.110 A 
ATOM     10  C   LIG    1       -0.024  -0.006   0.121  0.00  0.00    +0.040 A 
ATOM     11  C   LIG    1       -0.048   1.355   0.151  0.00  0.00    +0.060 A 
ATOM     12  C   LIG    1        1.133   2.090   0.232  0.00  0.00    +0.040 A 
ATOM     13  C   LIG    1        2.343   1.468   0.284  0.00  0.00    +0.070 A 
ATOM     14  C   LIG    1        2.407   0.065   0.256  0.00  0.00    +0.060 A 
ATOM     15  N   LIG    1        3.584  -0.572   0.305  0.00  0.00    -0.400 NA
ATOM     16  C   LIG    1        3.618  -1.883   0.277  0.00  0.00    +0.260 A 
ENDBRANCH   3   7
BRANCH   1  17
ATOM     17  C   LIG    1       -0.148  -6.734  -0.063  0.00  0.00    +0.290 C 
BRANCH  17  19
ATOM     18  C   LIG    1        0.372  -8.612   1.337  0.00  0.00    +0.320 C 
ATOM     19  N   LIG    1       -0.049  -8.199  -0.009  0.00  0.00    -0.380 N 
ATOM     20  C   LIG    1       -1.359  -8.790  -0.315  0.00  0.00    +0.320 C 
ATOM     21  H   LIG    1        0.629  -8.515  -0.685  0.00  0.00    +0.430 HD
ENDBRANCH  17  19
ENDBRANCH   1  17
TORSDOF 3
