REMARK  Name = ZINCqH0000037EGl.0
REMARK                            x       y       z     vdW  Elec       q    Type
REMARK                         _______ _______ _______ _____ _____    ______ ____
ROOT
ATOM      1  N   LIG    1       -0.964   4.798   0.036  0.00  0.00    -0.620 N 
ATOM      2  H   LIG    1       -0.347   5.546   0.034  0.00  0.00    +0.430 HD
ATOM      3  C   LIG    1       -2.293   5.021   0.050  0.00  0.00    +0.510 C 
ATOM      4  O   LIG    1       -3.065   4.085   0.053  0.00  0.00    -0.500 OA
ENDROOT
BRANCH   1   8
ATOM      5  C   LIG    1        1.065   1.881   0.002  0.00  0.00    +0.160 A 
ATOM      6  C   LIG    1       -0.013   1.076   0.008  0.00  0.00    -0.120 A 
ATOM      7  S   LIG    1       -1.452   2.091   0.019  0.00  0.00    +0.260 S 
ATOM      8  C   LIG    1       -0.478   3.496   0.025  0.00  0.00    +0.240 A 
ATOM      9  N   LIG    1        0.776   3.176   0.012  0.00  0.00    -0.500 NA
BRANCH   5  13
ATOM     10  C   LIG    1        4.636  -1.674  -0.052  0.00  0.00    +0.150 C 
ATOM     11  C   LIG    1        4.057  -0.282  -0.040  0.00  0.00    -0.180 A 
ATOM     12  C   LIG    1        2.757   0.005  -0.020  0.00  0.00    +0.020 A 
ATOM     13  C   LIG    1        2.458   1.366  -0.015  0.00  0.00    -0.050 A 
ATOM     14  C   LIG    1        3.533   2.174  -0.021  0.00  0.00    -0.140 A 
ATOM     15  C   LIG    1        3.488   3.680  -0.013  0.00  0.00    +0.140 C 
ATOM     16  S   LIG    1        4.999   1.202  -0.040  0.00  0.00    +0.110 S 
ENDBRANCH   5  13
ENDBRANCH   1   8
BRANCH   3  17
ATOM     17  C   LIG    1       -2.821   6.433   0.062  0.00  0.00    +0.330 C 
BRANCH  17  18
ATOM     18  N   LIG    1       -4.285   6.407   0.076  0.00  0.00    -0.730 N 
ATOM     19  H   LIG    1       -4.756   5.558   0.077  0.00  0.00    +0.410 HD
ATOM     20  C   LIG    1       -4.980   7.562   0.089  0.00  0.00    +0.520 C 
ATOM     21  O   LIG    1       -4.392   8.623   0.088  0.00  0.00    -0.520 OA
BRANCH  20  22
ATOM     22  C   LIG    1       -6.486   7.535   0.103  0.00  0.00    +0.120 C 
BRANCH  22  23
ATOM     23  C   LIG    1       -7.014   8.947   0.115  0.00  0.00    -0.070 A 
ATOM     24  C   LIG    1       -7.249   9.587   1.317  0.00  0.00    +0.010 A 
ATOM     25  C   LIG    1       -7.728  10.883   1.328  0.00  0.00    +0.000 A 
ATOM     26  C   LIG    1       -7.982  11.537   0.137  0.00  0.00    +0.000 A 
ATOM     27  C   LIG    1       -7.751  10.895  -1.066  0.00  0.00    +0.000 A 
ATOM     28  C   LIG    1       -7.267   9.600  -1.077  0.00  0.00    +0.010 A 
ENDBRANCH  22  23
ENDBRANCH  20  22
ENDBRANCH  17  18
ENDBRANCH   3  17
TORSDOF 6
