REMARK  Name = ZINC9u0000000qED.0
REMARK                            x       y       z     vdW  Elec       q    Type
REMARK                         _______ _______ _______ _____ _____    ______ ____
ROOT
ATOM      1  C   LIG    1        2.382   1.408  -0.013  0.00  0.00    +0.240 A 
ATOM      2  C   LIG    1        2.397   0.020  -0.020  0.00  0.00    -0.060 A 
ATOM      3  C   LIG    1        1.207  -0.682  -0.013  0.00  0.00    +0.070 A 
ATOM      4  C   LIG    1        0.002  -0.004   0.002  0.00  0.00    -0.040 A 
ATOM      5  C   LIG    1       -0.017   1.379   0.010  0.00  0.00    +0.090 A 
ATOM      6  C   LIG    1        1.169   2.087   0.002  0.00  0.00    -0.170 A 
ATOM      7 BR   LIG    1        1.143   3.978   0.012  0.00  0.00    -0.060 Br
ENDROOT
BRANCH   1   9
ATOM      8  C   LIG    1        4.861   1.403  -0.034  0.00  0.00    +0.290 C 
ATOM      9  N   LIG    1        3.584   2.121  -0.019  0.00  0.00    -0.750 N 
ATOM     10  H   LIG    1        3.572   3.091  -0.015  0.00  0.00    +0.400 HD
ENDBRANCH   1   9
TORSDOF 1
