REMARK  Name = ZINCpe000000TAW4.0
REMARK                            x       y       z     vdW  Elec       q    Type
REMARK                         _______ _______ _______ _____ _____    ______ ____
ROOT
ATOM      1  C   LIG    1       -2.011   3.854   4.450  0.00  0.00    +0.190 A 
ATOM      2  N   LIG    1       -2.769   4.560   3.660  0.00  0.00    -0.230 NA
ATOM      3  N   LIG    1       -2.372   4.440   2.443  0.00  0.00    -0.290 NA
ATOM      4  C   LIG    1       -1.335   3.638   2.388  0.00  0.00    +0.370 A 
ATOM      5  N   LIG    1       -1.069   3.239   3.668  0.00  0.00    -0.410 N 
ENDROOT
BRANCH   4   6
ATOM      6  N   LIG    1       -0.639   3.268   1.248  0.00  0.00    -0.460 N 
ATOM      7  C   LIG    1       -1.519   2.576   0.295  0.00  0.00    +0.190 C 
ATOM      8  C   LIG    1       -0.699   2.135  -0.920  0.00  0.00    +0.240 C 
ATOM      9  O   LIG    1       -0.062   3.276  -1.501  0.00  0.00    -0.380 OA
ATOM     10  C   LIG    1        0.802   3.973  -0.600  0.00  0.00    +0.240 C 
ATOM     11  C   LIG    1       -0.003   4.434   0.618  0.00  0.00    +0.190 C 
ENDBRANCH   4   6
BRANCH   5  12
ATOM     12  C   LIG    1       -0.044   2.381   4.093  0.00  0.00    +0.100 A 
ATOM     13  C   LIG    1       -0.064   1.041   3.729  0.00  0.00    +0.040 A 
ATOM     14  C   LIG    1        0.949   0.199   4.144  0.00  0.00    +0.040 A 
ATOM     15  C   LIG    1        1.977   0.687   4.931  0.00  0.00    +0.030 A 
ATOM     16  C   LIG    1        1.997   2.020   5.298  0.00  0.00    +0.040 A 
ATOM     17  C   LIG    1        0.989   2.868   4.881  0.00  0.00    +0.020 A 
ENDBRANCH   5  12
BRANCH   1  18
ATOM     18  C   LIG    1       -2.146   3.734   5.946  0.00  0.00    +0.250 C 
BRANCH  18  21
ATOM     19  N   LIG    1       -2.087   5.235   7.912  0.00  0.00    -0.720 N 
ATOM     20  H   LIG    1       -2.242   4.457   8.471  0.00  0.00    +0.400 HD
ATOM     21  C   LIG    1       -2.001   5.097   6.574  0.00  0.00    +0.530 C 
ATOM     22  O   LIG    1       -1.807   6.069   5.875  0.00  0.00    -0.490 OA
BRANCH  19  24
ATOM     23  C   LIG    1       -2.083   6.438  10.041  0.00  0.00    +0.030 C 
ATOM     24  C   LIG    1       -1.946   6.559   8.522  0.00  0.00    +0.250 C 
ENDBRANCH  19  24
ENDBRANCH  18  21
BRANCH  18  25
ATOM     25  C   LIG    1       -3.468   3.180   6.277  0.00  0.00    +0.200 C 
ATOM     26  N   LIG    1       -4.489   2.752   6.532  0.00  0.00    -0.370 NA
ENDBRANCH  18  25
ENDBRANCH   1  18
TORSDOF 6
