REMARK  Name = ZINCrH000004uWjN.0
REMARK                            x       y       z     vdW  Elec       q    Type
REMARK                         _______ _______ _______ _____ _____    ______ ____
ROOT
ATOM      1  O   LIG    1       -5.228   5.714   0.436  0.00  0.00    -0.540 OA
ATOM      2  C   LIG    1       -5.101   4.513   0.297  0.00  0.00    +0.560 C 
ATOM      3  N   LIG    1       -6.188   3.734   0.130  0.00  0.00    -0.700 N 
ATOM      4  H   LIG    1       -6.087   2.776   0.020  0.00  0.00    +0.400 HD
ENDROOT
BRANCH   2   5
ATOM      5  C   LIG    1       -3.754   3.906   0.312  0.00  0.00    -0.140 A 
ATOM      6  C   LIG    1       -2.626   4.713   0.485  0.00  0.00    +0.090 A 
ATOM      7  C   LIG    1       -1.371   4.146   0.499  0.00  0.00    +0.010 A 
ATOM      8  C   LIG    1       -1.226   2.768   0.341  0.00  0.00    -0.020 A 
ATOM      9  C   LIG    1       -2.351   1.963   0.163  0.00  0.00    +0.010 A 
ATOM     10  C   LIG    1       -3.607   2.526   0.153  0.00  0.00    +0.050 A 
BRANCH   8  11
ATOM     11  C   LIG    1        0.126   2.159   0.357  0.00  0.00    -0.060 A 
ATOM     12  C   LIG    1        1.253   2.963   0.524  0.00  0.00    +0.020 A 
ATOM     13  C   LIG    1        2.509   2.391   0.533  0.00  0.00    +0.010 A 
ATOM     14  C   LIG    1        2.651   1.024   0.375  0.00  0.00    +0.010 A 
ATOM     15  C   LIG    1        1.537   0.222   0.209  0.00  0.00    +0.010 A 
ATOM     16  C   LIG    1        0.276   0.782   0.199  0.00  0.00    +0.020 A 
ENDBRANCH   8  11
ENDBRANCH   2   5
BRANCH   3  17
ATOM     17  C   LIG    1       -7.524   4.335   0.116  0.00  0.00    +0.250 C 
ATOM     18  C   LIG    1       -7.853   4.812  -1.300  0.00  0.00    +0.010 C 
ATOM     19  C   LIG    1       -7.819   3.622  -2.260  0.00  0.00    +0.010 C 
ATOM     20  C   LIG    1       -8.852   2.582  -1.820  0.00  0.00    +0.010 C 
ATOM     21  C   LIG    1       -8.523   2.105  -0.404  0.00  0.00    +0.030 C 
ATOM     22  C   LIG    1       -8.556   3.296   0.556  0.00  0.00    +0.140 C 
BRANCH  22  23
ATOM     23  N   LIG    1       -8.241   2.838   1.916  0.00  0.00    -0.530 NA
ATOM     24  C   LIG    1       -9.169   1.782   2.345  0.00  0.00    +0.140 C 
ATOM     25  C   LIG    1       -8.769   1.294   3.740  0.00  0.00    +0.220 C 
ATOM     26  O   LIG    1       -8.754   2.403   4.642  0.00  0.00    -0.380 OA
ATOM     27  C   LIG    1       -7.860   3.449   4.255  0.00  0.00    +0.230 C 
ATOM     28  C   LIG    1       -8.251   3.960   2.865  0.00  0.00    +0.140 C 
ENDBRANCH  22  23
ENDBRANCH   3  17
TORSDOF 4
