REMARK  Name = ZINCkj00000y7HRB.0
REMARK                            x       y       z     vdW  Elec       q    Type
REMARK                         _______ _______ _______ _____ _____    ______ ____
ROOT
ATOM      1  C   LIG    1       -2.641   3.182   1.617  0.00  0.00    +0.140 C 
ATOM      2  C   LIG    1       -3.608   1.980   1.621  0.00  0.00    +0.050 C 
ATOM      3  C   LIG    1       -4.110   1.902   3.085  0.00  0.00    +0.050 C 
ATOM      4  C   LIG    1       -2.843   2.261   3.900  0.00  0.00    +0.050 C 
ATOM      5  C   LIG    1       -2.155   3.361   3.066  0.00  0.00    +0.170 C 
ENDROOT
BRANCH   1   9
ATOM      6  C   LIG    1       -0.047   3.800  -0.951  0.00  0.00    +0.170 C 
ATOM      7  C   LIG    1       -0.793   2.582  -1.534  0.00  0.00    +0.010 C 
ATOM      8  C   LIG    1       -1.953   2.312  -0.552  0.00  0.00    +0.200 C 
ATOM      9  N   LIG    1       -1.500   2.907   0.733  0.00  0.00    -0.530 NA
ATOM     10  C   LIG    1       -0.820   4.166   0.334  0.00  0.00    +0.190 C 
BRANCH   6  11
ATOM     11  O   LIG    1        1.303   3.453  -0.639  0.00  0.00    -0.560 OA
ATOM     12  H   LIG    1        1.824   3.172  -1.404  0.00  0.00    +0.390 HD
ENDBRANCH   6  11
ENDBRANCH   1   9
BRANCH   5  13
ATOM     13  N   LIG    1       -0.696   3.202   3.129  0.00  0.00    -0.500 N 
ATOM     14  H   LIG    1       -0.257   3.868   2.511  0.00  0.00    +0.430 HD
ATOM     15  H   LIG    1       -0.446   2.266   2.846  0.00  0.00    +0.430 HD
BRANCH  13  16
ATOM     16  C   LIG    1       -0.237   3.436   4.505  0.00  0.00    +0.270 C 
BRANCH  16  17
ATOM     17  C   LIG    1        1.282   3.271   4.572  0.00  0.00    +0.200 C 
BRANCH  17  18
ATOM     18  O   LIG    1        1.907   4.289   3.787  0.00  0.00    -0.400 OA
BRANCH  18  19
ATOM     19  C   LIG    1        3.334   4.225   3.782  0.00  0.00    +0.200 C 
BRANCH  19  20
ATOM     20  C   LIG    1        3.893   5.355   2.915  0.00  0.00    -0.010 C 
ATOM     21  C   LIG    1        3.981   5.001   1.421  0.00  0.00    +0.020 C 
ATOM     22  C   LIG    1        5.331   5.739   1.408  0.00  0.00    +0.000 C 
ATOM     23  C   LIG    1        5.429   5.427   2.910  0.00  0.00    +0.020 C 
ENDBRANCH  19  20
ENDBRANCH  18  19
ENDBRANCH  17  18
ENDBRANCH  16  17
ENDBRANCH  13  16
ENDBRANCH   5  13
TORSDOF 8
