REMARK  Name = ZINCyk00000004EJ.0
REMARK                            x       y       z     vdW  Elec       q    Type
REMARK                         _______ _______ _______ _____ _____    ______ ____
ROOT
ATOM      1  C   LIG    1       -5.141   1.463  -0.103  0.00  0.00    +0.100 A 
ATOM      2  C   LIG    1       -4.864   0.943   1.158  0.00  0.00    +0.040 A 
ATOM      3  C   LIG    1       -3.565   0.665   1.520  0.00  0.00    +0.090 A 
ATOM      4  C   LIG    1       -2.524   0.905   0.619  0.00  0.00    +0.080 A 
ATOM      5  C   LIG    1       -2.805   1.427  -0.647  0.00  0.00    -0.620 A 
ATOM      6  C   LIG    1       -4.106   1.708  -1.000  0.00  0.00    +0.130 A 
ENDROOT
BRANCH   1  10
ATOM      7  N   LIG    1       -8.959   3.095  -0.211  0.00  0.00    -0.390 N 
ATOM      8  C   LIG    1       -8.819   1.683   0.168  0.00  0.00    +0.270 C 
ATOM      9  C   LIG    1       -7.383   1.417   0.627  0.00  0.00    +0.230 C 
ATOM     10  N   LIG    1       -6.455   1.744  -0.465  0.00  0.00    -0.480 N 
ATOM     11  C   LIG    1       -6.601   3.148  -0.872  0.00  0.00    +0.240 C 
ATOM     12  C   LIG    1       -8.043   3.400  -1.319  0.00  0.00    +0.280 C 
ATOM     13  H   LIG    1       -8.734   3.679   0.580  0.00  0.00    +0.430 HD
BRANCH   7  14
ATOM     14  C   LIG    1      -10.341   3.354  -0.634  0.00  0.00    +0.290 C 
BRANCH  14  15
ATOM     15  C   LIG    1      -11.280   3.196   0.564  0.00  0.00    +0.200 C 
BRANCH  15  17
ATOM     16  C   LIG    1      -11.789   4.123   2.715  0.00  0.00    +0.240 C 
ATOM     17  O   LIG    1      -10.966   4.183   1.548  0.00  0.00    -0.400 OA
ENDBRANCH  15  17
ENDBRANCH  14  15
ENDBRANCH   7  14
ENDBRANCH   1  10
BRANCH   5  18
ATOM     18  S   LIG    1       -1.496   1.732  -1.786  0.00  0.00    +2.680 S 
ATOM     19  O   LIG    1       -2.104   2.218  -2.975  0.00  0.00    -0.940 OA
ATOM     20  O   LIG    1       -0.502   2.453  -1.071  0.00  0.00    -0.940 OA
BRANCH  18  21
ATOM     21  N   LIG    1       -0.827   0.266  -2.168  0.00  0.00    -1.100 NA
ATOM     22  H   LIG    1        0.090   0.072  -1.919  0.00  0.00    +0.430 HD
BRANCH  21  23
ATOM     23  C   LIG    1       -1.621  -0.737  -2.883  0.00  0.00    +0.270 C 
BRANCH  23  24
ATOM     24  C   LIG    1       -0.727  -1.481  -3.876  0.00  0.00    +0.120 C 
BRANCH  24  25
ATOM     25  C   LIG    1       -0.248  -0.523  -4.936  0.00  0.00    -0.130 A 
ATOM     26  C   LIG    1        1.021   0.018  -4.856  0.00  0.00    +0.080 A 
ATOM     27  C   LIG    1        1.462   0.896  -5.828  0.00  0.00    -0.010 A 
ATOM     28  C   LIG    1        0.632   1.234  -6.884  0.00  0.00    +0.130 A 
ATOM     29  C   LIG    1       -0.639   0.694  -6.965  0.00  0.00    -0.040 A 
ATOM     30  F   LIG    1        1.063   2.093  -7.833  0.00  0.00    -0.130 F 
ATOM     31  C   LIG    1       -1.078  -0.190  -5.994  0.00  0.00    +0.130 A 
ATOM     32  F   LIG    1       -2.316  -0.723  -6.075  0.00  0.00    -0.130 F 
ENDBRANCH  24  25
ENDBRANCH  23  24
BRANCH  23  33
ATOM     33  C   LIG    1       -2.207  -1.732  -1.879  0.00  0.00    +0.170 C 
BRANCH  33  34
ATOM     34  O   LIG    1       -1.147  -2.461  -1.257  0.00  0.00    -0.560 OA
ATOM     35  H   LIG    1       -1.446  -3.112  -0.607  0.00  0.00    +0.380 HD
ENDBRANCH  33  34
ENDBRANCH  23  33
ENDBRANCH  21  23
ENDBRANCH  18  21
ENDBRANCH   5  18
BRANCH   4  36
ATOM     36  C   LIG    1       -1.172   0.617   0.992  0.00  0.00    +0.200 C 
ATOM     37  N   LIG    1       -0.099   0.389   1.288  0.00  0.00    -0.330 NA
ENDBRANCH   4  36
TORSDOF 12
