REMARK  Name = ZINCpk00000e9hjf.0
REMARK                            x       y       z     vdW  Elec       q    Type
REMARK                         _______ _______ _______ _____ _____    ______ ____
ROOT
ATOM      1  N   LIG    1        2.341   5.739  -2.601  0.00  0.00    -0.590 N 
ATOM      2  C   LIG    1        2.171   5.085  -1.435  0.00  0.00    +0.530 C 
ATOM      3  O   LIG    1        2.344   5.663  -0.383  0.00  0.00    -0.530 OA
ENDROOT
BRANCH   1   5
ATOM      4  C   LIG    1        0.669   5.186  -4.298  0.00  0.00    +0.020 C 
ATOM      5  C   LIG    1        2.131   5.041  -3.871  0.00  0.00    +0.260 C 
ENDBRANCH   1   5
BRANCH   2   6
ATOM      6  C   LIG    1        1.764   3.633  -1.438  0.00  0.00    +0.070 C 
BRANCH   6   7
ATOM      7  C   LIG    1        1.641   3.135   0.003  0.00  0.00    +0.220 C 
BRANCH   7   8
ATOM      8  C   LIG    1        1.235   1.683  -0.001  0.00  0.00    +0.190 A 
ATOM      9  N   LIG    1        2.040   0.650  -0.014  0.00  0.00    -0.470 NA
ATOM     10  C   LIG    1        1.236  -0.437  -0.012  0.00  0.00    +0.220 A 
ATOM     11  N   LIG    1        0.002  -0.004   0.002  0.00  0.00    -0.370 NA
ATOM     12  O   LIG    1       -0.014   1.209   0.009  0.00  0.00    +0.090 OA
BRANCH  10  13
ATOM     13  C   LIG    1        1.672  -1.855  -0.024  0.00  0.00    -0.080 A 
ATOM     14  C   LIG    1        0.731  -2.888  -0.020  0.00  0.00    +0.100 A 
ATOM     15  C   LIG    1        1.189  -4.194  -0.031  0.00  0.00    -0.020 A 
ATOM     16  C   LIG    1        2.550  -4.433  -0.046  0.00  0.00    +0.280 A 
ATOM     17  N   LIG    1        3.416  -3.438  -0.049  0.00  0.00    -0.480 NA
ATOM     18  C   LIG    1        3.027  -2.179  -0.045  0.00  0.00    +0.320 A 
ENDBRANCH  10  13
ENDBRANCH   7   8
ENDBRANCH   6   7
ENDBRANCH   2   6
BRANCH   1  19
ATOM     19  C   LIG    1        2.736   7.150  -2.597  0.00  0.00    +0.330 C 
BRANCH  19  20
ATOM     20  C   LIG    1        4.239   7.251  -2.611  0.00  0.00    +0.500 C 
ATOM     21  N   LIG    1        4.833   8.461  -2.611  0.00  0.00    -0.730 N 
ATOM     22  H   LIG    1        4.293   9.267  -2.602  0.00  0.00    +0.400 HD
ATOM     23  O   LIG    1        4.914   6.244  -2.623  0.00  0.00    -0.530 OA
BRANCH  21  24
ATOM     24  C   LIG    1        6.295   8.559  -2.625  0.00  0.00    +0.230 C 
ATOM     25  C   LIG    1        6.826   8.460  -1.194  0.00  0.00    +0.030 C 
ATOM     26  C   LIG    1        6.710   9.901  -3.232  0.00  0.00    +0.030 C 
ENDBRANCH  21  24
ENDBRANCH  19  20
ENDBRANCH   1  19
TORSDOF 8
