REMARK  Name = ZINCrH000004rTpe.0
REMARK                            x       y       z     vdW  Elec       q    Type
REMARK                         _______ _______ _______ _____ _____    ______ ____
ROOT
ATOM      1  N   LIG    1       -1.054  -3.752   4.640  0.00  0.00    -0.740 N 
ATOM      2  H   LIG    1       -1.779  -3.748   3.995  0.00  0.00    +0.400 HD
ATOM      3  C   LIG    1       -1.276  -4.169   5.902  0.00  0.00    +0.710 C 
ATOM      4  N   LIG    1       -2.506  -4.581   6.269  0.00  0.00    -0.690 N 
ATOM      5  H   LIG    1       -3.248  -4.506   5.649  0.00  0.00    +0.410 HD
ATOM      6  O   LIG    1       -0.367  -4.173   6.709  0.00  0.00    -0.570 OA
ENDROOT
BRANCH   4   7
ATOM      7  C   LIG    1       -2.711  -5.116   7.540  0.00  0.00    +0.200 A 
ATOM      8  C   LIG    1       -1.706  -5.862   8.150  0.00  0.00    +0.010 A 
ATOM      9  C   LIG    1       -1.904  -6.388   9.406  0.00  0.00    +0.070 A 
ATOM     10  C   LIG    1       -3.119  -6.181  10.066  0.00  0.00    -0.160 A 
ATOM     11  C   LIG    1       -4.128  -5.436   9.448  0.00  0.00    +0.110 A 
ATOM     12  C   LIG    1       -3.921  -4.909   8.193  0.00  0.00    -0.030 A 
BRANCH  10  13
ATOM     13  C   LIG    1       -3.337  -6.748  11.411  0.00  0.00    +0.560 C 
ATOM     14  N   LIG    1       -2.363  -7.466  12.005  0.00  0.00    -0.720 N 
ATOM     15  H   LIG    1       -1.519  -7.610  11.548  0.00  0.00    +0.400 HD
ATOM     16  O   LIG    1       -4.394  -6.567  11.983  0.00  0.00    -0.530 OA
BRANCH  14  17
ATOM     17  C   LIG    1       -2.579  -8.029  13.340  0.00  0.00    +0.170 C 
ATOM     18  C   LIG    1       -2.861  -6.898  14.331  0.00  0.00    +0.030 C 
ATOM     19  C   LIG    1       -1.328  -8.792  13.780  0.00  0.00    +0.040 C 
ATOM     20  C   LIG    1       -3.773  -8.985  13.303  0.00  0.00    +0.030 C 
ENDBRANCH  14  17
ENDBRANCH  10  13
ENDBRANCH   4   7
BRANCH   1  21
ATOM     21  C   LIG    1        0.282  -3.303   4.241  0.00  0.00    +0.310 C 
BRANCH  21  22
ATOM     22  C   LIG    1        0.262  -2.887   2.769  0.00  0.00    +0.200 C 
BRANCH  22  23
ATOM     23  O   LIG    1       -0.583  -1.746   2.608  0.00  0.00    -0.310 OA
BRANCH  23  29
ATOM     24  C   LIG    1       -2.520   1.570  -0.405  0.00  0.00    +0.090 C 
ATOM     25  C   LIG    1       -1.646   0.368  -0.156  0.00  0.00    -0.050 A 
ATOM     26  C   LIG    1       -0.978  -0.230  -1.208  0.00  0.00    -0.040 A 
ATOM     27  C   LIG    1       -0.171  -1.330  -0.983  0.00  0.00    +0.050 A 
ATOM     28  C   LIG    1       -0.038  -1.840   0.294  0.00  0.00    -0.090 A 
ATOM     29  C   LIG    1       -0.712  -1.245   1.351  0.00  0.00    +0.130 A 
ATOM     30  C   LIG    1       -1.516  -0.139   1.123  0.00  0.00    -0.020 A 
ENDBRANCH  23  29
ENDBRANCH  22  23
ENDBRANCH  21  22
ENDBRANCH   1  21
TORSDOF 7
