REMARK  Name = ZINCvU00000004YH.0
REMARK                            x       y       z     vdW  Elec       q    Type
REMARK                         _______ _______ _______ _____ _____    ______ ____
ROOT
ATOM      1  C   LIG    1        8.036  -2.722  -0.087  0.00  0.00    +0.020 C 
ATOM      2  C   LIG    1        7.566  -3.365  -1.393  0.00  0.00    +0.110 C 
ENDROOT
BRANCH   1   3
ATOM      3  C   LIG    1        9.534  -2.845   0.023  0.00  0.00    +0.540 C 
ATOM      4  N   LIG    1       10.086  -4.004   0.433  0.00  0.00    -0.620 N 
ATOM      5  H   LIG    1        9.520  -4.759   0.658  0.00  0.00    +0.420 HD
ATOM      6  O   LIG    1       10.242  -1.902  -0.258  0.00  0.00    -0.480 OA
BRANCH   4   7
ATOM      7  C   LIG    1       11.466  -4.118   0.534  0.00  0.00    +0.050 A 
ATOM      8  C   LIG    1       12.124  -5.242   0.938  0.00  0.00    -0.110 A 
ATOM      9  C   LIG    1       13.571  -5.093   0.953  0.00  0.00    -0.040 A 
ATOM     10  C   LIG    1       13.959  -3.873   0.571  0.00  0.00    -0.240 A 
ATOM     11  C   LIG    1       15.396  -3.400   0.490  0.00  0.00    +0.110 C 
ATOM     12  C   LIG    1       16.247  -4.437  -0.241  0.00  0.00    +0.020 C 
ATOM     13  C   LIG    1       16.811  -5.431   0.771  0.00  0.00    +0.000 C 
ATOM     14  C   LIG    1       15.812  -5.636   1.908  0.00  0.00    +0.030 C 
ATOM     15  C   LIG    1       14.515  -6.215   1.351  0.00  0.00    +0.090 C 
ATOM     16  S   LIG    1       12.569  -2.876   0.164  0.00  0.00    +0.320 S 
BRANCH   8  17
ATOM     17  C   LIG    1       11.456  -6.452   1.312  0.00  0.00    +0.270 C 
ATOM     18  N   LIG    1       10.925  -7.412   1.608  0.00  0.00    -0.420 NA
ENDBRANCH   8  17
ENDBRANCH   4   7
ENDBRANCH   1   3
BRANCH   1  19
ATOM     19  S   LIG    1        7.572  -0.972  -0.074  0.00  0.00    +0.150 S 
BRANCH  19  23
ATOM     20  C   LIG    1        3.704  -0.674  -0.037  0.00  0.00    +0.220 A 
ATOM     21  N   LIG    1        3.874  -1.974  -0.045  0.00  0.00    -0.240 NA
ATOM     22  N   LIG    1        5.132  -2.241  -0.058  0.00  0.00    -0.280 NA
ATOM     23  C   LIG    1        5.817  -1.121  -0.058  0.00  0.00    +0.110 A 
ATOM     24  O   LIG    1        4.931  -0.107  -0.051  0.00  0.00    -0.200 OA
BRANCH  20  30
ATOM     25  C   LIG    1        1.210  -0.682  -0.013  0.00  0.00    +0.180 A 
ATOM     26  C   LIG    1        0.002  -0.004   0.002  0.00  0.00    -0.070 A 
ATOM     27  C   LIG    1       -0.017   1.378   0.010  0.00  0.00    +0.090 A 
ATOM     28  C   LIG    1        1.168   2.094   0.002  0.00  0.00    -0.020 A 
ATOM     29  C   LIG    1        2.379   1.434  -0.013  0.00  0.00    +0.100 A 
ATOM     30  C   LIG    1        2.411   0.039  -0.021  0.00  0.00    -0.070 A 
BRANCH  25  32
ATOM     31  C   LIG    1       -0.035  -2.707  -0.011  0.00  0.00    +0.250 C 
ATOM     32  O   LIG    1        1.229  -2.040  -0.020  0.00  0.00    -0.290 OA
ENDBRANCH  25  32
ENDBRANCH  20  30
ENDBRANCH  19  23
ENDBRANCH   1  19
TORSDOF 7
