REMARK  Name = ZINCnE000001IlL4.1
REMARK                            x       y       z     vdW  Elec       q    Type
REMARK                         _______ _______ _______ _____ _____    ______ ____
ROOT
ATOM      1  S   LIG    1        3.743  -3.646  -0.053  0.00  0.00    +0.040 S 
ENDROOT
BRANCH   1  10
ATOM      2  N   LIG    1        3.446  -0.880  -0.036  0.00  0.00    -0.480 N 
ATOM      3  C   LIG    1        2.421   0.053  -0.021  0.00  0.00    +0.050 A 
ATOM      4  C   LIG    1        2.384   1.439  -0.012  0.00  0.00    +0.010 A 
ATOM      5  C   LIG    1        1.168   2.093   0.002  0.00  0.00    +0.020 A 
ATOM      6  C   LIG    1       -0.017   1.373   0.010  0.00  0.00    +0.000 A 
ATOM      7  C   LIG    1        0.002  -0.004   0.002  0.00  0.00    +0.060 A 
ATOM      8  C   LIG    1        1.224  -0.681  -0.013  0.00  0.00    +0.060 A 
ATOM      9  N   LIG    1        1.561  -1.997  -0.024  0.00  0.00    -0.490 NA
ATOM     10  C   LIG    1        2.866  -2.117  -0.037  0.00  0.00    +0.270 A 
BRANCH   2  12
ATOM     11  C   LIG    1        5.369  -0.486  -1.495  0.00  0.00    +0.040 C 
ATOM     12  C   LIG    1        4.882  -0.593  -0.048  0.00  0.00    +0.300 C 
ENDBRANCH   2  12
ENDBRANCH   1  10
BRANCH   1  13
ATOM     13  C   LIG    1        2.353  -4.805  -0.046  0.00  0.00    +0.050 C 
ATOM     14  C   LIG    1        1.583  -4.670   1.269  0.00  0.00    +0.080 C 
BRANCH  13  15
ATOM     15  C   LIG    1        2.872  -6.213  -0.182  0.00  0.00    +0.470 C 
ATOM     16  N   LIG    1        2.082  -7.176  -0.696  0.00  0.00    -0.660 NA
ATOM     17  O   LIG    1        4.002  -6.479   0.171  0.00  0.00    -0.600 OA
BRANCH  16  18
ATOM     18  C   LIG    1        2.561  -8.472  -0.821  0.00  0.00    +0.270 A 
ATOM     19  C   LIG    1        1.886  -9.550  -1.319  0.00  0.00    -0.200 A 
ATOM     20  C   LIG    1        2.816 -10.605  -1.223  0.00  0.00    +0.010 A 
ATOM     21  N   LIG    1        3.900 -10.099  -0.707  0.00  0.00    -0.420 NA
ATOM     22  C   LIG    1        2.598 -12.038  -1.636  0.00  0.00    +0.140 C 
ATOM     23  O   LIG    1        3.781  -8.917  -0.482  0.00  0.00    +0.040 OA
ENDBRANCH  16  18
ENDBRANCH  13  15
ENDBRANCH   1  13
TORSDOF 5
