REMARK  Name = ZINCqH0000038JnC.0
REMARK                            x       y       z     vdW  Elec       q    Type
REMARK                         _______ _______ _______ _____ _____    ______ ____
ROOT
ATOM      1  C   LIG    1        3.642  -2.005   0.057  0.00  0.00    +0.620 C 
ATOM      2  N   LIG    1        3.622  -0.661  -0.037  0.00  0.00    -0.650 N 
ATOM      3  H   LIG    1        4.453  -0.167  -0.107  0.00  0.00    +0.420 HD
ATOM      4  O   LIG    1        2.598  -2.630   0.064  0.00  0.00    -0.500 OA
ENDROOT
BRANCH   1  10
ATOM      5  C   LIG    1        4.009  -5.150   0.301  0.00  0.00    +0.190 C 
ATOM      6  C   LIG    1        5.100  -4.111   0.260  0.00  0.00    +0.110 A 
ATOM      7  N   LIG    1        6.393  -4.330   0.314  0.00  0.00    -0.280 NA
ATOM      8  N   LIG    1        7.026  -3.082   0.251  0.00  0.00    -0.150 N 
ATOM      9  N   LIG    1        6.129  -2.164   0.156  0.00  0.00    -0.200 NA
ATOM     10  C   LIG    1        4.931  -2.720   0.152  0.00  0.00    -0.060 A 
BRANCH   8  11
ATOM     11  C   LIG    1        8.411  -2.868   0.284  0.00  0.00    +0.150 A 
ATOM     12  C   LIG    1        9.279  -3.946   0.394  0.00  0.00    +0.040 A 
ATOM     13  C   LIG    1       10.643  -3.732   0.422  0.00  0.00    +0.040 A 
ATOM     14  C   LIG    1       11.144  -2.446   0.351  0.00  0.00    +0.020 A 
ATOM     15  C   LIG    1       10.282  -1.369   0.247  0.00  0.00    +0.040 A 
ATOM     16  C   LIG    1        8.917  -1.577   0.213  0.00  0.00    +0.030 A 
ENDBRANCH   8  11
ENDBRANCH   1  10
BRANCH   2  17
ATOM     17  C   LIG    1        2.399   0.024  -0.032  0.00  0.00    +0.140 A 
ATOM     18  C   LIG    1        1.283  -0.543  -0.629  0.00  0.00    +0.070 A 
ATOM     19  C   LIG    1        0.078   0.134  -0.623  0.00  0.00    +0.030 A 
ATOM     20  C   LIG    1       -0.018   1.376  -0.025  0.00  0.00    +0.050 A 
ATOM     21  C   LIG    1        1.091   1.948   0.572  0.00  0.00    -0.030 A 
ATOM     22  C   LIG    1        2.302   1.276   0.571  0.00  0.00    +0.080 A 
BRANCH  22  23
ATOM     23  O   LIG    1        3.393   1.836   1.158  0.00  0.00    -0.310 OA
BRANCH  23  24
ATOM     24  C   LIG    1        3.219   3.122   1.757  0.00  0.00    +0.610 C 
ATOM     25  F   LIG    1        2.803   4.037   0.784  0.00  0.00    -0.160 F 
ATOM     26  F   LIG    1        4.432   3.547   2.310  0.00  0.00    -0.130 F 
ATOM     27  F   LIG    1        2.251   3.040   2.764  0.00  0.00    -0.160 F 
ENDBRANCH  23  24
ENDBRANCH  22  23
ENDBRANCH   2  17
TORSDOF 5
