REMARK  Name = ZINCnE000001OCyb.0
REMARK                            x       y       z     vdW  Elec       q    Type
REMARK                         _______ _______ _______ _____ _____    ______ ____
ROOT
ATOM      1  C   LIG    1        1.219  -0.689  -0.013  0.00  0.00    -0.040 A 
ATOM      2  C   LIG    1        0.002  -0.004   0.002  0.00  0.00    +0.050 A 
ATOM      3  C   LIG    1       -0.017   1.377   0.010  0.00  0.00    +0.010 A 
ATOM      4  C   LIG    1        1.166   2.089   0.002  0.00  0.00    +0.040 A 
ATOM      5  C   LIG    1        2.390   1.417  -0.013  0.00  0.00    +0.040 A 
ATOM      6  C   LIG    1        2.416   0.024  -0.021  0.00  0.00    +0.070 A 
ENDROOT
BRANCH   5   7
ATOM      7  C   LIG    1        3.655   2.182  -0.021  0.00  0.00    +0.100 A 
ATOM      8  N   LIG    1        4.846   1.661  -0.037  0.00  0.00    -0.270 NA
ATOM      9  N   LIG    1        5.778   2.709  -0.041  0.00  0.00    -0.540 NA
ATOM     10  C   LIG    1        5.056   3.874  -0.027  0.00  0.00    +0.450 A 
ATOM     11  N   LIG    1        5.539   5.088  -0.025  0.00  0.00    -0.840 NA
ATOM     12  H   LIG    1        6.498   5.228  -0.034  0.00  0.00    +0.330 HD
ATOM     13  O   LIG    1        3.752   3.530  -0.021  0.00  0.00    -0.290 OA
ENDBRANCH   5   7
BRANCH   1  17
ATOM     14  C   LIG    1        0.391  -4.237  -0.026  0.00  0.00    +0.130 A 
ATOM     15  C   LIG    1        1.688  -4.618  -0.042  0.00  0.00    -0.040 A 
ATOM     16  S   LIG    1        2.687  -3.167  -0.049  0.00  0.00    +0.150 S 
ATOM     17  C   LIG    1        1.237  -2.168  -0.022  0.00  0.00    +0.140 A 
ATOM     18  N   LIG    1        0.186  -2.931  -0.016  0.00  0.00    -0.450 NA
BRANCH  14  23
ATOM     19  C   LIG    1       -4.150  -6.489   0.003  0.00  0.00    +0.160 C 
ATOM     20  C   LIG    1       -2.671  -6.201  -0.009  0.00  0.00    +0.020 A 
ATOM     21  N   LIG    1       -1.707  -7.078  -0.024  0.00  0.00    -0.360 NA
ATOM     22  O   LIG    1       -0.618  -6.553  -0.032  0.00  0.00    +0.110 OA
ATOM     23  C   LIG    1       -0.719  -5.211  -0.022  0.00  0.00    +0.040 A 
ATOM     24  C   LIG    1       -2.060  -4.931  -0.002  0.00  0.00    -0.010 A 
ENDBRANCH  14  23
ENDBRANCH   1  17
TORSDOF 3
