REMARK  Name = ZINCrg00000Ol0ek.0
REMARK                            x       y       z     vdW  Elec       q    Type
REMARK                         _______ _______ _______ _____ _____    ______ ____
ROOT
ATOM      1  C   LIG    1       -1.614   2.693   2.602  0.00  0.00    +0.180 C 
ATOM      2  C   LIG    1       -2.748   2.071   3.438  0.00  0.00    +0.250 C 
ATOM      3  N   LIG    1       -2.958   0.702   2.933  0.00  0.00    -0.590 N 
ATOM      4  C   LIG    1       -1.670   0.289   2.329  0.00  0.00    +0.260 C 
ATOM      5  C   LIG    1       -4.091  -0.026   3.005  0.00  0.00    +0.630 C 
ATOM      6  O   LIG    1       -5.081   0.443   3.532  0.00  0.00    -0.500 OA
ATOM      7  C   LIG    1       -1.180   1.578   1.623  0.00  0.00    +0.140 C 
ENDROOT
BRANCH   5   8
ATOM      8  C   LIG    1       -4.128  -1.392   2.444  0.00  0.00    -0.050 A 
ATOM      9  N   LIG    1       -3.129  -2.014   1.844  0.00  0.00    -0.200 NA
ATOM     10  N   LIG    1       -3.511  -3.189   1.484  0.00  0.00    -0.160 N 
ATOM     11  N   LIG    1       -4.850  -3.364   1.857  0.00  0.00    -0.270 NA
ATOM     12  C   LIG    1       -5.236  -2.259   2.450  0.00  0.00    +0.100 A 
ATOM     13  C   LIG    1       -6.599  -1.973   3.025  0.00  0.00    +0.190 C 
BRANCH  10  14
ATOM     14  C   LIG    1       -2.718  -4.136   0.822  0.00  0.00    +0.130 A 
ATOM     15  C   LIG    1       -1.959  -3.760  -0.278  0.00  0.00    +0.040 A 
ATOM     16  C   LIG    1       -1.174  -4.695  -0.925  0.00  0.00    +0.030 A 
ATOM     17  C   LIG    1       -1.154  -6.006  -0.486  0.00  0.00    -0.060 A 
ATOM     18  C   LIG    1       -1.914  -6.384   0.606  0.00  0.00    +0.030 A 
ATOM     19  C   LIG    1       -0.301  -7.024  -1.198  0.00  0.00    +0.100 C 
ATOM     20  C   LIG    1       -2.696  -5.453   1.260  0.00  0.00    -0.050 A 
ATOM     21  C   LIG    1       -3.524  -5.867   2.450  0.00  0.00    +0.100 C 
ENDBRANCH  10  14
ENDBRANCH   5   8
BRANCH   1  23
ATOM     22  C   LIG    1       -1.088   4.800   1.587  0.00  0.00    +0.200 C 
ATOM     23  O   LIG    1       -2.095   3.828   1.879  0.00  0.00    -0.360 OA
ENDBRANCH   1  23
BRANCH   7  24
ATOM     24  O   LIG    1       -1.824   1.737   0.357  0.00  0.00    -0.350 OA
ATOM     25  C   LIG    1       -1.058   1.255  -0.749  0.00  0.00    +0.200 C 
ENDBRANCH   7  24
BRANCH   2  26
ATOM     26  C   LIG    1       -2.345   2.027   4.913  0.00  0.00    +0.180 C 
BRANCH  26  27
ATOM     27  O   LIG    1       -3.445   1.558   5.694  0.00  0.00    -0.550 OA
ATOM     28  H   LIG    1       -3.260   1.504   6.642  0.00  0.00    +0.380 HD
ENDBRANCH  26  27
ENDBRANCH   2  26
TORSDOF 6
