REMARK  Name = ZINCvU00000007pm.0
REMARK                            x       y       z     vdW  Elec       q    Type
REMARK                         _______ _______ _______ _____ _____    ______ ____
ROOT
ATOM      1  N   LIG    1       -0.524   1.433  -3.689  0.00  0.00    -0.620 N 
ATOM      2  H   LIG    1       -1.321   1.980  -3.768  0.00  0.00    +0.430 HD
ATOM      3  C   LIG    1       -0.047   1.107  -2.471  0.00  0.00    +0.520 C 
ATOM      4  O   LIG    1        0.949   0.422  -2.373  0.00  0.00    -0.500 OA
ENDROOT
BRANCH   1   8
ATOM      5  C   LIG    1        0.503   0.723  -7.021  0.00  0.00    +0.130 A 
ATOM      6  C   LIG    1        1.561  -0.002  -6.615  0.00  0.00    -0.250 A 
ATOM      7  S   LIG    1        1.582  -0.006  -4.853  0.00  0.00    +0.200 S 
ATOM      8  C   LIG    1        0.127   0.984  -4.832  0.00  0.00    +0.270 A 
ATOM      9  C   LIG    1        2.558  -0.688  -7.513  0.00  0.00    +0.150 C 
ATOM     10  N   LIG    1       -0.241   1.235  -6.051  0.00  0.00    -0.490 NA
BRANCH   5  14
ATOM     11  C   LIG    1       -0.392   1.333 -11.134  0.00  0.00    +0.130 A 
ATOM     12  C   LIG    1       -1.422   1.204 -10.213  0.00  0.00    -0.020 A 
ATOM     13  C   LIG    1       -1.135   1.006  -8.878  0.00  0.00    +0.080 A 
ATOM     14  C   LIG    1        0.191   0.936  -8.455  0.00  0.00    -0.060 A 
ATOM     15  C   LIG    1        1.224   1.071  -9.382  0.00  0.00    +0.070 A 
ATOM     16  C   LIG    1        0.930   1.263 -10.716  0.00  0.00    -0.080 A 
BRANCH  11  18
ATOM     17  C   LIG    1        0.430   1.652 -13.342  0.00  0.00    +0.250 C 
ATOM     18  O   LIG    1       -0.678   1.528 -12.449  0.00  0.00    -0.320 OA
ENDBRANCH  11  18
ENDBRANCH   5  14
ENDBRANCH   1   8
BRANCH   3  19
ATOM     19  C   LIG    1       -0.753   1.593  -1.232  0.00  0.00    +0.100 C 
BRANCH  19  20
ATOM     20  C   LIG    1       -0.013   1.086   0.008  0.00  0.00    +0.220 C 
BRANCH  20  21
ATOM     21  C   LIG    1       -0.718   1.572   1.248  0.00  0.00    +0.190 A 
ATOM     22  N   LIG    1       -1.677   0.944   1.868  0.00  0.00    -0.470 NA
ATOM     23  C   LIG    1       -2.058   1.671   2.929  0.00  0.00    +0.190 A 
ATOM     24  C   LIG    1       -1.300   2.797   2.946  0.00  0.00    -0.010 A 
ATOM     25  O   LIG    1       -0.464   2.722   1.887  0.00  0.00    -0.190 OA
BRANCH  24  26
ATOM     26  C   LIG    1       -1.374   3.894   3.933  0.00  0.00    -0.060 A 
ATOM     27  C   LIG    1       -0.215   4.354   4.559  0.00  0.00    +0.080 A 
ATOM     28  C   LIG    1       -0.290   5.382   5.476  0.00  0.00    +0.010 A 
ATOM     29  C   LIG    1       -1.513   5.951   5.786  0.00  0.00    +0.060 A 
ATOM     30  C   LIG    1       -2.668   5.498   5.174  0.00  0.00    -0.010 A 
ATOM     31  C   LIG    1       -2.607   4.473   4.250  0.00  0.00    +0.130 A 
ATOM     32  F   LIG    1       -3.736   4.030   3.653  0.00  0.00    -0.130 F 
ENDBRANCH  24  26
ENDBRANCH  20  21
ENDBRANCH  19  20
ENDBRANCH   3  19
TORSDOF 7
