REMARK  Name = ZINCrH000004ssMS.0
REMARK                            x       y       z     vdW  Elec       q    Type
REMARK                         _______ _______ _______ _____ _____    ______ ____
ROOT
ATOM      1  C   LIG    1        6.459   5.649  -3.241  0.00  0.00    +0.160 A 
ATOM      2  C   LIG    1        6.290   6.112  -1.942  0.00  0.00    -0.010 A 
ATOM      3  C   LIG    1        5.488   5.421  -1.061  0.00  0.00    +0.130 A 
ATOM      4  C   LIG    1        4.843   4.253  -1.476  0.00  0.00    -0.180 A 
ATOM      5  C   LIG    1        5.021   3.787  -2.781  0.00  0.00    +0.090 A 
ATOM      6  C   LIG    1        5.820   4.487  -3.657  0.00  0.00    -0.080 A 
ENDROOT
BRANCH   4   7
ATOM      7  C   LIG    1        3.983   3.509  -0.535  0.00  0.00    +0.560 C 
ATOM      8  N   LIG    1        3.361   2.382  -0.937  0.00  0.00    -0.720 N 
ATOM      9  H   LIG    1        3.480   2.060  -1.845  0.00  0.00    +0.400 HD
ATOM     10  O   LIG    1        3.834   3.913   0.602  0.00  0.00    -0.530 OA
BRANCH   8  11
ATOM     11  C   LIG    1        2.507   1.644  -0.004  0.00  0.00    +0.290 C 
ATOM     12  C   LIG    1        2.438   0.180  -0.434  0.00  0.00    +0.020 C 
ATOM     13  C   LIG    1        1.376  -0.525   0.418  0.00  0.00    +0.030 C 
ATOM     14  C   LIG    1        0.002  -0.004   0.002  0.00  0.00    +0.080 C 
ATOM     15  C   LIG    1       -0.018   1.502   0.010  0.00  0.00    -0.070 A 
ATOM     16  C   LIG    1       -1.256   2.132   0.019  0.00  0.00    -0.010 A 
ATOM     17  C   LIG    1       -1.342   3.509   0.029  0.00  0.00    +0.010 A 
ATOM     18  C   LIG    1       -0.187   4.269   0.018  0.00  0.00    -0.010 A 
ATOM     19  C   LIG    1        1.043   3.645   0.006  0.00  0.00    +0.020 A 
ATOM     20  C   LIG    1        1.132   2.259   0.003  0.00  0.00    -0.100 A 
ENDBRANCH   8  11
ENDBRANCH   4   7
BRANCH   1  21
ATOM     21  O   LIG    1        7.251   6.333  -4.106  0.00  0.00    -0.300 OA
BRANCH  21  22
ATOM     22  C   LIG    1        7.381   5.801  -5.426  0.00  0.00    +0.360 C 
BRANCH  22  26
ATOM     23  C   LIG    1        9.144   9.396  -8.433  0.00  0.00    +0.260 C 
ATOM     24  C   LIG    1        9.022   8.211  -7.510  0.00  0.00    +0.190 A 
ATOM     25  N   LIG    1        7.916   7.737  -6.989  0.00  0.00    -0.470 NA
ATOM     26  C   LIG    1        8.290   6.687  -6.237  0.00  0.00    +0.160 A 
ATOM     27  N   LIG    1        9.581   6.574  -6.343  0.00  0.00    -0.360 NA
ATOM     28  O   LIG    1       10.020   7.439  -7.069  0.00  0.00    +0.090 OA
ENDBRANCH  22  26
ENDBRANCH  21  22
ENDBRANCH   1  21
TORSDOF 5
