REMARK  Name = ZINCvU0000000IVk.0
REMARK                            x       y       z     vdW  Elec       q    Type
REMARK                         _______ _______ _______ _____ _____    ______ ____
ROOT
ATOM      1  C   LIG    1       -3.913   1.942   7.777  0.00  0.00    -0.220 A 
ATOM      2  C   LIG    1       -3.892   0.560   7.798  0.00  0.00    +0.290 A 
ATOM      3  N   LIG    1       -4.413   0.157   8.971  0.00  0.00    -0.300 N 
ATOM      4  N   LIG    1       -4.782   1.271   9.730  0.00  0.00    -0.260 NA
ATOM      5  C   LIG    1       -4.496   2.366   9.058  0.00  0.00    +0.190 A 
ENDROOT
BRANCH   3   6
ATOM      6  C   LIG    1       -4.565  -1.177   9.370  0.00  0.00    +0.150 A 
ATOM      7  C   LIG    1       -4.167  -2.205   8.527  0.00  0.00    -0.010 A 
ATOM      8  C   LIG    1       -4.312  -3.519   8.925  0.00  0.00    +0.050 A 
ATOM      9  C   LIG    1       -4.865  -3.812  10.159  0.00  0.00    +0.010 A 
ATOM     10  C   LIG    1       -5.267  -2.790  11.000  0.00  0.00    +0.050 A 
ATOM     11  C   LIG    1       -5.118  -1.474  10.609  0.00  0.00    +0.030 A 
ENDBRANCH   3   6
BRANCH   5  12
ATOM     12  C   LIG    1       -4.721   3.755   9.504  0.00  0.00    -0.140 A 
ATOM     13  C   LIG    1       -5.760   4.172  10.257  0.00  0.00    +0.060 A 
ATOM     14  C   LIG    1       -5.755   5.520  10.548  0.00  0.00    +0.010 A 
ATOM     15  C   LIG    1       -4.725   6.205  10.041  0.00  0.00    -0.030 A 
ATOM     16  S   LIG    1       -3.674   5.120   9.142  0.00  0.00    +0.160 S 
ENDBRANCH   5  12
BRANCH   1  18
ATOM     17  C   LIG    1       -2.921   2.270   5.569  0.00  0.00    -0.090 C 
ATOM     18  C   LIG    1       -3.442   2.812   6.695  0.00  0.00    +0.210 C 
BRANCH  17  19
ATOM     19  C   LIG    1       -2.467   3.110   4.526  0.00  0.00    +0.510 C 
ATOM     20  O   LIG    1       -2.545   4.319   4.639  0.00  0.00    -0.500 OA
BRANCH  19  21
ATOM     21  O   LIG    1       -1.946   2.570   3.403  0.00  0.00    -0.290 OA
BRANCH  21  27
ATOM     22  C   LIG    1       -0.127   3.906   2.640  0.00  0.00    +0.110 A 
ATOM     23  C   LIG    1        0.407   4.765   1.701  0.00  0.00    +0.010 A 
ATOM     24  C   LIG    1       -0.348   5.128   0.579  0.00  0.00    -0.150 A 
ATOM     25  C   LIG    1       -1.645   4.626   0.421  0.00  0.00    +0.060 A 
ATOM     26  C   LIG    1       -2.173   3.774   1.366  0.00  0.00    +0.050 A 
ATOM     27  C   LIG    1       -1.421   3.410   2.476  0.00  0.00    +0.090 A 
BRANCH  22  29
ATOM     28  C   LIG    1        1.922   4.093   3.832  0.00  0.00    +0.250 C 
ATOM     29  O   LIG    1        0.605   3.548   3.728  0.00  0.00    -0.310 OA
ENDBRANCH  22  29
BRANCH  24  30
ATOM     30  C   LIG    1        0.217   6.037  -0.427  0.00  0.00    +0.490 C 
ATOM     31  O   LIG    1        1.341   6.471  -0.289  0.00  0.00    -0.450 OA
ENDBRANCH  24  30
ENDBRANCH  21  27
ENDBRANCH  19  21
ENDBRANCH  17  19
ENDBRANCH   1  18
TORSDOF 8
