REMARK  Name = ZINCrD00000l1MzR.1
REMARK                            x       y       z     vdW  Elec       q    Type
REMARK                         _______ _______ _______ _____ _____    ______ ____
ROOT
ATOM      1  C   LIG    1       -0.014   1.212   0.009  0.00  0.00    +0.590 C 
ATOM      2  N   LIG    1        1.172   1.848   0.074  0.00  0.00    -0.620 N 
ATOM      3  C   LIG    1        1.364   3.306   0.047  0.00  0.00    +0.250 C 
ATOM      4  C   LIG    1        2.879   3.570   0.174  0.00  0.00    +0.060 C 
ATOM      5  C   LIG    1        3.408   2.265   0.827  0.00  0.00    +0.050 C 
ATOM      6  C   LIG    1        2.491   1.199   0.177  0.00  0.00    +0.280 C 
ATOM      7  O   LIG    1       -0.050  -0.002  -0.056  0.00  0.00    -0.520 OA
ENDROOT
BRANCH   1  12
ATOM      8  C   LIG    1       -4.189   5.489  -0.090  0.00  0.00    +0.040 A 
ATOM      9  C   LIG    1       -2.851   5.473  -0.142  0.00  0.00    +0.000 A 
ATOM     10  C   LIG    1       -2.458   4.060  -0.071  0.00  0.00    -0.190 A 
ATOM     11  C   LIG    1       -1.243   3.383  -0.077  0.00  0.00    +0.150 A 
ATOM     12  C   LIG    1       -1.271   1.988   0.010  0.00  0.00    -0.210 A 
ATOM     13  C   LIG    1       -2.507   1.338   0.093  0.00  0.00    +0.400 A 
ATOM     14  N   LIG    1       -3.635   2.012   0.102  0.00  0.00    -0.470 NA
ATOM     15  C   LIG    1       -3.662   3.336   0.021  0.00  0.00    +0.280 A 
ATOM     16  O   LIG    1       -4.665   4.235   0.006  0.00  0.00    -0.180 OA
BRANCH   8  17
ATOM     17  C   LIG    1       -5.038   6.733  -0.133  0.00  0.00    +0.300 C 
BRANCH  17  18
ATOM     18  N   LIG    1       -5.369   7.051  -1.529  0.00  0.00    -0.850 NA
ATOM     19  H   LIG    1       -5.939   7.882  -1.585  0.00  0.00    +0.360 HD
ATOM     20  H   LIG    1       -5.823   6.271  -1.980  0.00  0.00    +0.350 HD
ENDBRANCH  17  18
ENDBRANCH   8  17
ENDBRANCH   1  12
BRANCH   5  21
ATOM     21  C   LIG    1        4.852   2.028   0.466  0.00  0.00    -0.030 A 
ATOM     22  C   LIG    1        5.238   2.010  -0.861  0.00  0.00    +0.030 A 
ATOM     23  C   LIG    1        6.565   1.796  -1.194  0.00  0.00    +0.110 A 
ATOM     24  C   LIG    1        7.504   1.591  -0.196  0.00  0.00    +0.030 A 
ATOM     25  C   LIG    1        7.114   1.604   1.134  0.00  0.00    +0.100 A 
ATOM     26  F   LIG    1        8.028   1.403   2.109  0.00  0.00    -0.120 F 
ATOM     27  F   LIG    1        8.799   1.378  -0.519  0.00  0.00    -0.110 F 
ATOM     28  F   LIG    1        6.943   1.783  -2.491  0.00  0.00    -0.120 F 
ATOM     29  C   LIG    1        5.787   1.823   1.463  0.00  0.00    +0.030 A 
ENDBRANCH   5  21
TORSDOF 4
