REMARK  Name = ZINCvU000000097G.0
REMARK                            x       y       z     vdW  Elec       q    Type
REMARK                         _______ _______ _______ _____ _____    ______ ____
ROOT
ATOM      1  C   LIG    1        8.277  -1.032  -1.057  0.00  0.00    +0.580 C 
ATOM      2  N   LIG    1        8.852  -2.238  -1.229  0.00  0.00    -0.460 N 
ATOM      3  N   LIG    1        8.199  -3.466  -1.149  0.00  0.00    -0.220 NA
ATOM      4  C   LIG    1        8.965  -4.485  -1.356  0.00  0.00    +0.180 C 
ATOM      5  C   LIG    1       10.377  -4.009  -1.616  0.00  0.00    +0.100 C 
ATOM      6  C   LIG    1       10.275  -2.474  -1.524  0.00  0.00    +0.310 C 
ATOM      7  O   LIG    1        8.946  -0.023  -1.144  0.00  0.00    -0.490 OA
ENDROOT
BRANCH   4   8
ATOM      8  C   LIG    1        8.535  -5.886  -1.335  0.00  0.00    +0.020 A 
ATOM      9  C   LIG    1        7.267  -6.332  -1.097  0.00  0.00    +0.030 A 
ATOM     10  C   LIG    1        7.310  -7.736  -1.177  0.00  0.00    -0.060 A 
ATOM     11  C   LIG    1        8.586  -8.079  -1.447  0.00  0.00    +0.200 A 
ATOM     12  O   LIG    1        9.323  -6.960  -1.542  0.00  0.00    -0.160 OA
ENDBRANCH   4   8
BRANCH   6  13
ATOM     13  C   LIG    1       10.657  -1.835  -2.834  0.00  0.00    -0.200 A 
ATOM     14  C   LIG    1       11.812  -1.213  -3.078  0.00  0.00    +0.030 A 
ATOM     15  C   LIG    1       11.941  -0.704  -4.359  0.00  0.00    +0.000 A 
ATOM     16  C   LIG    1       10.888  -0.906  -5.152  0.00  0.00    -0.030 A 
ATOM     17  S   LIG    1        9.646  -1.787  -4.272  0.00  0.00    +0.110 S 
ENDBRANCH   6  13
BRANCH   1  18
ATOM     18  C   LIG    1        6.803  -0.935  -0.758  0.00  0.00    +0.140 C 
BRANCH  18  19
ATOM     19  S   LIG    1        6.335   0.804  -0.584  0.00  0.00    +0.050 S 
BRANCH  19  25
ATOM     20  C   LIG    1        4.051   3.077  -0.020  0.00  0.00    +0.330 C 
ATOM     21  N   LIG    1        3.740   1.645  -0.025  0.00  0.00    -0.440 N 
ATOM     22  C   LIG    1        2.500   1.070   0.196  0.00  0.00    +0.020 A 
ATOM     23  C   LIG    1        2.674  -0.275   0.103  0.00  0.00    +0.190 A 
ATOM     24  N   LIG    1        3.963  -0.512  -0.171  0.00  0.00    -0.480 NA
ATOM     25  C   LIG    1        4.615   0.626  -0.248  0.00  0.00    +0.180 A 
BRANCH  22  26
ATOM     26  C   LIG    1        1.236   1.779   0.482  0.00  0.00    -0.010 A 
ATOM     27  C   LIG    1        1.260   3.092   0.958  0.00  0.00    -0.010 A 
ATOM     28  C   LIG    1        0.077   3.746   1.229  0.00  0.00    +0.020 A 
ATOM     29  C   LIG    1       -1.133   3.108   1.020  0.00  0.00    +0.010 A 
ATOM     30  C   LIG    1       -1.165   1.808   0.548  0.00  0.00    +0.020 A 
ATOM     31  C   LIG    1        0.012   1.140   0.278  0.00  0.00    +0.030 A 
ENDBRANCH  22  26
ENDBRANCH  19  25
ENDBRANCH  18  19
ENDBRANCH   1  18
TORSDOF 6
