REMARK  Name = ZINCtV000002FSYS.0
REMARK                            x       y       z     vdW  Elec       q    Type
REMARK                         _______ _______ _______ _____ _____    ______ ____
ROOT
ATOM      1  C   LIG    1        2.434   6.048  -1.338  0.00  0.00    +0.130 C 
ATOM      2  C   LIG    1        2.140   4.586  -1.122  0.00  0.00    +0.020 A 
ATOM      3  C   LIG    1        0.929   4.065  -0.863  0.00  0.00    +0.000 A 
ATOM      4  C   LIG    1        1.122   2.615  -0.724  0.00  0.00    -0.260 A 
ATOM      5  C   LIG    1        2.471   2.391  -0.927  0.00  0.00    +0.130 A 
ATOM      6  C   LIG    1        3.161   1.051  -0.890  0.00  0.00    +0.150 C 
ATOM      7  N   LIG    1        3.063   3.578  -1.162  0.00  0.00    -0.390 N 
ENDROOT
BRANCH   7   8
ATOM      8  C   LIG    1        4.431   3.755  -1.414  0.00  0.00    +0.080 A 
ATOM      9  C   LIG    1        5.362   3.469  -0.424  0.00  0.00    +0.070 A 
ATOM     10  C   LIG    1        6.709   3.639  -0.673  0.00  0.00    -0.040 A 
ATOM     11  C   LIG    1        7.133   4.104  -1.909  0.00  0.00    +0.120 A 
ATOM     12  C   LIG    1        6.203   4.395  -2.897  0.00  0.00    +0.030 A 
ATOM     13  C   LIG    1        4.856   4.221  -2.651  0.00  0.00    +0.070 A 
BRANCH  11  14
ATOM     14  O   LIG    1        8.459   4.277  -2.153  0.00  0.00    -0.320 OA
BRANCH  14  15
ATOM     15  C   LIG    1        9.360   3.958  -1.091  0.00  0.00    +0.600 C 
ATOM     16  F   LIG    1        9.213   2.611  -0.744  0.00  0.00    -0.200 F 
ATOM     17  F   LIG    1        9.074   4.759   0.020  0.00  0.00    -0.200 F 
ENDBRANCH  14  15
ENDBRANCH  11  14
ENDBRANCH   7   8
BRANCH   4  18
ATOM     18  C   LIG    1        0.095   1.612  -0.437  0.00  0.00    +0.450 C 
ATOM     19  O   LIG    1        0.398   0.440  -0.355  0.00  0.00    -0.450 OA
BRANCH  18  20
ATOM     20  C   LIG    1       -1.339   2.034  -0.249  0.00  0.00    -0.010 C 
ATOM     21  C   LIG    1       -1.561   2.456   1.205  0.00  0.00    +0.070 C 
BRANCH  20  22
ATOM     22  S   LIG    1       -2.436   0.646  -0.650  0.00  0.00    -0.090 S 
BRANCH  22  23
ATOM     23  C   LIG    1       -4.038   1.378  -0.594  0.00  0.00    -0.130 A 
ATOM     24  C   LIG    1       -4.793   1.312   0.572  0.00  0.00    +0.080 A 
ATOM     25  C   LIG    1       -6.046   1.890   0.614  0.00  0.00    +0.020 A 
ATOM     26  C   LIG    1       -6.555   2.526  -0.505  0.00  0.00    -0.010 A 
ATOM     27  C   LIG    1       -5.808   2.589  -1.668  0.00  0.00    +0.020 A 
ATOM     28 CL   LIG    1       -8.134   3.245  -0.449  0.00  0.00    -0.060 Cl
ATOM     29  C   LIG    1       -4.552   2.017  -1.716  0.00  0.00    +0.080 A 
ENDBRANCH  22  23
ENDBRANCH  20  22
ENDBRANCH  18  20
ENDBRANCH   4  18
TORSDOF 7
