REMARK  Name = ZINCpk00000y6xWx.1
REMARK                            x       y       z     vdW  Elec       q    Type
REMARK                         _______ _______ _______ _____ _____    ______ ____
ROOT
ATOM      1  C   LIG    1       -0.341   1.569  -0.975  0.00  0.00    +0.110 C 
ATOM      2  C   LIG    1       -0.229   0.067  -0.652  0.00  0.00    +0.290 C 
ATOM      3  N   LIG    1        1.208  -0.241  -0.521  0.00  0.00    -0.610 N 
ATOM      4  C   LIG    1        1.863   1.030  -0.134  0.00  0.00    +0.280 C 
ATOM      5  C   LIG    1        1.803  -1.434  -0.715  0.00  0.00    +0.510 C 
ATOM      6  O   LIG    1        3.011  -1.526  -0.660  0.00  0.00    -0.530 OA
ATOM      7  C   LIG    1        1.115   2.088  -0.983  0.00  0.00    +0.030 C 
ENDROOT
BRANCH   1  10
ATOM      8  C   LIG    1       -2.364   2.428  -3.846  0.00  0.00    +0.300 A 
ATOM      9  N   LIG    1       -2.093   2.452  -2.566  0.00  0.00    -0.530 NA
ATOM     10  C   LIG    1       -0.975   1.767  -2.328  0.00  0.00    +0.240 A 
ATOM     11  N   LIG    1       -0.514   1.300  -3.458  0.00  0.00    -0.310 NA
ATOM     12  N   LIG    1       -1.407   1.713  -4.462  0.00  0.00    -0.480 N 
ATOM     13  H   LIG    1       -1.342   1.524  -5.411  0.00  0.00    +0.440 HD
BRANCH   8  15
ATOM     14  C   LIG    1       -3.131   3.596  -5.895  0.00  0.00    +0.040 C 
ATOM     15  C   LIG    1       -3.545   3.086  -4.513  0.00  0.00    +0.090 C 
ATOM     16  C   LIG    1       -4.678   2.068  -4.664  0.00  0.00    +0.050 C 
ENDBRANCH   8  15
ENDBRANCH   1  10
BRANCH   5  17
ATOM     17  C   LIG    1        0.967  -2.656  -0.999  0.00  0.00    +0.130 C 
ATOM     18  C   LIG    1        1.744  -3.913  -0.598  0.00  0.00    -0.000 C 
ATOM     19  C   LIG    1        0.922  -5.151  -0.965  0.00  0.00    +0.230 C 
ATOM     20  O   LIG    1        0.632  -5.134  -2.364  0.00  0.00    -0.380 OA
ATOM     21  C   LIG    1       -0.134  -4.004  -2.787  0.00  0.00    +0.230 C 
ATOM     22  C   LIG    1        0.647  -2.721  -2.495  0.00  0.00    +0.040 C 
BRANCH  17  23
ATOM     23  O   LIG    1       -0.249  -2.587  -0.252  0.00  0.00    -0.540 OA
ATOM     24  H   LIG    1       -0.125  -2.628   0.706  0.00  0.00    +0.380 HD
ENDBRANCH  17  23
ENDBRANCH   5  17
BRANCH   7  25
ATOM     25  C   LIG    1        1.202   3.468  -0.328  0.00  0.00    -0.040 C 
ATOM     26  C   LIG    1        1.526   4.660  -1.232  0.00  0.00    +0.020 C 
ATOM     27  C   LIG    1        2.579   4.130  -0.255  0.00  0.00    +0.010 C 
ENDBRANCH   7  25
TORSDOF 5
