REMARK  Name = ZINCpk00000y6xWx.0
REMARK                            x       y       z     vdW  Elec       q    Type
REMARK                         _______ _______ _______ _____ _____    ______ ____
ROOT
ATOM      1  C   LIG    1       -1.554   2.523   2.595  0.00  0.00    +0.110 C 
ATOM      2  C   LIG    1       -2.766   1.801   3.240  0.00  0.00    +0.270 C 
ATOM      3  N   LIG    1       -3.066   0.714   2.280  0.00  0.00    -0.610 N 
ATOM      4  C   LIG    1       -2.877   1.295   0.938  0.00  0.00    +0.270 C 
ATOM      5  C   LIG    1       -3.436  -0.549   2.573  0.00  0.00    +0.510 C 
ATOM      6  O   LIG    1       -3.745  -1.312   1.683  0.00  0.00    -0.520 OA
ATOM      7  C   LIG    1       -1.883   2.462   1.086  0.00  0.00    +0.030 C 
ENDROOT
BRANCH   1  11
ATOM      8  C   LIG    1       -1.967   5.928   3.796  0.00  0.00    +0.190 A 
ATOM      9  N   LIG    1       -0.679   5.843   3.603  0.00  0.00    -0.290 NA
ATOM     10  N   LIG    1       -0.382   4.667   3.174  0.00  0.00    -0.280 NA
ATOM     11  C   LIG    1       -1.468   3.952   3.066  0.00  0.00    +0.190 A 
ATOM     12  N   LIG    1       -2.505   4.730   3.462  0.00  0.00    -0.580 N 
ATOM     13  H   LIG    1       -3.441   4.481   3.497  0.00  0.00    +0.420 HD
BRANCH   8  15
ATOM     14  C   LIG    1       -3.251   7.935   3.110  0.00  0.00    +0.040 C 
ATOM     15  C   LIG    1       -2.716   7.134   4.299  0.00  0.00    +0.100 C 
ATOM     16  C   LIG    1       -3.885   6.680   5.175  0.00  0.00    +0.040 C 
ENDBRANCH   8  15
ENDBRANCH   1  11
BRANCH   5  17
ATOM     17  C   LIG    1       -3.465  -1.012   4.007  0.00  0.00    +0.130 C 
ATOM     18  C   LIG    1       -3.457  -2.543   4.051  0.00  0.00    -0.000 C 
ATOM     19  C   LIG    1       -3.568  -3.004   5.507  0.00  0.00    +0.230 C 
ATOM     20  O   LIG    1       -4.758  -2.466   6.087  0.00  0.00    -0.380 OA
ATOM     21  C   LIG    1       -4.798  -1.038   6.117  0.00  0.00    +0.230 C 
ATOM     22  C   LIG    1       -4.738  -0.497   4.685  0.00  0.00    +0.030 C 
BRANCH  17  23
ATOM     23  O   LIG    1       -2.319  -0.507   4.695  0.00  0.00    -0.540 OA
ATOM     24  H   LIG    1       -1.476  -0.816   4.335  0.00  0.00    +0.390 HD
ENDBRANCH  17  23
ENDBRANCH   5  17
BRANCH   7  25
ATOM     25  C   LIG    1       -0.615   2.187   0.276  0.00  0.00    -0.040 C 
ATOM     26  C   LIG    1       -0.325   3.102  -0.916  0.00  0.00    +0.010 C 
ATOM     27  C   LIG    1        0.514   3.217   0.358  0.00  0.00    +0.040 C 
ENDBRANCH   7  25
TORSDOF 5
