REMARK  Name = ZINCrH000004sYWq.0
REMARK                            x       y       z     vdW  Elec       q    Type
REMARK                         _______ _______ _______ _____ _____    ______ ____
ROOT
ATOM      1  C   LIG    1        2.549   1.147   0.945  0.00  0.00    +0.560 C 
ATOM      2  N   LIG    1        3.754   1.750   0.922  0.00  0.00    -0.650 N 
ATOM      3  H   LIG    1        3.835   2.682   1.178  0.00  0.00    +0.420 HD
ATOM      4  O   LIG    1        2.429   0.012   0.527  0.00  0.00    -0.520 OA
ENDROOT
BRANCH   1   8
ATOM      5  C   LIG    1       -0.832   3.214   2.479  0.00  0.00    +0.050 A 
ATOM      6  C   LIG    1       -0.971   1.913   1.994  0.00  0.00    +0.000 A 
ATOM      7  C   LIG    1        0.124   1.241   1.502  0.00  0.00    +0.100 A 
ATOM      8  C   LIG    1        1.374   1.865   1.477  0.00  0.00    -0.150 A 
ATOM      9  C   LIG    1        1.511   3.171   1.958  0.00  0.00    +0.060 A 
ATOM     10  C   LIG    1        0.416   3.839   2.454  0.00  0.00    +0.000 A 
BRANCH   5  14
ATOM     11  C   LIG    1       -5.490   4.316   3.911  0.00  0.00    +0.360 C 
ATOM     12  N   LIG    1       -4.054   4.414   3.640  0.00  0.00    -0.370 N 
ATOM     13  C   LIG    1       -3.286   3.452   3.093  0.00  0.00    +0.260 A 
ATOM     14  C   LIG    1       -2.011   3.935   3.014  0.00  0.00    -0.220 A 
ATOM     15  C   LIG    1       -2.023   5.247   3.528  0.00  0.00    +0.260 A 
ATOM     16  N   LIG    1       -3.244   5.526   3.900  0.00  0.00    -0.290 NA
ENDBRANCH   5  14
ENDBRANCH   1   8
BRANCH   2  17
ATOM     17  C   LIG    1        4.889   1.031   0.528  0.00  0.00    +0.110 A 
ATOM     18  C   LIG    1        4.875  -0.357   0.513  0.00  0.00    +0.080 A 
ATOM     19  C   LIG    1        6.022  -1.027   0.111  0.00  0.00    -0.020 A 
ATOM     20  C   LIG    1        7.139  -0.300  -0.250  0.00  0.00    +0.250 A 
ATOM     21  N   LIG    1        7.129   1.020  -0.222  0.00  0.00    -0.490 NA
ATOM     22  C   LIG    1        6.057   1.700   0.149  0.00  0.00    +0.270 A 
BRANCH  22  23
ATOM     23  N   LIG    1        6.091   3.091   0.163  0.00  0.00    -0.480 N 
ATOM     24  C   LIG    1        5.316   3.647  -0.953  0.00  0.00    +0.180 C 
ATOM     25  C   LIG    1        5.254   5.171  -0.824  0.00  0.00    +0.020 C 
ATOM     26  C   LIG    1        6.677   5.737  -0.835  0.00  0.00    +0.010 C 
ATOM     27  C   LIG    1        7.478   5.105   0.308  0.00  0.00    +0.020 C 
ATOM     28  C   LIG    1        7.474   3.583   0.145  0.00  0.00    +0.200 C 
ENDBRANCH  22  23
ENDBRANCH   2  17
TORSDOF 4
