REMARK  Name = ZINCqH0000004riY.0
REMARK                            x       y       z     vdW  Elec       q    Type
REMARK                         _______ _______ _______ _____ _____    ______ ____
ROOT
ATOM      1  C   LIG    1       -0.722   3.090   1.159  0.00  0.00    +0.000 C 
ENDROOT
BRANCH   1   2
ATOM      2  C   LIG    1       -1.448   3.654   2.353  0.00  0.00    +0.540 C 
ATOM      3  N   LIG    1       -2.795   3.677   2.373  0.00  0.00    -0.720 N 
ATOM      4  H   LIG    1       -3.297   3.331   1.619  0.00  0.00    +0.400 HD
ATOM      5  O   LIG    1       -0.820   4.087   3.296  0.00  0.00    -0.520 OA
BRANCH   3   6
ATOM      6  C   LIG    1       -3.501   4.225   3.534  0.00  0.00    +0.320 C 
BRANCH   6   7
ATOM      7  C   LIG    1       -4.988   4.135   3.306  0.00  0.00    -0.110 A 
ATOM      8  C   LIG    1       -5.660   5.181   2.701  0.00  0.00    +0.020 A 
ATOM      9  C   LIG    1       -7.023   5.095   2.488  0.00  0.00    +0.010 A 
ATOM     10  C   LIG    1       -7.716   3.969   2.889  0.00  0.00    +0.010 A 
ATOM     11  C   LIG    1       -7.045   2.925   3.499  0.00  0.00    +0.010 A 
ATOM     12  C   LIG    1       -5.681   3.008   3.708  0.00  0.00    +0.020 A 
ENDBRANCH   6   7
ENDBRANCH   3   6
ENDBRANCH   1   2
BRANCH   1  14
ATOM     13  C   LIG    1       -2.138   1.032   1.117  0.00  0.00    +0.030 C 
ATOM     14  C   LIG    1       -0.709   1.562   1.245  0.00  0.00    +0.060 C 
ENDBRANCH   1  14
BRANCH   1  15
ATOM     15  S   LIG    1        0.984   3.708   1.140  0.00  0.00    +0.110 S 
BRANCH  15  16
ATOM     16  C   LIG    1        1.585   3.167  -0.425  0.00  0.00    +0.200 A 
ATOM     17  N   LIG    1        0.926   2.413  -1.276  0.00  0.00    -0.310 NA
ATOM     18  N   LIG    1        1.763   2.221  -2.386  0.00  0.00    -0.470 N 
ATOM     19  H   LIG    1        1.562   1.708  -3.184  0.00  0.00    +0.440 HD
ATOM     20  C   LIG    1        2.907   2.893  -2.123  0.00  0.00    +0.340 A 
ATOM     21  N   LIG    1        2.780   3.461  -0.940  0.00  0.00    -0.490 NA
BRANCH  20  22
ATOM     22  C   LIG    1        4.088   2.980  -3.008  0.00  0.00    -0.080 A 
ATOM     23  C   LIG    1        4.090   2.328  -4.241  0.00  0.00    +0.060 A 
ATOM     24  C   LIG    1        5.192   2.419  -5.065  0.00  0.00    +0.010 A 
ATOM     25  C   LIG    1        6.301   3.144  -4.667  0.00  0.00    +0.080 A 
ATOM     26  C   LIG    1        6.311   3.789  -3.444  0.00  0.00    -0.010 A 
ATOM     27  C   LIG    1        5.211   3.712  -2.611  0.00  0.00    +0.160 A 
ATOM     28  F   LIG    1        5.221   4.342  -1.415  0.00  0.00    -0.110 F 
ENDBRANCH  20  22
ENDBRANCH  15  16
ENDBRANCH   1  15
TORSDOF 7
