REMARK  Name = ZINCqH0000004riY.1
REMARK                            x       y       z     vdW  Elec       q    Type
REMARK                         _______ _______ _______ _____ _____    ______ ____
ROOT
ATOM      1  C   LIG    1        0.603  -0.504  -1.313  0.00  0.00    +0.020 C 
ENDROOT
BRANCH   1   2
ATOM      2  C   LIG    1        0.464  -2.001  -1.209  0.00  0.00    +0.530 C 
ATOM      3  N   LIG    1        1.391  -2.718  -0.543  0.00  0.00    -0.720 N 
ATOM      4  H   LIG    1        2.147  -2.271  -0.131  0.00  0.00    +0.400 HD
ATOM      5  O   LIG    1       -0.481  -2.560  -1.724  0.00  0.00    -0.520 OA
BRANCH   3   6
ATOM      6  C   LIG    1        1.256  -4.173  -0.441  0.00  0.00    +0.320 C 
BRANCH   6   7
ATOM      7  C   LIG    1        2.413  -4.731   0.347  0.00  0.00    -0.110 A 
ATOM      8  C   LIG    1        3.569  -5.121  -0.303  0.00  0.00    +0.020 A 
ATOM      9  C   LIG    1        4.632  -5.628   0.420  0.00  0.00    +0.000 A 
ATOM     10  C   LIG    1        4.535  -5.754   1.794  0.00  0.00    +0.010 A 
ATOM     11  C   LIG    1        3.378  -5.370   2.443  0.00  0.00    +0.000 A 
ATOM     12  C   LIG    1        2.317  -4.858   1.720  0.00  0.00    +0.020 A 
ENDBRANCH   6   7
ENDBRANCH   3   6
ENDBRANCH   1   2
BRANCH   1  14
ATOM     13  C   LIG    1        0.386   1.651  -0.067  0.00  0.00    +0.040 C 
ATOM     14  C   LIG    1        0.117   0.145  -0.016  0.00  0.00    +0.070 C 
ENDBRANCH   1  14
BRANCH   1  15
ATOM     15  S   LIG    1       -0.394   0.099  -2.699  0.00  0.00    +0.080 S 
BRANCH  15  16
ATOM     16  C   LIG    1        0.502  -0.598  -4.047  0.00  0.00    +0.260 A 
ATOM     17  N   LIG    1        1.641  -1.251  -3.962  0.00  0.00    -0.530 NA
ATOM     18  C   LIG    1        2.030  -1.638  -5.185  0.00  0.00    +0.270 A 
ATOM     19  N   LIG    1        1.144  -1.227  -6.064  0.00  0.00    -0.280 NA
ATOM     20  N   LIG    1        0.143  -0.549  -5.349  0.00  0.00    -0.460 N 
ATOM     21  H   LIG    1       -0.649  -0.129  -5.717  0.00  0.00    +0.450 HD
BRANCH  18  22
ATOM     22  C   LIG    1        3.263  -2.403  -5.496  0.00  0.00    -0.050 A 
ATOM     23  C   LIG    1        4.129  -2.779  -4.473  0.00  0.00    +0.090 A 
ATOM     24  C   LIG    1        5.272  -3.495  -4.767  0.00  0.00    +0.000 A 
ATOM     25  C   LIG    1        5.565  -3.830  -6.077  0.00  0.00    +0.070 A 
ATOM     26  C   LIG    1        4.712  -3.456  -7.099  0.00  0.00    -0.020 A 
ATOM     27  C   LIG    1        3.561  -2.744  -6.816  0.00  0.00    +0.130 A 
ATOM     28  F   LIG    1        2.729  -2.378  -7.815  0.00  0.00    -0.120 F 
ENDBRANCH  18  22
ENDBRANCH  15  16
ENDBRANCH   1  15
TORSDOF 7
