REMARK  Name = ZINCpe00000VVH1I.0
REMARK                            x       y       z     vdW  Elec       q    Type
REMARK                         _______ _______ _______ _____ _____    ______ ____
ROOT
ATOM      1  C   LIG    1       -2.479  -0.499   2.085  0.00  0.00    +0.290 C 
ATOM      2  N   LIG    1       -2.925   0.719   1.403  0.00  0.00    -0.620 N 
ATOM      3  C   LIG    1       -3.713   1.602   2.046  0.00  0.00    +0.710 C 
ATOM      4  N   LIG    1       -4.092   1.365   3.318  0.00  0.00    -0.660 N 
ATOM      5  H   LIG    1       -3.797   0.559   3.770  0.00  0.00    +0.400 HD
ATOM      6  O   LIG    1       -4.083   2.612   1.480  0.00  0.00    -0.570 OA
ENDROOT
BRANCH   4   7
ATOM      7  C   LIG    1       -4.916   2.288   3.990  0.00  0.00    +0.030 A 
ATOM      8  C   LIG    1       -5.370   2.175   5.265  0.00  0.00    +0.190 A 
ATOM      9  N   LIG    1       -6.129   3.270   5.529  0.00  0.00    -0.370 N 
ATOM     10  N   LIG    1       -6.138   4.074   4.382  0.00  0.00    -0.260 NA
ATOM     11  C   LIG    1       -5.410   3.491   3.464  0.00  0.00    +0.260 A 
BRANCH   9  12
ATOM     12  C   LIG    1       -6.816   3.559   6.790  0.00  0.00    +0.370 C 
BRANCH  12  13
ATOM     13  C   LIG    1       -6.392   4.915   7.293  0.00  0.00    +0.500 C 
ATOM     14  O   LIG    1       -5.595   5.575   6.660  0.00  0.00    -0.510 OA
ATOM     15  N   LIG    1       -6.899   5.394   8.446  0.00  0.00    -0.850 N 
ATOM     16  H   LIG    1       -6.627   6.267   8.770  0.00  0.00    +0.410 HD
ATOM     17  H   LIG    1       -7.537   4.867   8.952  0.00  0.00    +0.400 HD
ENDBRANCH  12  13
ENDBRANCH   9  12
ENDBRANCH   4   7
BRANCH   2  18
ATOM     18  C   LIG    1       -2.513   0.976   0.021  0.00  0.00    +0.370 C 
BRANCH  18  19
ATOM     19  C   LIG    1       -1.219   1.749   0.017  0.00  0.00    -0.110 A 
ATOM     20  C   LIG    1       -0.013   1.076   0.008  0.00  0.00    +0.030 A 
ATOM     21  C   LIG    1        1.176   1.782   0.000  0.00  0.00    +0.010 A 
ATOM     22  C   LIG    1        1.160   3.169   0.007  0.00  0.00    +0.050 A 
ATOM     23  O   LIG    1        2.338   3.850   0.003  0.00  0.00    -0.310 OA
ATOM     24  C   LIG    1        2.280   5.233  -0.365  0.00  0.00    +0.220 C 
ATOM     25  C   LIG    1        1.114   5.883   0.391  0.00  0.00    +0.220 C 
ATOM     26  O   LIG    1       -0.092   5.207   0.023  0.00  0.00    -0.310 OA
ATOM     27  C   LIG    1       -0.054   3.846   0.020  0.00  0.00    +0.050 A 
ATOM     28  C   LIG    1       -1.242   3.131   0.030  0.00  0.00    +0.060 A 
ENDBRANCH  18  19
ENDBRANCH   2  18
TORSDOF 5
