REMARK  Name = ZINCah0000002oWb.0
REMARK                            x       y       z     vdW  Elec       q    Type
REMARK                         _______ _______ _______ _____ _____    ______ ____
ROOT
ATOM      1  N   LIG    1       -0.020   1.094   2.454  0.00  0.00    -0.430 N 
ATOM      2  C   LIG    1       -0.306  -0.015   3.157  0.00  0.00    +0.440 A 
ATOM      3  N   LIG    1        0.537  -0.132   4.151  0.00  0.00    -0.500 NA
ATOM      4  C   LIG    1        1.397   0.885   4.136  0.00  0.00    +0.270 A 
ATOM      5  C   LIG    1        1.073   1.688   3.059  0.00  0.00    -0.150 A 
ENDROOT
BRANCH   5   6
ATOM      6  C   LIG    1        1.726   2.877   2.657  0.00  0.00    +0.500 C 
ATOM      7  O   LIG    1        2.681   3.287   3.285  0.00  0.00    -0.460 OA
ENDBRANCH   5   6
BRANCH   1   8
ATOM      8  C   LIG    1       -0.729   1.579   1.267  0.00  0.00    +0.300 C 
BRANCH   8  10
ATOM      9  C   LIG    1       -0.753   1.593  -1.232  0.00  0.00    +0.040 C 
ATOM     10  C   LIG    1       -0.013   1.086   0.008  0.00  0.00    +0.000 C 
ENDBRANCH   8  10
ENDBRANCH   1   8
TORSDOF 3
