REMARK  Name = ZINCrD0000074kuT.0
REMARK                            x       y       z     vdW  Elec       q    Type
REMARK                         _______ _______ _______ _____ _____    ______ ____
ROOT
ATOM      1  C   LIG    1       -0.732   1.458   1.254  0.00  0.00    +0.160 C 
ATOM      2  C   LIG    1       -0.148   1.021  -0.091  0.00  0.00    +0.080 C 
ENDROOT
BRANCH   1   3
ATOM      3  C   LIG    1       -0.548   2.944   1.422  0.00  0.00    +0.450 C 
ATOM      4  O   LIG    1        0.349   3.370   2.121  0.00  0.00    -0.420 OA
BRANCH   3   7
ATOM      5  C   LIG    1       -3.098   4.184   2.674  0.00  0.00    +0.150 C 
ATOM      6  C   LIG    1       -2.564   4.418   1.285  0.00  0.00    +0.150 A 
ATOM      7  C   LIG    1       -1.423   3.845   0.765  0.00  0.00    -0.270 A 
ATOM      8  C   LIG    1       -1.292   4.364  -0.611  0.00  0.00    -0.060 A 
ATOM      9  C   LIG    1       -0.366   4.172  -1.632  0.00  0.00    +0.040 A 
ATOM     10  C   LIG    1       -0.534   4.822  -2.836  0.00  0.00    +0.000 A 
ATOM     11  C   LIG    1       -1.618   5.665  -3.030  0.00  0.00    +0.030 A 
ATOM     12  C   LIG    1       -2.546   5.857  -2.030  0.00  0.00    +0.000 A 
ATOM     13  C   LIG    1       -2.392   5.213  -0.806  0.00  0.00    +0.090 A 
ATOM     14  N   LIG    1       -3.129   5.219   0.361  0.00  0.00    -0.570 N 
ATOM     15  H   LIG    1       -3.943   5.729   0.496  0.00  0.00    +0.420 HD
ENDBRANCH   3   7
ENDBRANCH   1   3
BRANCH   1  16
ATOM     16  O   LIG    1       -0.048   0.761   2.329  0.00  0.00    -0.330 OA
BRANCH  16  17
ATOM     17  C   LIG    1       -0.566  -0.420   2.719  0.00  0.00    +0.520 C 
ATOM     18  O   LIG    1       -1.563  -0.856   2.176  0.00  0.00    -0.520 OA
BRANCH  17  19
ATOM     19  C   LIG    1        0.075  -1.183   3.804  0.00  0.00    -0.220 A 
ATOM     20  C   LIG    1        1.151  -0.636   4.508  0.00  0.00    +0.130 A 
ATOM     21  C   LIG    1        1.746  -1.354   5.522  0.00  0.00    -0.070 A 
ATOM     22  C   LIG    1        1.284  -2.620   5.848  0.00  0.00    +0.100 A 
ATOM     23  C   LIG    1        0.223  -3.175   5.161  0.00  0.00    -0.090 A 
ATOM     24  C   LIG    1       -0.394  -2.463   4.140  0.00  0.00    +0.280 A 
BRANCH  24  25
ATOM     25  N   LIG    1       -1.466  -3.017   3.452  0.00  0.00    -0.720 N 
ATOM     26  H   LIG    1       -1.951  -2.486   2.802  0.00  0.00    +0.420 HD
BRANCH  25  27
ATOM     27  C   LIG    1       -1.863  -4.404   3.709  0.00  0.00    +0.260 C 
BRANCH  27  28
ATOM     28  C   LIG    1       -3.061  -4.763   2.827  0.00  0.00    +0.170 C 
BRANCH  28  29
ATOM     29  O   LIG    1       -2.668  -4.730   1.454  0.00  0.00    -0.570 OA
ATOM     30  H   LIG    1       -3.379  -4.948   0.836  0.00  0.00    +0.380 HD
ENDBRANCH  28  29
ENDBRANCH  27  28
ENDBRANCH  25  27
ENDBRANCH  24  25
ENDBRANCH  17  19
ENDBRANCH  16  17
ENDBRANCH   1  16
TORSDOF 9
