REMARK  Name = ZINCrg000000mSaE.0
REMARK                            x       y       z     vdW  Elec       q    Type
REMARK                         _______ _______ _______ _____ _____    ______ ____
ROOT
ATOM      1  C   LIG    1        1.065  -2.963   0.207  0.00  0.00    +0.520 C 
ATOM      2  N   LIG    1        2.293  -3.515   0.145  0.00  0.00    -0.610 N 
ATOM      3  C   LIG    1        3.492  -2.667   0.079  0.00  0.00    +0.270 C 
ATOM      4  C   LIG    1        4.430  -3.062   1.232  0.00  0.00    +0.300 C 
ATOM      5  N   LIG    1        4.595  -4.522   1.222  0.00  0.00    -1.000 NA
ATOM      6  C   LIG    1        3.396  -5.370   1.282  0.00  0.00    +0.300 C 
ATOM      7  C   LIG    1        2.458  -4.975   0.135  0.00  0.00    +0.270 C 
ATOM      8  O   LIG    1        0.083  -3.674   0.256  0.00  0.00    -0.530 OA
ENDROOT
BRANCH   5   9
ATOM      9  S   LIG    1        6.104  -5.200   1.144  0.00  0.00    +2.670 S 
ATOM     10  O   LIG    1        5.963  -6.544   1.584  0.00  0.00    -0.930 OA
ATOM     11  O   LIG    1        6.992  -4.272   1.751  0.00  0.00    -0.930 OA
BRANCH   9  12
ATOM     12  C   LIG    1        6.553  -5.278  -0.558  0.00  0.00    -0.630 A 
ATOM     13  C   LIG    1        5.595  -5.081  -1.535  0.00  0.00    +0.100 A 
ATOM     14  C   LIG    1        5.949  -5.138  -2.871  0.00  0.00    +0.040 A 
ATOM     15  C   LIG    1        7.257  -5.402  -3.229  0.00  0.00    +0.080 A 
ATOM     16  C   LIG    1        8.214  -5.605  -2.251  0.00  0.00    +0.070 A 
ATOM     17  C   LIG    1        7.861  -5.543  -0.916  0.00  0.00    -0.090 A 
BRANCH  17  18
ATOM     18  C   LIG    1        8.904  -5.765   0.149  0.00  0.00    +0.480 C 
ATOM     19  F   LIG    1        8.470  -6.765   1.026  0.00  0.00    -0.170 F 
ATOM     20  F   LIG    1        9.105  -4.577   0.860  0.00  0.00    -0.140 F 
ATOM     21  F   LIG    1       10.106  -6.159  -0.449  0.00  0.00    -0.170 F 
ENDBRANCH  17  18
ENDBRANCH   9  12
ENDBRANCH   5   9
BRANCH   1  22
ATOM     22  C   LIG    1        0.912  -1.464   0.217  0.00  0.00    +0.050 C 
BRANCH  22  23
ATOM     23  C   LIG    1       -0.573  -1.104   0.292  0.00  0.00    +0.290 C 
BRANCH  23  26
ATOM     24  C   LIG    1       -2.104   2.404   0.368  0.00  0.00    +0.090 C 
ATOM     25  C   LIG    1       -1.950   0.905   0.359  0.00  0.00    +0.510 C 
ATOM     26  N   LIG    1       -0.722   0.354   0.302  0.00  0.00    -0.740 N 
ATOM     27  H   LIG    1        0.063   0.922   0.263  0.00  0.00    +0.400 HD
ATOM     28  O   LIG    1       -2.933   0.195   0.402  0.00  0.00    -0.540 OA
ENDBRANCH  23  26
ENDBRANCH  22  23
ENDBRANCH   1  22
TORSDOF 6
