REMARK  Name = ZINCqH00000369Mw.0
REMARK                            x       y       z     vdW  Elec       q    Type
REMARK                         _______ _______ _______ _____ _____    ______ ____
ROOT
ATOM      1  N   LIG    1        2.257   4.050  -0.904  0.00  0.00    -0.740 N 
ATOM      2  H   LIG    1        2.018   4.302  -1.809  0.00  0.00    +0.400 HD
ATOM      3  C   LIG    1        3.541   4.125  -0.500  0.00  0.00    +0.710 C 
ATOM      4  N   LIG    1        4.493   4.549  -1.355  0.00  0.00    -0.730 N 
ATOM      5  H   LIG    1        4.253   4.801  -2.261  0.00  0.00    +0.400 HD
ATOM      6  O   LIG    1        3.841   3.809   0.635  0.00  0.00    -0.580 OA
ENDROOT
BRANCH   1  15
ATOM      7  C   LIG    1        1.204  -0.691  -0.018  0.00  0.00    +0.130 A 
ATOM      8  C   LIG    1        2.398   0.016  -0.031  0.00  0.00    -0.090 A 
ATOM      9  C   LIG    1        2.376   1.395  -0.021  0.00  0.00    +0.080 A 
ATOM     10  C   LIG    1        1.170   2.083   0.002  0.00  0.00    -0.130 A 
ATOM     11  C   LIG    1       -0.017   1.384   0.010  0.00  0.00    -0.030 A 
ATOM     12  C   LIG    1       -1.360   2.066   0.019  0.00  0.00    +0.080 C 
ATOM     13  C   LIG    1       -1.220   3.521   0.460  0.00  0.00    +0.030 C 
ATOM     14  C   LIG    1       -0.123   4.180  -0.385  0.00  0.00    +0.020 C 
ATOM     15  C   LIG    1        1.223   3.588   0.026  0.00  0.00    +0.310 C 
ATOM     16  C   LIG    1        0.002  -0.004   0.002  0.00  0.00    -0.030 A 
BRANCH   7  18
ATOM     17  C   LIG    1        2.493  -2.688  -0.045  0.00  0.00    +0.240 C 
ATOM     18  O   LIG    1        1.215  -2.050  -0.024  0.00  0.00    -0.320 OA
ENDBRANCH   7  18
ENDBRANCH   1  15
BRANCH   4  19
ATOM     19  C   LIG    1        5.888   4.630  -0.917  0.00  0.00    +0.310 C 
BRANCH  19  20
ATOM     20  C   LIG    1        6.812   4.518  -2.131  0.00  0.00    +0.160 C 
ATOM     21  C   LIG    1        6.487   3.236  -2.903  0.00  0.00    -0.010 C 
ATOM     22  C   LIG    1        7.374   3.162  -4.150  0.00  0.00    +0.010 C 
ATOM     23  C   LIG    1        7.155   4.420  -4.995  0.00  0.00    -0.020 C 
ATOM     24  C   LIG    1        7.454   5.656  -4.143  0.00  0.00    +0.210 C 
ATOM     25  O   LIG    1        6.617   5.648  -2.984  0.00  0.00    -0.370 OA
ENDBRANCH  19  20
BRANCH  19  26
ATOM     26  C   LIG    1        6.126   5.970  -0.217  0.00  0.00    -0.060 C 
ATOM     27  C   LIG    1        6.781   5.939   1.165  0.00  0.00    +0.010 C 
ATOM     28  C   LIG    1        5.294   6.273   1.030  0.00  0.00    +0.020 C 
ENDBRANCH  19  26
ENDBRANCH   4  19
TORSDOF 5
