REMARK  Name = ZINCrg00000BmLfK.1
REMARK                            x       y       z     vdW  Elec       q    Type
REMARK                         _______ _______ _______ _____ _____    ______ ____
ROOT
ATOM      1  O   LIG    1        1.245   6.180   3.481  0.00  0.00    -0.500 OA
ATOM      2  C   LIG    1        2.069   6.412   2.621  0.00  0.00    +0.500 C 
ATOM      3  N   LIG    1        1.794   6.135   1.331  0.00  0.00    -0.600 N 
ATOM      4  C   LIG    1        2.818   6.430   0.310  0.00  0.00    +0.260 C 
ATOM      5  C   LIG    1        2.937   5.304  -0.734  0.00  0.00    +0.030 C 
ATOM      6  C   LIG    1        2.842   3.958  -0.058  0.00  0.00    +0.030 C 
ATOM      7  C   LIG    1        1.387   3.498  -0.050  0.00  0.00    +0.170 C 
ATOM      8  C   LIG    1        0.594   4.017   1.075  0.00  0.00    -0.020 C 
ATOM      9  C   LIG    1        0.507   5.562   1.005  0.00  0.00    +0.290 C 
ENDROOT
BRANCH   7  10
ATOM     10  N   LIG    1        1.362   2.030   0.000  0.00  0.00    -0.530 NA
ATOM     11  C   LIG    1       -0.019   1.527   0.010  0.00  0.00    +0.150 C 
ATOM     12  C   LIG    1        0.002  -0.004   0.002  0.00  0.00    +0.220 C 
ATOM     13  O   LIG    1        0.757  -0.472   1.123  0.00  0.00    -0.380 OA
ATOM     14  C   LIG    1        2.108  -0.001   1.144  0.00  0.00    +0.220 C 
ATOM     15  C   LIG    1        2.108   1.530   1.164  0.00  0.00    +0.140 C 
ENDBRANCH   7  10
BRANCH   2  16
ATOM     16  C   LIG    1        3.401   7.011   2.996  0.00  0.00    +0.370 C 
BRANCH  16  17
ATOM     17  N   LIG    1        3.454   7.216   4.445  0.00  0.00    -0.280 N 
ATOM     18  C   LIG    1        4.405   6.736   5.277  0.00  0.00    +0.170 A 
ATOM     19  C   LIG    1        4.065   7.164   6.527  0.00  0.00    +0.020 A 
ATOM     20  N   LIG    1        2.933   7.876   6.384  0.00  0.00    -0.250 NA
ATOM     21  N   LIG    1        2.605   7.888   5.141  0.00  0.00    -0.050 NA
BRANCH  19  22
ATOM     22  C   LIG    1        4.797   6.898   7.791  0.00  0.00    -0.060 A 
ATOM     23  C   LIG    1        4.275   7.321   9.016  0.00  0.00    +0.090 A 
ATOM     24  C   LIG    1        4.994   7.044  10.167  0.00  0.00    -0.030 A 
ATOM     25  C   LIG    1        6.199   6.373  10.066  0.00  0.00    +0.260 A 
ATOM     26  N   LIG    1        6.668   5.990   8.895  0.00  0.00    -0.480 NA
ATOM     27  C   LIG    1        6.017   6.227   7.774  0.00  0.00    +0.270 A 
ENDBRANCH  19  22
ENDBRANCH  16  17
ENDBRANCH   2  16
TORSDOF 4
