REMARK  Name = ZINCkj00000hdarb.1
REMARK                            x       y       z     vdW  Elec       q    Type
REMARK                         _______ _______ _______ _____ _____    ______ ____
ROOT
ATOM      1  C   LIG    1       -0.739   1.979   1.279  0.00  0.00    +0.050 C 
ATOM      2  C   LIG    1       -2.248   1.662   1.205  0.00  0.00    +0.230 C 
ATOM      3  N   LIG    1       -2.909   2.846   1.813  0.00  0.00    -0.440 NA
ATOM      4  C   LIG    1       -2.121   4.001   1.312  0.00  0.00    +0.190 C 
ATOM      5  C   LIG    1       -0.655   3.518   1.349  0.00  0.00    +0.200 C 
ENDROOT
BRANCH   3   6
ATOM      6  C   LIG    1       -4.239   2.936   1.410  0.00  0.00    +0.250 C 
ATOM      7  C   LIG    1       -4.782   2.006   0.525  0.00  0.00    +0.010 C 
ATOM      8  C   LIG    1       -6.104   2.131   0.151  0.00  0.00    +0.240 C 
ATOM      9  N   LIG    1       -6.851   3.113   0.619  0.00  0.00    -0.470 NA
ATOM     10  C   LIG    1       -6.373   4.014   1.458  0.00  0.00    +0.400 C 
ATOM     11  H   LIG    1       -7.777   3.176   0.338  0.00  0.00    +0.450 HD
ATOM     12  C   LIG    1       -5.063   3.957   1.886  0.00  0.00    -0.160 C 
ATOM     13 BR   LIG    1       -4.392   5.247   3.095  0.00  0.00    +0.060 Br
BRANCH   8  14
ATOM     14  C   LIG    1       -6.704   1.132  -0.806  0.00  0.00    +0.000 C 
ATOM     15  C   LIG    1       -7.768   1.639  -1.781  0.00  0.00    +0.070 C 
ATOM     16  C   LIG    1       -8.171   0.751  -0.602  0.00  0.00    +0.080 C 
ENDBRANCH   8  14
ENDBRANCH   3   6
BRANCH   5  17
ATOM     17  O   LIG    1       -0.027   3.926   2.566  0.00  0.00    -0.550 OA
ATOM     18  H   LIG    1        0.053   4.885   2.666  0.00  0.00    +0.390 HD
ENDBRANCH   5  17
BRANCH   1  19
ATOM     19  C   LIG    1       -0.026   1.465   0.027  0.00  0.00    +0.070 C 
BRANCH  19  23
ATOM     20  N   LIG    1        0.567  -0.719  -0.972  0.00  0.00    -0.850 N 
ATOM     21  H   LIG    1        0.576  -1.688  -0.964  0.00  0.00    +0.410 HD
ATOM     22  H   LIG    1        0.975  -0.236  -1.708  0.00  0.00    +0.400 HD
ATOM     23  C   LIG    1       -0.012  -0.042   0.039  0.00  0.00    +0.510 C 
ATOM     24  O   LIG    1       -0.522  -0.645   0.960  0.00  0.00    -0.540 OA
ENDBRANCH  19  23
ENDBRANCH   1  19
TORSDOF 5
