REMARK  Name = ZINCpk00000y6v0e.0
REMARK                            x       y       z     vdW  Elec       q    Type
REMARK                         _______ _______ _______ _____ _____    ______ ____
ROOT
ATOM      1  C   LIG    1       -6.239   5.252  -3.808  0.00  0.00    +0.260 C 
ATOM      2  C   LIG    1       -6.789   4.634  -5.110  0.00  0.00    +0.030 C 
ATOM      3  C   LIG    1       -6.894   3.125  -4.764  0.00  0.00    +0.030 C 
ATOM      4  C   LIG    1       -5.657   2.927  -3.852  0.00  0.00    +0.170 C 
ATOM      5  N   LIG    1       -5.568   4.173  -3.061  0.00  0.00    -0.500 NA
ENDROOT
BRANCH   1   8
ATOM      6  C   LIG    1       -6.690   8.306  -3.503  0.00  0.00    +0.330 C 
ATOM      7  N   LIG    1       -5.466   7.670  -3.994  0.00  0.00    -0.440 N 
ATOM      8  C   LIG    1       -5.250   6.341  -4.135  0.00  0.00    +0.190 A 
ATOM      9  N   LIG    1       -4.041   6.158  -4.596  0.00  0.00    -0.470 NA
ATOM     10  C   LIG    1       -3.454   7.345  -4.771  0.00  0.00    +0.000 A 
ATOM     11  C   LIG    1       -2.064   7.628  -5.286  0.00  0.00    +0.120 C 
ATOM     12  C   LIG    1       -1.991   9.104  -5.694  0.00  0.00    +0.010 C 
ATOM     13  C   LIG    1       -2.527   9.978  -4.557  0.00  0.00    +0.030 C 
ATOM     14  C   LIG    1       -4.044   9.781  -4.434  0.00  0.00    +0.110 C 
ATOM     15  C   LIG    1       -4.329   8.302  -4.396  0.00  0.00    -0.030 A 
ENDBRANCH   1   8
BRANCH   5  16
ATOM     16  C   LIG    1       -4.168   4.518  -2.780  0.00  0.00    +0.180 C 
BRANCH  16  17
ATOM     17  C   LIG    1       -3.578   3.502  -1.800  0.00  0.00    +0.180 C 
BRANCH  17  18
ATOM     18  O   LIG    1       -4.328   3.523  -0.584  0.00  0.00    -0.540 OA
ATOM     19  H   LIG    1       -4.330   4.381  -0.138  0.00  0.00    +0.370 HD
ENDBRANCH  17  18
BRANCH  17  20
ATOM     20  C   LIG    1       -2.120   3.862  -1.508  0.00  0.00    +0.270 C 
BRANCH  20  21
ATOM     21  N   LIG    1       -1.521   2.824  -0.665  0.00  0.00    -0.620 N 
ATOM     22  C   LIG    1       -0.834   1.634  -1.180  0.00  0.00    +0.250 C 
ATOM     23  C   LIG    1       -0.013   1.086   0.008  0.00  0.00    +0.040 C 
ATOM     24  C   LIG    1       -0.812   1.622   1.219  0.00  0.00    +0.040 C 
ATOM     25  C   LIG    1       -1.529   2.840   0.679  0.00  0.00    +0.520 C 
ATOM     26  O   LIG    1       -2.036   3.706   1.360  0.00  0.00    -0.530 OA
ENDBRANCH  20  21
ENDBRANCH  17  20
ENDBRANCH  16  17
ENDBRANCH   5  16
TORSDOF 6
