REMARK  Name = ZINCnE000001MdR3.0
REMARK                            x       y       z     vdW  Elec       q    Type
REMARK                         _______ _______ _______ _____ _____    ______ ____
ROOT
ATOM      1  C   LIG    1       -4.563   0.486  -1.286  0.00  0.00    +0.510 C 
ATOM      2  N   LIG    1       -5.435   0.632  -2.304  0.00  0.00    -0.610 N 
ATOM      3  C   LIG    1       -5.197   1.630  -3.355  0.00  0.00    +0.260 C 
ATOM      4  C   LIG    1       -5.258   0.926  -4.719  0.00  0.00    +0.010 C 
ATOM      5  C   LIG    1       -6.592   0.186  -4.846  0.00  0.00    +0.010 C 
ATOM      6  C   LIG    1       -6.692  -0.878  -3.750  0.00  0.00    -0.030 C 
ATOM      7  C   LIG    1       -6.645  -0.198  -2.378  0.00  0.00    +0.280 C 
ATOM      8  O   LIG    1       -4.773  -0.338  -0.422  0.00  0.00    -0.540 OA
ENDROOT
BRANCH   1   9
ATOM      9  C   LIG    1       -3.327   1.345  -1.224  0.00  0.00    +0.050 C 
BRANCH   9  11
ATOM     10  C   LIG    1       -3.315   1.331   1.274  0.00  0.00    +0.030 C 
ATOM     11  C   LIG    1       -2.513   0.980   0.019  0.00  0.00    +0.050 C 
BRANCH  11  12
ATOM     12  C   LIG    1       -1.219   1.751   0.017  0.00  0.00    -0.040 A 
ATOM     13  C   LIG    1       -1.238   3.133   0.031  0.00  0.00    +0.000 A 
ATOM     14  C   LIG    1       -0.051   3.842   0.023  0.00  0.00    +0.040 A 
ATOM     15  C   LIG    1        1.156   3.169   0.008  0.00  0.00    -0.030 A 
ATOM     16  C   LIG    1        1.177   1.784   0.000  0.00  0.00    +0.100 A 
ATOM     17  F   LIG    1        2.356   1.126  -0.014  0.00  0.00    -0.140 F 
ATOM     18  C   LIG    1       -0.013   1.076   0.008  0.00  0.00    -0.010 A 
ENDBRANCH  11  12
ENDBRANCH   9  11
ENDBRANCH   1   9
BRANCH   6  19
ATOM     19  C   LIG    1       -8.011  -1.640  -3.897  0.00  0.00    +0.030 C 
BRANCH  19  20
ATOM     20  C   LIG    1       -8.006  -2.419  -5.213  0.00  0.00    -0.070 C 
BRANCH  20  21
ATOM     21  C   LIG    1       -9.305  -3.169  -5.358  0.00  0.00    +0.490 C 
ATOM     22  O   LIG    1       -9.505  -3.857  -6.345  0.00  0.00    -0.710 OA
ATOM     23  O   LIG    1      -10.156  -3.088  -4.489  0.00  0.00    -0.700 OA
ENDBRANCH  20  21
ENDBRANCH  19  20
ENDBRANCH   6  19
TORSDOF 6
