REMARK  Name = ZINCrH000004ka5l.0
REMARK                            x       y       z     vdW  Elec       q    Type
REMARK                         _______ _______ _______ _____ _____    ______ ____
ROOT
ATOM      1  N   LIG    1        0.002  -0.004   0.002  0.00  0.00    -0.680 N 
ATOM      2  H   LIG    1       -0.827  -0.501   0.085  0.00  0.00    +0.410 HD
ATOM      3  C   LIG    1        1.173  -0.661  -0.114  0.00  0.00    +0.720 C 
ATOM      4  N   LIG    1        1.183  -2.005  -0.223  0.00  0.00    -0.630 N 
ATOM      5  C   LIG    1       -0.002  -2.874  -0.223  0.00  0.00    +0.240 C 
ATOM      6  C   LIG    1        0.493  -4.325  -0.399  0.00  0.00    +0.050 C 
ATOM      7  C   LIG    1        1.890  -4.141  -1.048  0.00  0.00    +0.000 C 
ATOM      8  C   LIG    1        2.386  -2.847  -0.356  0.00  0.00    +0.300 C 
ATOM      9  O   LIG    1        2.220  -0.043  -0.121  0.00  0.00    -0.560 OA
ENDROOT
BRANCH   1  17
ATOM     10  C   LIG    1       -2.123   3.869   2.797  0.00  0.00    +0.210 C 
ATOM     11  N   LIG    1       -1.837   4.348   1.438  0.00  0.00    -0.480 N 
ATOM     12  C   LIG    1       -1.186   5.675   1.469  0.00  0.00    +0.200 C 
ATOM     13  C   LIG    1       -0.292   5.644   0.208  0.00  0.00    +0.090 C 
ATOM     14  C   LIG    1       -0.048   4.161   0.005  0.00  0.00    -0.160 A 
ATOM     15  C   LIG    1        0.887   3.484  -0.750  0.00  0.00    +0.070 A 
ATOM     16  C   LIG    1        0.907   2.102  -0.755  0.00  0.00    +0.000 A 
ATOM     17  C   LIG    1       -0.018   1.395   0.003  0.00  0.00    +0.190 A 
ATOM     18  C   LIG    1       -0.963   2.073   0.755  0.00  0.00    -0.050 A 
ATOM     19  C   LIG    1       -0.983   3.465   0.764  0.00  0.00    +0.110 A 
ENDBRANCH   1  17
BRANCH   7  20
ATOM     20  C   LIG    1        2.806  -5.322  -0.722  0.00  0.00    +0.180 C 
BRANCH  20  21
ATOM     21  O   LIG    1        4.091  -5.105  -1.308  0.00  0.00    -0.380 OA
BRANCH  21  22
ATOM     22  C   LIG    1        5.028  -6.156  -1.063  0.00  0.00    +0.220 C 
BRANCH  22  23
ATOM     23  C   LIG    1        6.341  -5.823  -1.723  0.00  0.00    -0.090 A 
ATOM     24  C   LIG    1        6.584  -6.230  -3.022  0.00  0.00    +0.020 A 
ATOM     25  C   LIG    1        7.786  -5.920  -3.629  0.00  0.00    +0.000 A 
ATOM     26  C   LIG    1        8.750  -5.213  -2.935  0.00  0.00    +0.010 A 
ATOM     27  C   LIG    1        8.509  -4.811  -1.635  0.00  0.00    +0.000 A 
ATOM     28  C   LIG    1        7.304  -5.116  -1.029  0.00  0.00    +0.020 A 
ENDBRANCH  22  23
ENDBRANCH  21  22
ENDBRANCH  20  21
ENDBRANCH   7  20
TORSDOF 5
