REMARK  Name = ZINCqH0000003EqI.0
REMARK                            x       y       z     vdW  Elec       q    Type
REMARK                         _______ _______ _______ _____ _____    ______ ____
ROOT
ATOM      1  N   LIG    1        6.651   2.588   1.622  0.00  0.00    -0.660 N 
ATOM      2  H   LIG    1        7.276   2.536   0.882  0.00  0.00    +0.420 HD
ATOM      3  C   LIG    1        5.324   2.557   1.388  0.00  0.00    +0.500 C 
ATOM      4  O   LIG    1        4.545   2.540   2.317  0.00  0.00    -0.500 OA
ENDROOT
BRANCH   1  12
ATOM      5  C   LIG    1        8.289   3.420   3.199  0.00  0.00    +0.110 A 
ATOM      6  C   LIG    1        8.757   3.523   4.499  0.00  0.00    -0.090 A 
ATOM      7  C   LIG    1        8.072   2.908   5.532  0.00  0.00    +0.070 A 
ATOM      8  C   LIG    1        6.920   2.189   5.271  0.00  0.00    -0.020 A 
ATOM      9  C   LIG    1        6.444   2.086   3.976  0.00  0.00    +0.070 A 
ATOM     10 CL   LIG    1        6.066   1.419   6.571  0.00  0.00    -0.040 Cl
ATOM     11 BR   LIG    1       10.332   4.504   4.862  0.00  0.00    -0.010 Br
ATOM     12  C   LIG    1        7.129   2.696   2.935  0.00  0.00    +0.150 A 
BRANCH   5  13
ATOM     13  O   LIG    1        8.961   4.023   2.182  0.00  0.00    -0.320 OA
BRANCH  13  15
ATOM     14  C   LIG    1        9.446   5.873   0.704  0.00  0.00    +0.070 C 
ATOM     15  C   LIG    1        8.587   5.365   1.864  0.00  0.00    +0.170 C 
ENDBRANCH  13  15
ENDBRANCH   5  13
ENDBRANCH   1  12
BRANCH   3  16
ATOM     16  C   LIG    1        4.809   2.542  -0.028  0.00  0.00    +0.380 C 
BRANCH  16  17
ATOM     17  N   LIG    1        3.345   2.509  -0.015  0.00  0.00    -0.560 N 
ATOM     18  C   LIG    1        2.610   1.382  -0.005  0.00  0.00    +0.580 C 
ATOM     19  C   LIG    1        1.179   1.753   0.008  0.00  0.00    -0.140 A 
ATOM     20  C   LIG    1       -0.007   1.037   0.021  0.00  0.00    +0.100 A 
ATOM     21  C   LIG    1       -1.218   1.711   0.026  0.00  0.00    +0.050 A 
ATOM     22  C   LIG    1       -1.250   3.093   0.030  0.00  0.00    +0.050 A 
ATOM     23  C   LIG    1       -0.071   3.823   0.016  0.00  0.00    +0.100 A 
ATOM     24  C   LIG    1        1.146   3.163   0.005  0.00  0.00    -0.140 A 
ATOM     25  O   LIG    1        3.048   0.249  -0.006  0.00  0.00    -0.460 OA
ATOM     26  C   LIG    1        2.558   3.600  -0.009  0.00  0.00    +0.580 C 
ATOM     27  O   LIG    1        2.943   4.752  -0.016  0.00  0.00    -0.460 OA
ENDBRANCH  16  17
ENDBRANCH   3  16
TORSDOF 5
