REMARK  Name = ZINCrH000004k1jz.0
REMARK                            x       y       z     vdW  Elec       q    Type
REMARK                         _______ _______ _______ _____ _____    ______ ____
ROOT
ATOM      1  C   LIG    1        0.364  -0.516  -2.416  0.00  0.00    +0.270 C 
ENDROOT
BRANCH   1   4
ATOM      2  N   LIG    1        0.259  -2.097  -5.735  0.00  0.00    -0.630 N 
ATOM      3  C   LIG    1        0.551  -1.241  -4.735  0.00  0.00    +0.710 C 
ATOM      4  N   LIG    1        0.046  -1.446  -3.503  0.00  0.00    -0.750 N 
ATOM      5  H   LIG    1       -0.527  -2.210  -3.335  0.00  0.00    +0.400 HD
ATOM      6  O   LIG    1        1.270  -0.283  -4.946  0.00  0.00    -0.590 OA
ATOM      7  C   LIG    1       -0.608  -3.250  -5.481  0.00  0.00    +0.280 C 
BRANCH   2   8
ATOM      8  C   LIG    1        0.807  -1.873  -7.074  0.00  0.00    +0.390 C 
BRANCH   8  12
ATOM      9  C   LIG    1        5.722  -2.853  -6.966  0.00  0.00    +0.360 C 
ATOM     10  N   LIG    1        4.275  -2.998  -7.149  0.00  0.00    -0.380 N 
ATOM     11  C   LIG    1        3.346  -2.049  -6.909  0.00  0.00    +0.270 A 
ATOM     12  C   LIG    1        2.134  -2.578  -7.198  0.00  0.00    -0.270 A 
ATOM     13  C   LIG    1        2.330  -3.891  -7.637  0.00  0.00    +0.240 A 
ATOM     14  N   LIG    1        3.614  -4.144  -7.608  0.00  0.00    -0.300 NA
ENDBRANCH   8  12
ENDBRANCH   2   8
ENDBRANCH   1   4
BRANCH   1  15
ATOM     15  C   LIG    1       -0.330  -0.976  -1.133  0.00  0.00    +0.030 C 
BRANCH  15  16
ATOM     16  C   LIG    1        0.002  -0.004   0.002  0.00  0.00    +0.090 C 
BRANCH  16  17
ATOM     17  C   LIG    1       -0.579  -0.521   1.293  0.00  0.00    -0.070 A 
ATOM     18  C   LIG    1        0.225  -0.654   2.409  0.00  0.00    +0.010 A 
ATOM     19  C   LIG    1       -0.309  -1.124   3.594  0.00  0.00    +0.000 A 
ATOM     20  C   LIG    1       -1.645  -1.471   3.660  0.00  0.00    +0.000 A 
ATOM     21  C   LIG    1       -2.449  -1.344   2.542  0.00  0.00    +0.000 A 
ATOM     22  C   LIG    1       -1.916  -0.869   1.359  0.00  0.00    +0.010 A 
ENDBRANCH  16  17
BRANCH  16  23
ATOM     23  C   LIG    1       -0.586   1.349  -0.307  0.00  0.00    -0.070 A 
ATOM     24  C   LIG    1       -1.922   1.462  -0.641  0.00  0.00    +0.010 A 
ATOM     25  C   LIG    1       -2.462   2.703  -0.920  0.00  0.00    +0.000 A 
ATOM     26  C   LIG    1       -1.664   3.830  -0.875  0.00  0.00    +0.000 A 
ATOM     27  C   LIG    1       -0.326   3.717  -0.545  0.00  0.00    +0.000 A 
ATOM     28  C   LIG    1        0.213   2.476  -0.262  0.00  0.00    +0.010 A 
ENDBRANCH  16  23
ENDBRANCH  15  16
ENDBRANCH   1  15
TORSDOF 7
