REMARK  Name = ZINCpe000000UNC8.0
REMARK                            x       y       z     vdW  Elec       q    Type
REMARK                         _______ _______ _______ _____ _____    ______ ____
ROOT
ATOM      1  C   LIG    1       -0.013   1.086   0.008  0.00  0.00    +0.300 C 
ENDROOT
BRANCH   1   2
ATOM      2  C   LIG    1       -0.729   1.579   1.267  0.00  0.00    +0.160 C 
ATOM      3  C   LIG    1        0.012   1.074   2.508  0.00  0.00    +0.170 C 
ATOM      4  N   LIG    1       -0.634   1.615   3.712  0.00  0.00    -0.520 NA
ATOM      5  C   LIG    1       -0.635   3.086   3.688  0.00  0.00    +0.150 C 
ATOM      6  C   LIG    1       -1.371   3.569   2.435  0.00  0.00    +0.220 C 
ATOM      7  O   LIG    1       -0.747   3.009   1.276  0.00  0.00    -0.380 OA
BRANCH   4   8
ATOM      8  C   LIG    1        0.014   1.110   4.930  0.00  0.00    +0.270 C 
BRANCH   8   9
ATOM      9  C   LIG    1        1.477   1.469   4.907  0.00  0.00    -0.130 A 
ATOM     10  C   LIG    1        2.393   0.601   4.343  0.00  0.00    +0.010 A 
ATOM     11  C   LIG    1        3.735   0.932   4.318  0.00  0.00    +0.000 A 
ATOM     12  C   LIG    1        4.162   2.128   4.865  0.00  0.00    +0.000 A 
ATOM     13  C   LIG    1        3.246   2.994   5.433  0.00  0.00    +0.000 A 
ATOM     14  C   LIG    1        1.904   2.664   5.454  0.00  0.00    +0.010 A 
ENDBRANCH   8   9
ENDBRANCH   4   8
ENDBRANCH   1   2
BRANCH   1  16
ATOM     15  C   LIG    1       -0.268   1.258  -2.409  0.00  0.00    +0.520 C 
ATOM     16  N   LIG    1       -0.721   1.571  -1.179  0.00  0.00    -0.720 N 
ATOM     17  H   LIG    1       -1.516   2.118  -1.079  0.00  0.00    +0.410 HD
ATOM     18  O   LIG    1        0.726   0.575  -2.534  0.00  0.00    -0.530 OA
BRANCH  15  23
ATOM     19  C   LIG    1       -3.122   1.949  -7.321  0.00  0.00    +0.280 C 
ATOM     20  N   LIG    1       -2.377   1.769  -6.072  0.00  0.00    -0.610 N 
ATOM     21  C   LIG    1       -0.929   1.930  -6.111  0.00  0.00    +0.260 C 
ATOM     22  C   LIG    1       -0.283   1.266  -4.895  0.00  0.00    +0.060 C 
ATOM     23  C   LIG    1       -0.997   1.758  -3.630  0.00  0.00    +0.000 C 
ATOM     24  C   LIG    1       -2.426   1.209  -3.637  0.00  0.00    +0.100 C 
ATOM     25  C   LIG    1       -3.066   1.468  -4.971  0.00  0.00    +0.520 C 
ATOM     26  O   LIG    1       -4.274   1.401  -5.051  0.00  0.00    -0.550 OA
ENDBRANCH  15  23
ENDBRANCH   1  16
TORSDOF 5
