REMARK  Name = ZINCtj00001yywoA.0
REMARK                            x       y       z     vdW  Elec       q    Type
REMARK                         _______ _______ _______ _____ _____    ______ ____
ROOT
ATOM      1  C   LIG    1        2.836   0.500   1.168  0.00  0.00    +0.000 C 
ATOM      2  C   LIG    1        4.025  -0.325   0.616  0.00  0.00    +0.280 C 
ATOM      3  N   LIG    1        3.728  -0.501  -0.821  0.00  0.00    -0.390 N 
ATOM      4  C   LIG    1        2.834   0.589  -1.253  0.00  0.00    +0.270 C 
ATOM      5  H   LIG    1        3.274  -1.390  -0.966  0.00  0.00    +0.430 HD
ATOM      6  C   LIG    1        2.548   1.464  -0.014  0.00  0.00    +0.130 C 
ENDROOT
BRANCH   1  16
ATOM      7  C   LIG    1        5.303   0.845   5.220  0.00  0.00    +0.050 C 
ATOM      8  C   LIG    1        3.922   1.322   4.764  0.00  0.00    +0.250 C 
ATOM      9  C   LIG    1        2.887   1.019   5.849  0.00  0.00    +0.280 C 
ATOM     10  N   LIG    1        2.599  -0.407   5.906  0.00  0.00    -0.600 N 
ATOM     11  C   LIG    1        2.809  -1.262   4.904  0.00  0.00    +0.500 C 
ATOM     12  C   LIG    1        3.460  -0.863   3.611  0.00  0.00    +0.310 C 
ATOM     13  O   LIG    1        2.455  -2.414   5.042  0.00  0.00    -0.530 OA
ATOM     14  C   LIG    1        2.040  -0.941   7.150  0.00  0.00    +0.290 C 
ATOM     15  N   LIG    1        3.528   0.604   3.540  0.00  0.00    -0.610 N 
ATOM     16  C   LIG    1        3.236   1.266   2.403  0.00  0.00    +0.540 C 
ATOM     17  O   LIG    1        3.296   2.477   2.373  0.00  0.00    -0.500 OA
ENDBRANCH   1  16
BRANCH   6  18
ATOM     18  C   LIG    1        1.109   1.911   0.002  0.00  0.00    -0.260 A 
ATOM     19  C   LIG    1        0.674   3.192   0.013  0.00  0.00    +0.280 A 
ATOM     20  N   LIG    1       -0.675   3.169   0.025  0.00  0.00    -0.360 N 
ATOM     21  N   LIG    1       -1.083   1.829   0.017  0.00  0.00    -0.280 NA
ATOM     22  C   LIG    1       -1.558   4.338   0.040  0.00  0.00    +0.360 C 
ATOM     23  C   LIG    1       -0.013   1.076   0.008  0.00  0.00    +0.230 A 
ENDBRANCH   6  18
BRANCH   3  24
ATOM     24  C   LIG    1        4.977  -0.451  -1.594  0.00  0.00    +0.330 C 
BRANCH  24  25
ATOM     25  C   LIG    1        5.836  -1.636  -1.237  0.00  0.00    -0.160 A 
ATOM     26  C   LIG    1        6.749  -1.542  -0.204  0.00  0.00    +0.030 A 
ATOM     27  C   LIG    1        7.534  -2.631   0.127  0.00  0.00    +0.030 A 
ATOM     28  C   LIG    1        7.413  -3.811  -0.584  0.00  0.00    +0.060 A 
ATOM     29  C   LIG    1        6.504  -3.903  -1.621  0.00  0.00    +0.030 A 
ATOM     30  C   LIG    1        5.715  -2.816  -1.948  0.00  0.00    +0.040 A 
ENDBRANCH  24  25
ENDBRANCH   3  24
TORSDOF 4
