REMARK  Name = ZINCtj00001yywoA.1
REMARK                            x       y       z     vdW  Elec       q    Type
REMARK                         _______ _______ _______ _____ _____    ______ ____
ROOT
ATOM      1  C   LIG    1       -1.417   4.073   4.919  0.00  0.00    +0.020 C 
ATOM      2  C   LIG    1       -2.546   3.931   5.963  0.00  0.00    +0.280 C 
ATOM      3  N   LIG    1       -2.234   2.668   6.681  0.00  0.00    -0.390 N 
ATOM      4  C   LIG    1       -1.758   1.750   5.615  0.00  0.00    +0.280 C 
ATOM      5  H   LIG    1       -1.508   2.822   7.365  0.00  0.00    +0.430 HD
ATOM      6  C   LIG    1       -0.899   2.638   4.691  0.00  0.00    +0.130 C 
ENDROOT
BRANCH   1  16
ATOM      7  C   LIG    1        0.051   7.717   7.598  0.00  0.00    +0.050 C 
ATOM      8  C   LIG    1        0.498   7.127   6.259  0.00  0.00    +0.250 C 
ATOM      9  C   LIG    1        0.729   8.255   5.244  0.00  0.00    +0.280 C 
ATOM     10  N   LIG    1       -0.540   8.822   4.806  0.00  0.00    -0.600 N 
ATOM     11  C   LIG    1       -1.714   8.193   4.875  0.00  0.00    +0.510 C 
ATOM     12  C   LIG    1       -1.884   6.840   5.509  0.00  0.00    +0.320 C 
ATOM     13  O   LIG    1       -2.691   8.739   4.406  0.00  0.00    -0.530 OA
ATOM     14  C   LIG    1       -0.524  10.178   4.251  0.00  0.00    +0.300 C 
ATOM     15  N   LIG    1       -0.556   6.247   5.727  0.00  0.00    -0.610 N 
ATOM     16  C   LIG    1       -0.314   4.948   5.457  0.00  0.00    +0.520 C 
ATOM     17  O   LIG    1        0.790   4.485   5.646  0.00  0.00    -0.510 OA
ENDBRANCH   1  16
BRANCH   6  18
ATOM     18  C   LIG    1       -1.091   2.235   3.251  0.00  0.00    -0.270 A 
ATOM     19  C   LIG    1       -0.120   1.824   2.403  0.00  0.00    +0.270 A 
ATOM     20  N   LIG    1       -0.698   1.558   1.213  0.00  0.00    -0.360 N 
ATOM     21  N   LIG    1       -2.070   1.819   1.333  0.00  0.00    -0.280 NA
ATOM     22  C   LIG    1       -0.013   1.086   0.008  0.00  0.00    +0.360 C 
ATOM     23  C   LIG    1       -2.304   2.220   2.556  0.00  0.00    +0.230 A 
ENDBRANCH   6  18
BRANCH   3  24
ATOM     24  C   LIG    1       -3.439   2.129   7.324  0.00  0.00    +0.330 C 
BRANCH  24  25
ATOM     25  C   LIG    1       -3.831   3.014   8.479  0.00  0.00    -0.160 A 
ATOM     26  C   LIG    1       -3.332   2.762   9.744  0.00  0.00    +0.040 A 
ATOM     27  C   LIG    1       -3.688   3.576  10.803  0.00  0.00    +0.030 A 
ATOM     28  C   LIG    1       -4.551   4.637  10.599  0.00  0.00    +0.060 A 
ATOM     29  C   LIG    1       -5.054   4.886   9.336  0.00  0.00    +0.030 A 
ATOM     30  C   LIG    1       -4.695   4.074   8.276  0.00  0.00    +0.030 A 
ENDBRANCH  24  25
ENDBRANCH   3  24
TORSDOF 4
