REMARK  Name = ZINCpk000000pHka.2
REMARK                            x       y       z     vdW  Elec       q    Type
REMARK                         _______ _______ _______ _____ _____    ______ ____
ROOT
ATOM      1  S   LIG    1       -2.075   4.614   0.284  0.00  0.00    +2.660 S 
ATOM      2  O   LIG    1       -2.199   3.531   1.196  0.00  0.00    -0.920 OA
ATOM      3  O   LIG    1       -0.832   5.022  -0.272  0.00  0.00    -0.940 OA
ENDROOT
BRANCH   1  11
ATOM      4  C   LIG    1       -3.119   5.189  -2.109  0.00  0.00    +0.250 C 
ATOM      5  C   LIG    1       -4.224   6.239  -1.871  0.00  0.00    +0.170 C 
ATOM      6  N   LIG    1       -5.497   5.631  -1.967  0.00  0.00    -0.560 NA
ATOM      7  C   LIG    1       -5.801   4.602  -0.974  0.00  0.00    +0.180 C 
ATOM      8  C   LIG    1       -5.296   3.267  -1.474  0.00  0.00    +0.040 C 
ATOM      9  C   LIG    1       -3.869   3.026  -0.954  0.00  0.00    +0.280 C 
ATOM     10  C   LIG    1       -6.561   6.643  -2.020  0.00  0.00    +0.190 C 
ATOM     11  N   LIG    1       -3.067   4.264  -0.995  0.00  0.00    -0.990 NA
BRANCH   4  13
ATOM     12  C   LIG    1       -0.699   4.885  -2.651  0.00  0.00    +0.040 C 
ATOM     13  C   LIG    1       -1.771   5.899  -2.245  0.00  0.00    +0.010 C 
ENDBRANCH   4  13
ENDBRANCH   1  11
BRANCH   1  14
ATOM     14  C   LIG    1       -2.746   6.027   1.094  0.00  0.00    -0.650 A 
ATOM     15  C   LIG    1       -2.110   7.250   0.991  0.00  0.00    +0.130 A 
ATOM     16  C   LIG    1       -2.637   8.359   1.626  0.00  0.00    +0.010 A 
ATOM     17  C   LIG    1       -3.800   8.245   2.365  0.00  0.00    +0.060 A 
ATOM     18  C   LIG    1       -4.436   7.022   2.468  0.00  0.00    +0.010 A 
ATOM     19  C   LIG    1       -3.906   5.912   1.838  0.00  0.00    -0.020 A 
BRANCH  19  20
ATOM     20  C   LIG    1       -4.595   4.577   1.956  0.00  0.00    +0.380 C 
BRANCH  20  21
ATOM     21  N   LIG    1       -4.203   3.934   3.212  0.00  0.00    -0.370 N 
ATOM     22  C   LIG    1       -5.004   3.636   4.250  0.00  0.00    +0.460 A 
ATOM     23  N   LIG    1       -4.275   3.068   5.176  0.00  0.00    -0.540 NA
ATOM     24  C   LIG    1       -3.008   2.994   4.771  0.00  0.00    +0.390 A 
ATOM     25  N   LIG    1       -2.913   3.512   3.575  0.00  0.00    -0.260 NA
ENDBRANCH  20  21
ENDBRANCH  19  20
ENDBRANCH   1  14
TORSDOF 5
