REMARK  Name = ZINCrg000000qBrU.0
REMARK                            x       y       z     vdW  Elec       q    Type
REMARK                         _______ _______ _______ _____ _____    ______ ____
ROOT
ATOM      1  C   LIG    1        1.774   2.932  -0.900  0.00  0.00    +0.610 C 
ATOM      2  N   LIG    1        1.444   1.853  -0.163  0.00  0.00    -0.600 N 
ATOM      3  C   LIG    1        0.055   1.371  -0.110  0.00  0.00    +0.310 C 
ATOM      4  C   LIG    1        0.049  -0.129  -0.422  0.00  0.00    +0.190 C 
ATOM      5  N   LIG    1        0.980  -0.818   0.481  0.00  0.00    -0.520 NA
ATOM      6  C   LIG    1        2.361  -0.363   0.270  0.00  0.00    +0.190 C 
ATOM      7  C   LIG    1        2.462   1.127   0.611  0.00  0.00    +0.300 C 
ATOM      8  O   LIG    1        0.947   3.448  -1.627  0.00  0.00    -0.510 OA
ENDROOT
BRANCH   1  12
ATOM      9  C   LIG    1        4.989   4.627  -1.117  0.00  0.00    +0.210 A 
ATOM     10  N   LIG    1        5.129   3.752  -0.158  0.00  0.00    -0.390 NA
ATOM     11  O   LIG    1        4.118   3.113   0.019  0.00  0.00    +0.120 OA
ATOM     12  C   LIG    1        3.139   3.488  -0.825  0.00  0.00    -0.060 A 
ATOM     13  C   LIG    1        3.663   4.483  -1.601  0.00  0.00    +0.040 A 
BRANCH   9  15
ATOM     14  C   LIG    1        7.205   5.461  -0.926  0.00  0.00    +0.260 C 
ATOM     15  O   LIG    1        5.928   5.498  -1.566  0.00  0.00    -0.280 OA
ENDBRANCH   9  15
ENDBRANCH   1  12
BRANCH   5  16
ATOM     16  C   LIG    1        0.877  -2.275   0.332  0.00  0.00    +0.220 C 
BRANCH  16  17
ATOM     17  C   LIG    1        1.656  -2.949   1.432  0.00  0.00    +0.530 C 
ATOM     18  N   LIG    1        1.704  -4.295   1.497  0.00  0.00    -0.550 N 
ATOM     19  C   LIG    1        2.426  -5.061   2.516  0.00  0.00    +0.280 C 
ATOM     20  C   LIG    1        2.178  -6.536   2.163  0.00  0.00    +0.090 C 
ATOM     21  C   LIG    1        1.305  -6.490   0.929  0.00  0.00    -0.130 A 
ATOM     22  C   LIG    1        0.764  -7.505   0.163  0.00  0.00    +0.060 A 
ATOM     23  C   LIG    1       -0.028  -7.204  -0.929  0.00  0.00    -0.010 A 
ATOM     24  C   LIG    1       -0.267  -5.884  -1.263  0.00  0.00    +0.050 A 
ATOM     25  C   LIG    1        0.274  -4.867  -0.504  0.00  0.00    -0.030 A 
ATOM     26  C   LIG    1        1.068  -5.163   0.606  0.00  0.00    +0.140 A 
ATOM     27  O   LIG    1        2.240  -2.281   2.259  0.00  0.00    -0.500 OA
ENDBRANCH  16  17
ENDBRANCH   5  16
TORSDOF 4
