REMARK  Name = ZINCvU00000006so.1
REMARK                            x       y       z     vdW  Elec       q    Type
REMARK                         _______ _______ _______ _____ _____    ______ ____
ROOT
ATOM      1  O   LIG    1       -2.827  -5.284  -1.049  0.00  0.00    -0.520 OA
ATOM      2  C   LIG    1       -2.748  -4.687   0.003  0.00  0.00    +0.520 C 
ATOM      3  N   LIG    1       -2.594  -3.348   0.009  0.00  0.00    -0.610 N 
ATOM      4  C   LIG    1       -2.520  -2.598  -1.253  0.00  0.00    +0.280 C 
ATOM      5  C   LIG    1       -1.247  -1.746  -1.246  0.00  0.00    +0.040 C 
ATOM      6  C   LIG    1       -1.232  -0.869   0.009  0.00  0.00    +0.090 C 
ATOM      7  C   LIG    1       -1.225  -1.758   1.254  0.00  0.00    +0.040 C 
ATOM      8  C   LIG    1       -2.498  -2.610   1.276  0.00  0.00    +0.280 C 
ENDROOT
BRANCH   6   9
ATOM      9  C   LIG    1        0.002  -0.004   0.002  0.00  0.00    +0.100 A 
ATOM     10  N   LIG    1        1.198  -0.457  -0.012  0.00  0.00    -0.460 NA
ATOM     11  C   LIG    1        2.208   0.433  -0.017  0.00  0.00    +0.080 A 
ATOM     12  C   LIG    1        3.601   0.215  -0.032  0.00  0.00    +0.070 A 
ATOM     13  C   LIG    1        4.464   1.269  -0.035  0.00  0.00    +0.030 A 
ATOM     14  C   LIG    1        3.992   2.573  -0.023  0.00  0.00    +0.040 A 
ATOM     15  C   LIG    1        2.637   2.817  -0.009  0.00  0.00    +0.060 A 
ATOM     16  C   LIG    1        1.739   1.752  -0.005  0.00  0.00    -0.180 A 
ATOM     17  S   LIG    1       -0.021   1.702   0.011  0.00  0.00    +0.100 S 
ENDBRANCH   6   9
BRANCH   2  18
ATOM     18  C   LIG    1       -2.822  -5.442   1.306  0.00  0.00    +0.220 C 
BRANCH  18  19
ATOM     19  N   LIG    1       -2.990  -6.875   1.032  0.00  0.00    -0.660 NA
ATOM     20  H   LIG    1       -2.248  -7.219   0.440  0.00  0.00    +0.350 HD
BRANCH  19  21
ATOM     21  C   LIG    1       -3.066  -7.644   2.281  0.00  0.00    +0.310 C 
BRANCH  21  22
ATOM     22  C   LIG    1       -3.820  -8.926   2.036  0.00  0.00    -0.070 A 
ATOM     23  C   LIG    1       -3.622  -9.631   0.864  0.00  0.00    +0.030 A 
ATOM     24  C   LIG    1       -4.311 -10.809   0.641  0.00  0.00    +0.000 A 
ATOM     25  C   LIG    1       -5.203 -11.277   1.587  0.00  0.00    +0.000 A 
ATOM     26  C   LIG    1       -5.405 -10.569   2.757  0.00  0.00    +0.000 A 
ATOM     27  C   LIG    1       -4.714  -9.393   2.981  0.00  0.00    +0.010 A 
ENDBRANCH  21  22
BRANCH  21  28
ATOM     28  C   LIG    1       -1.673  -7.964   2.760  0.00  0.00    -0.210 A 
ATOM     29  C   LIG    1       -1.270  -7.928   4.030  0.00  0.00    +0.020 A 
ATOM     30  C   LIG    1        0.058  -8.265   4.231  0.00  0.00    +0.000 A 
ATOM     31  C   LIG    1        0.734  -8.567   3.122  0.00  0.00    -0.040 A 
ATOM     32  S   LIG    1       -0.330  -8.436   1.727  0.00  0.00    +0.110 S 
ENDBRANCH  21  28
ENDBRANCH  19  21
ENDBRANCH  18  19
ENDBRANCH   2  18
TORSDOF 6
