REMARK  Name = ZINCvU00000006SO.0
REMARK                            x       y       z     vdW  Elec       q    Type
REMARK                         _______ _______ _______ _____ _____    ______ ____
ROOT
ATOM      1  N   LIG    1        0.149  -0.015  -0.091  0.00  0.00    -0.420 N 
ATOM      2  C   LIG    1        0.666  -0.813   0.894  0.00  0.00    +0.210 A 
ATOM      3  N   LIG    1        0.302  -2.047   0.647  0.00  0.00    -0.310 NA
ATOM      4  N   LIG    1       -0.467  -2.047  -0.524  0.00  0.00    -0.320 NA
ATOM      5  C   LIG    1       -0.554  -0.812  -0.953  0.00  0.00    +0.410 A 
ENDROOT
BRANCH   1  10
ATOM      6  C   LIG    1        0.791   5.609  -0.513  0.00  0.00    +0.100 C 
ATOM      7  C   LIG    1        0.621   4.116  -0.401  0.00  0.00    -0.070 A 
ATOM      8  C   LIG    1        1.714   3.284  -0.552  0.00  0.00    +0.020 A 
ATOM      9  C   LIG    1        1.561   1.915  -0.450  0.00  0.00    +0.040 A 
ATOM     10  C   LIG    1        0.308   1.375  -0.195  0.00  0.00    +0.100 A 
ATOM     11  C   LIG    1       -0.789   2.213  -0.050  0.00  0.00    +0.050 A 
ATOM     12  C   LIG    1       -0.629   3.582  -0.147  0.00  0.00    +0.020 A 
ENDBRANCH   1  10
BRANCH   5  13
ATOM     13  N   LIG    1       -1.237  -0.386  -2.085  0.00  0.00    -0.460 N 
ATOM     14  C   LIG    1       -2.667  -0.707  -1.988  0.00  0.00    +0.210 C 
ATOM     15  C   LIG    1       -3.410  -0.098  -3.179  0.00  0.00    +0.030 C 
ATOM     16  C   LIG    1       -2.828  -0.661  -4.479  0.00  0.00    +0.010 C 
ATOM     17  C   LIG    1       -1.329  -0.355  -4.532  0.00  0.00    +0.030 C 
ATOM     18  C   LIG    1       -0.646  -0.957  -3.302  0.00  0.00    +0.210 C 
ENDBRANCH   5  13
BRANCH   2  19
ATOM     19  S   LIG    1        1.647  -0.275   2.256  0.00  0.00    +0.060 S 
BRANCH  19  20
ATOM     20  C   LIG    1        1.984  -1.816   3.150  0.00  0.00    +0.160 C 
ATOM     21  C   LIG    1        0.673  -2.384   3.699  0.00  0.00    +0.110 C 
BRANCH  20  22
ATOM     22  C   LIG    1        2.928  -1.539   4.292  0.00  0.00    +0.200 A 
ATOM     23  N   LIG    1        3.974  -2.252   4.626  0.00  0.00    -0.440 NA
ATOM     24  C   LIG    1        4.513  -1.626   5.699  0.00  0.00    +0.250 A 
ATOM     25  N   LIG    1        3.761  -0.583   5.954  0.00  0.00    -0.350 NA
ATOM     26  O   LIG    1        2.850  -0.521   5.156  0.00  0.00    +0.100 OA
BRANCH  24  27
ATOM     27  C   LIG    1        5.717  -2.043   6.445  0.00  0.00    +0.040 A 
ATOM     28  C   LIG    1        6.247  -1.409   7.525  0.00  0.00    +0.020 A 
ATOM     29  C   LIG    1        7.382  -2.147   7.913  0.00  0.00    -0.060 A 
ATOM     30  C   LIG    1        7.489  -3.185   7.059  0.00  0.00    +0.220 A 
ATOM     31  O   LIG    1        6.479  -3.122   6.177  0.00  0.00    -0.150 OA
ENDBRANCH  24  27
ENDBRANCH  20  22
ENDBRANCH  19  20
ENDBRANCH   2  19
TORSDOF 6
