REMARK  Name = ZINCrH00000No4X5.0
REMARK                            x       y       z     vdW  Elec       q    Type
REMARK                         _______ _______ _______ _____ _____    ______ ____
ROOT
ATOM      1  C   LIG    1        0.054  -0.015  -0.536  0.00  0.00    +0.090 A 
ATOM      2  C   LIG    1        1.151  -0.803  -0.259  0.00  0.00    +0.160 A 
ATOM      3  N   LIG    1        0.717  -2.100  -0.258  0.00  0.00    -0.370 N 
ATOM      4  C   LIG    1        1.362  -3.289  -0.045  0.00  0.00    +0.190 A 
ATOM      5  C   LIG    1        0.690  -4.456  -0.102  0.00  0.00    +0.050 A 
ATOM      6  C   LIG    1       -0.689  -4.469  -0.381  0.00  0.00    +0.010 A 
ATOM      7  C   LIG    1       -1.347  -3.296  -0.595  0.00  0.00    +0.160 A 
ATOM      8  F   LIG    1       -2.671  -3.296  -0.863  0.00  0.00    -0.110 F 
ATOM      9  C   LIG    1       -0.631  -2.080  -0.533  0.00  0.00    +0.180 A 
ATOM     10  N   LIG    1       -1.010  -0.822  -0.691  0.00  0.00    -0.420 NA
ENDROOT
BRANCH   1  15
ATOM     11  C   LIG    1       -1.134   3.528  -1.020  0.00  0.00    +0.110 A 
ATOM     12  C   LIG    1        0.045   4.232  -0.829  0.00  0.00    -0.060 A 
ATOM     13  C   LIG    1        1.220   3.560  -0.543  0.00  0.00    +0.040 A 
ATOM     14  C   LIG    1        1.228   2.183  -0.447  0.00  0.00    +0.020 A 
ATOM     15  C   LIG    1        0.049   1.464  -0.638  0.00  0.00    +0.010 A 
ATOM     16  C   LIG    1       -1.137   2.142  -0.931  0.00  0.00    +0.090 A 
BRANCH  11  18
ATOM     17  C   LIG    1       -2.209   5.619  -1.383  0.00  0.00    +0.240 C 
ATOM     18  O   LIG    1       -2.286   4.194  -1.301  0.00  0.00    -0.310 OA
ENDBRANCH  11  18
BRANCH  16  19
ATOM     19  O   LIG    1       -2.291   1.447  -1.124  0.00  0.00    -0.310 OA
ATOM     20  C   LIG    1       -3.100   1.202   0.027  0.00  0.00    +0.220 C 
ENDBRANCH  16  19
ENDBRANCH   1  15
BRANCH   2  21
ATOM     21  N   LIG    1        2.455  -0.363  -0.024  0.00  0.00    -0.570 N 
ATOM     22  H   LIG    1        2.498   0.217   0.801  0.00  0.00    +0.360 HD
BRANCH  21  23
ATOM     23  C   LIG    1        3.383  -1.497   0.081  0.00  0.00    +0.190 C 
BRANCH  23  24
ATOM     24  C   LIG    1        4.817  -0.974   0.192  0.00  0.00    +0.160 C 
ATOM     25  C   LIG    1        5.816  -2.156   0.268  0.00  0.00    +0.020 C 
ATOM     26  C   LIG    1        7.108  -1.483  -0.272  0.00  0.00    +0.000 C 
ATOM     27  C   LIG    1        6.552  -0.493  -1.318  0.00  0.00    +0.190 C 
ATOM     28  O   LIG    1        5.177  -0.252  -0.997  0.00  0.00    -0.360 OA
ENDBRANCH  23  24
ENDBRANCH  21  23
ENDBRANCH   2  21
TORSDOF 6
