REMARK  Name = ZINCrD0000072Qca.0
REMARK                            x       y       z     vdW  Elec       q    Type
REMARK                         _______ _______ _______ _____ _____    ______ ____
ROOT
ATOM      1  O   LIG    1        3.446   3.502  -0.591  0.00  0.00    -0.310 OA
ENDROOT
BRANCH   1   2
ATOM      2  C   LIG    1        4.479   4.073  -1.240  0.00  0.00    +0.510 C 
ATOM      3  O   LIG    1        5.540   3.488  -1.327  0.00  0.00    -0.490 OA
BRANCH   2   4
ATOM      4  C   LIG    1        4.322   5.412  -1.845  0.00  0.00    -0.060 A 
ATOM      5  C   LIG    1        3.096   6.084  -1.748  0.00  0.00    +0.060 A 
ATOM      6  C   LIG    1        2.940   7.320  -2.296  0.00  0.00    +0.120 A 
ATOM      7  C   LIG    1        4.005   7.931  -2.976  0.00  0.00    +0.060 A 
ATOM      8  N   LIG    1        3.842   9.154  -3.520  0.00  0.00    -0.410 NA
ATOM      9  C   LIG    1        4.814   9.742  -4.155  0.00  0.00    +0.320 A 
ATOM     10  C   LIG    1        6.118   9.079  -4.290  0.00  0.00    +0.490 A 
ATOM     11  N   LIG    1        6.293   7.854  -3.748  0.00  0.00    -0.620 N 
ATOM     12  H   LIG    1        7.146   7.398  -3.826  0.00  0.00    +0.420 HD
ATOM     13  O   LIG    1        7.030   9.626  -4.884  0.00  0.00    -0.500 OA
ATOM     14  C   LIG    1        5.239   7.261  -3.082  0.00  0.00    +0.140 A 
ATOM     15  C   LIG    1        5.391   6.001  -2.514  0.00  0.00    +0.060 A 
ENDBRANCH   2   4
ENDBRANCH   1   2
BRANCH   1  16
ATOM     16  C   LIG    1        3.671   2.185  -0.022  0.00  0.00    +0.290 C 
BRANCH  16  17
ATOM     17  C   LIG    1        2.377   1.413  -0.013  0.00  0.00    -0.090 A 
ATOM     18  C   LIG    1        1.171   2.087   0.002  0.00  0.00    +0.090 A 
ATOM     19  C   LIG    1       -0.017   1.379   0.010  0.00  0.00    +0.040 A 
ATOM     20  C   LIG    1        0.002  -0.004   0.002  0.00  0.00    -0.010 A 
ATOM     21  C   LIG    1        1.210  -0.679  -0.013  0.00  0.00    +0.050 A 
ATOM     22 CL   LIG    1       -1.489  -0.893   0.012  0.00  0.00    -0.050 Cl
ATOM     23  C   LIG    1        2.397   0.029  -0.021  0.00  0.00    +0.000 A 
ATOM     24 CL   LIG    1        3.913  -0.817  -0.039  0.00  0.00    -0.030 Cl
ENDBRANCH  16  17
BRANCH  16  25
ATOM     25  C   LIG    1        4.180   2.329   1.389  0.00  0.00    +0.460 C 
ATOM     26  O   LIG    1        4.251   3.423   1.898  0.00  0.00    -0.480 OA
BRANCH  25  28
ATOM     27  C   LIG    1        5.035   1.455   3.435  0.00  0.00    +0.280 C 
ATOM     28  O   LIG    1        4.555   1.242   2.081  0.00  0.00    -0.340 OA
ENDBRANCH  25  28
ENDBRANCH  16  25
ENDBRANCH   1  16
TORSDOF 6
