REMARK  Name = ZINCvU0000000HU1.0
REMARK                            x       y       z     vdW  Elec       q    Type
REMARK                         _______ _______ _______ _____ _____    ______ ____
ROOT
ATOM      1  N   LIG    1       -1.833   2.239  -6.086  0.00  0.00    -0.650 N 
ATOM      2  H   LIG    1       -1.907   2.917  -5.396  0.00  0.00    +0.420 HD
ATOM      3  C   LIG    1       -2.772   2.151  -7.048  0.00  0.00    +0.580 C 
ATOM      4  O   LIG    1       -2.638   1.357  -7.958  0.00  0.00    -0.500 OA
ENDROOT
BRANCH   1  10
ATOM      5  C   LIG    1       -0.211   0.911  -4.874  0.00  0.00    +0.120 A 
ATOM      6  C   LIG    1        0.866   0.038  -4.878  0.00  0.00    +0.040 A 
ATOM      7  C   LIG    1        1.396  -0.402  -6.077  0.00  0.00    +0.020 A 
ATOM      8  C   LIG    1        0.862   0.036  -7.275  0.00  0.00    +0.020 A 
ATOM      9  C   LIG    1       -0.208   0.911  -7.281  0.00  0.00    +0.040 A 
ATOM     10  C   LIG    1       -0.750   1.353  -6.083  0.00  0.00    +0.110 A 
BRANCH   5  13
ATOM     11  O   LIG    1        1.231   1.283  -2.668  0.00  0.00    -0.510 OA
ATOM     12  C   LIG    1        0.051   1.558  -2.598  0.00  0.00    +0.510 C 
ATOM     13  N   LIG    1       -0.753   1.353  -3.660  0.00  0.00    -0.680 N 
ATOM     14  H   LIG    1       -1.707   1.512  -3.584  0.00  0.00    +0.410 HD
BRANCH  12  15
ATOM     15  C   LIG    1       -0.515   2.129  -1.323  0.00  0.00    +0.070 C 
BRANCH  15  16
ATOM     16  C   LIG    1        0.600   2.260  -0.284  0.00  0.00    +0.040 C 
ATOM     17  C   LIG    1        1.590   3.321  -0.704  0.00  0.00    -0.030 C 
ATOM     18  C   LIG    1        1.903   4.096   0.299  0.00  0.00    -0.050 C 
ATOM     19  C   LIG    1        1.174   3.679   1.556  0.00  0.00    +0.050 C 
ATOM     20  C   LIG    1        0.029   2.765   1.061  0.00  0.00    +0.020 C 
ENDBRANCH  15  16
ENDBRANCH  12  15
ENDBRANCH   5  13
ENDBRANCH   1  10
BRANCH   3  21
ATOM     21  C   LIG    1       -3.969   3.023  -6.997  0.00  0.00    +0.080 A 
ATOM     22  C   LIG    1       -4.936   2.926  -7.995  0.00  0.00    +0.040 A 
ATOM     23  C   LIG    1       -6.054   3.745  -7.939  0.00  0.00    +0.080 A 
ATOM     24  C   LIG    1       -6.170   4.636  -6.886  0.00  0.00    +0.010 A 
ATOM     25  C   LIG    1       -5.164   4.682  -5.918  0.00  0.00    +0.170 A 
ATOM     26  N   LIG    1       -4.112   3.883  -5.997  0.00  0.00    -0.460 NA
BRANCH  25  27
ATOM     27  C   LIG    1       -5.279   5.634  -4.785  0.00  0.00    -0.060 A 
ATOM     28  C   LIG    1       -6.382   6.480  -4.692  0.00  0.00    +0.070 A 
ATOM     29  C   LIG    1       -6.487   7.359  -3.635  0.00  0.00    -0.010 A 
ATOM     30  C   LIG    1       -5.493   7.410  -2.671  0.00  0.00    +0.110 A 
ATOM     31  C   LIG    1       -4.391   6.574  -2.763  0.00  0.00    -0.020 A 
ATOM     32  F   LIG    1       -5.597   8.276  -1.640  0.00  0.00    -0.130 F 
ATOM     33  C   LIG    1       -4.280   5.688  -3.814  0.00  0.00    +0.090 A 
ENDBRANCH  25  27
ENDBRANCH   3  21
TORSDOF 6
