REMARK  Name = ZINCpk00000y6x2b.2
REMARK                            x       y       z     vdW  Elec       q    Type
REMARK                         _______ _______ _______ _____ _____    ______ ____
ROOT
ATOM      1  N   LIG    1        4.591   0.468   1.278  0.00  0.00    -0.730 N 
ATOM      2  H   LIG    1        4.320  -0.411   1.587  0.00  0.00    +0.400 HD
ATOM      3  C   LIG    1        3.709   1.258   0.635  0.00  0.00    +0.700 C 
ATOM      4  N   LIG    1        2.449   0.829   0.422  0.00  0.00    -0.740 N 
ATOM      5  H   LIG    1        2.178  -0.050   0.731  0.00  0.00    +0.400 HD
ATOM      6  O   LIG    1        4.049   2.360   0.248  0.00  0.00    -0.590 OA
ENDROOT
BRANCH   1   7
ATOM      7  C   LIG    1        5.960   0.934   1.509  0.00  0.00    +0.290 C 
BRANCH   7  13
ATOM      8  C   LIG    1        7.796  -3.629   1.633  0.00  0.00    +0.190 C 
ATOM      9  N   LIG    1        7.560  -2.392   2.388  0.00  0.00    -0.550 NA
ATOM     10  C   LIG    1        6.804  -2.662   3.619  0.00  0.00    +0.180 C 
ATOM     11  C   LIG    1        6.648  -1.364   4.415  0.00  0.00    +0.180 C 
ATOM     12  N   LIG    1        5.959  -0.365   3.586  0.00  0.00    -0.540 NA
ATOM     13  C   LIG    1        6.714  -0.094   2.354  0.00  0.00    +0.140 C 
ATOM     14  C   LIG    1        5.723   0.873   4.341  0.00  0.00    +0.190 C 
ATOM     15  C   LIG    1        6.870  -1.393   1.559  0.00  0.00    +0.180 C 
ENDBRANCH   7  13
ENDBRANCH   1   7
BRANCH   4  16
ATOM     16  C   LIG    1        1.490   1.689  -0.276  0.00  0.00    +0.310 C 
BRANCH  16  17
ATOM     17  C   LIG    1        0.145   0.968  -0.385  0.00  0.00    -0.030 C 
ATOM     18  C   LIG    1       -1.052   1.591   0.339  0.00  0.00    +0.040 C 
ATOM     19  C   LIG    1       -0.958   1.655  -1.181  0.00  0.00    -0.080 C 
ATOM     20  C   LIG    1       -1.915   0.846  -2.074  0.00  0.00    +0.080 C 
ATOM     21  C   LIG    1       -1.618   1.421  -3.476  0.00  0.00    +0.080 C 
ATOM     22  C   LIG    1       -1.100   2.822  -3.231  0.00  0.00    -0.090 A 
ATOM     23  C   LIG    1       -0.971   3.895  -4.095  0.00  0.00    +0.010 A 
ATOM     24  C   LIG    1       -0.463   5.097  -3.643  0.00  0.00    +0.000 A 
ATOM     25  C   LIG    1       -0.080   5.230  -2.321  0.00  0.00    +0.000 A 
ATOM     26  C   LIG    1       -0.207   4.161  -1.456  0.00  0.00    +0.020 A 
ATOM     27  C   LIG    1       -0.718   2.955  -1.907  0.00  0.00    -0.060 A 
ENDBRANCH  16  17
ENDBRANCH   4  16
TORSDOF 4
