REMARK  Name = ZINCpk000000pSwG.0
REMARK                            x       y       z     vdW  Elec       q    Type
REMARK                         _______ _______ _______ _____ _____    ______ ____
ROOT
ATOM      1  N   LIG    1       -0.717   7.814   0.049  0.00  0.00    -0.370 N 
ATOM      2  C   LIG    1        0.628   7.776   0.034  0.00  0.00    +0.500 A 
ATOM      3  N   LIG    1        1.002   6.524   0.025  0.00  0.00    -0.520 NA
ATOM      4  C   LIG    1       -0.076   5.728   0.032  0.00  0.00    +0.240 A 
ATOM      5  N   LIG    1       -1.155   6.480   0.041  0.00  0.00    -0.260 NA
ENDROOT
BRANCH   4   6
ATOM      6  C   LIG    1       -0.056   4.244   0.025  0.00  0.00    +0.050 A 
ATOM      7  C   LIG    1        1.159   3.561   0.010  0.00  0.00    +0.080 A 
ATOM      8  C   LIG    1        1.172   2.181   0.003  0.00  0.00    +0.100 A 
ATOM      9  C   LIG    1       -0.018   1.476   0.010  0.00  0.00    -0.040 A 
ATOM     10  C   LIG    1       -1.227   2.149   0.020  0.00  0.00    +0.100 A 
ATOM     11  C   LIG    1       -1.251   3.529   0.033  0.00  0.00    +0.060 A 
BRANCH   9  12
ATOM     12  N   LIG    1        0.002  -0.004   0.002  0.00  0.00    +0.030 N 
ATOM     13  O   LIG    1       -1.044  -0.627   0.009  0.00  0.00    -0.160 OA
ATOM     14  O   LIG    1        1.065  -0.599  -0.011  0.00  0.00    -0.160 OA
ENDBRANCH   9  12
ENDBRANCH   4   6
BRANCH   1  15
ATOM     15  C   LIG    1       -1.559   9.013   0.062  0.00  0.00    +0.370 C 
BRANCH  15  21
ATOM     16  C   LIG    1       -5.764  10.207  -1.846  0.00  0.00    +0.150 C 
ATOM     17  C   LIG    1       -4.360   9.935  -2.400  0.00  0.00    +0.260 C 
ATOM     18  N   LIG    1       -3.406   9.964  -1.280  0.00  0.00    -0.610 N 
ATOM     19  C   LIG    1       -3.444  11.118  -0.368  0.00  0.00    +0.250 C 
ATOM     20  C   LIG    1       -4.889  11.336   0.083  0.00  0.00    +0.220 C 
ATOM     21  C   LIG    1       -2.527   8.960  -1.092  0.00  0.00    +0.500 C 
ATOM     22  O   LIG    1       -2.514   8.015  -1.851  0.00  0.00    -0.500 OA
ATOM     23  O   LIG    1       -5.737  11.405  -1.065  0.00  0.00    -0.370 OA
BRANCH  16  25
ATOM     24  C   LIG    1       -8.166  10.523  -2.454  0.00  0.00    +0.020 C 
ATOM     25  C   LIG    1       -6.747  10.375  -3.006  0.00  0.00    +0.040 C 
ENDBRANCH  16  25
ENDBRANCH  15  21
ENDBRANCH   1  15
TORSDOF 5
