REMARK  Name = ZINCrD0000075AZb.0
REMARK                            x       y       z     vdW  Elec       q    Type
REMARK                         _______ _______ _______ _____ _____    ______ ____
ROOT
ATOM      1  O   LIG    1        5.663   7.084   2.985  0.00  0.00    -0.520 OA
ATOM      2  C   LIG    1        5.529   7.936   2.128  0.00  0.00    +0.560 C 
ATOM      3  N   LIG    1        4.581   7.796   1.180  0.00  0.00    -0.720 N 
ATOM      4  H   LIG    1        4.475   8.475   0.496  0.00  0.00    +0.400 HD
ENDROOT
BRANCH   2   5
ATOM      5  C   LIG    1        6.407   9.126   2.125  0.00  0.00    -0.070 A 
ATOM      6  C   LIG    1        6.260  10.102   1.139  0.00  0.00    +0.050 A 
ATOM      7  C   LIG    1        7.078  11.213   1.144  0.00  0.00    +0.110 A 
ATOM      8  C   LIG    1        8.051  11.356   2.117  0.00  0.00    -0.200 A 
ATOM      9  C   LIG    1        8.206  10.388   3.096  0.00  0.00    +0.150 A 
ATOM     10  F   LIG    1        9.159  10.534   4.044  0.00  0.00    -0.120 F 
ATOM     11  C   LIG    1        7.389   9.274   3.105  0.00  0.00    +0.060 A 
BRANCH   8  12
ATOM     12  C   LIG    1        8.945  12.569   2.112  0.00  0.00    +0.510 C 
ATOM     13  F   LIG    1       10.278  12.165   1.982  0.00  0.00    -0.170 F 
ATOM     14  F   LIG    1        8.785  13.271   3.311  0.00  0.00    -0.170 F 
ATOM     15  F   LIG    1        8.601  13.398   1.038  0.00  0.00    -0.170 F 
ENDBRANCH   8  12
ENDBRANCH   2   5
BRANCH   3  16
ATOM     16  C   LIG    1        3.712   6.617   1.183  0.00  0.00    +0.280 C 
BRANCH  16  17
ATOM     17  C   LIG    1        2.732   6.703   0.011  0.00  0.00    +0.150 C 
BRANCH  17  18
ATOM     18  C   LIG    1        1.837   5.490   0.013  0.00  0.00    +0.010 A 
ATOM     19  N   LIG    1        2.211   4.230   0.008  0.00  0.00    -0.280 NA
ATOM     20  N   LIG    1        1.161   3.488   0.009  0.00  0.00    -0.100 N 
ATOM     21  N   LIG    1        0.095   4.206   0.023  0.00  0.00    -0.280 NA
ATOM     22  C   LIG    1        0.440   5.474   0.027  0.00  0.00    +0.200 A 
BRANCH  20  23
ATOM     23  C   LIG    1        1.177   2.086   0.002  0.00  0.00    +0.140 A 
ATOM     24  C   LIG    1       -0.017   1.377   0.010  0.00  0.00    +0.040 A 
ATOM     25  C   LIG    1        0.002  -0.004   0.002  0.00  0.00    +0.040 A 
ATOM     26  C   LIG    1        1.208  -0.680  -0.013  0.00  0.00    +0.020 A 
ATOM     27  C   LIG    1        2.398   0.023  -0.021  0.00  0.00    +0.040 A 
ATOM     28  C   LIG    1        2.386   1.404  -0.014  0.00  0.00    +0.040 A 
ENDBRANCH  20  23
ENDBRANCH  17  18
ENDBRANCH  16  17
ENDBRANCH   3  16
TORSDOF 6
