REMARK  Name = ZINCpk0000050FGh.0
REMARK                            x       y       z     vdW  Elec       q    Type
REMARK                         _______ _______ _______ _____ _____    ______ ____
ROOT
ATOM      1  N   LIG    1        2.320   3.766   0.000  0.00  0.00    -0.460 N 
ATOM      2  C   LIG    1        2.388   4.704  -1.128  0.00  0.00    +0.210 C 
ATOM      3  C   LIG    1        3.650   5.563  -1.000  0.00  0.00    +0.300 C 
ATOM      4  N   LIG    1        4.811   4.669  -0.863  0.00  0.00    -0.620 N 
ATOM      5  C   LIG    1        4.759   3.612   0.159  0.00  0.00    +0.290 C 
ATOM      6  C   LIG    1        5.893   4.816  -1.653  0.00  0.00    +0.520 C 
ATOM      7  O   LIG    1        6.841   4.070  -1.526  0.00  0.00    -0.530 OA
ATOM      8  C   LIG    1        3.453   2.831  -0.016  0.00  0.00    +0.230 C 
ENDROOT
BRANCH   1  13
ATOM      9  C   LIG    1       -1.188   3.152   0.030  0.00  0.00    +0.390 A 
ATOM     10  C   LIG    1       -1.215   1.758   0.017  0.00  0.00    -0.120 A 
ATOM     11  C   LIG    1       -0.013   1.076   0.008  0.00  0.00    +0.380 A 
ATOM     12  N   LIG    1        1.121   1.761   0.001  0.00  0.00    -0.570 NA
ATOM     13  C   LIG    1        1.115   3.086   0.008  0.00  0.00    +0.530 A 
ATOM     14  N   LIG    1       -0.016   3.775   0.022  0.00  0.00    -0.590 NA
BRANCH   9  15
ATOM     15  O   LIG    1       -2.343   3.861   0.044  0.00  0.00    -0.300 OA
BRANCH  15  17
ATOM     16  C   LIG    1       -3.627   5.908   0.067  0.00  0.00    +0.060 C 
ATOM     17  C   LIG    1       -2.230   5.285   0.051  0.00  0.00    +0.200 C 
ENDBRANCH  15  17
ENDBRANCH   9  15
ENDBRANCH   1  13
BRANCH   6  18
ATOM     18  C   LIG    1        5.925   5.905  -2.693  0.00  0.00    +0.120 C 
BRANCH  18  19
ATOM     19  C   LIG    1        7.236   5.853  -3.435  0.00  0.00    -0.130 A 
ATOM     20  C   LIG    1        8.326   6.582  -2.985  0.00  0.00    +0.070 A 
ATOM     21  C   LIG    1        9.514   6.499  -3.696  0.00  0.00    -0.030 A 
ATOM     22  C   LIG    1        9.567   5.709  -4.828  0.00  0.00    +0.130 A 
ATOM     23  N   LIG    1        8.508   5.033  -5.230  0.00  0.00    -0.480 NA
ATOM     24  C   LIG    1       10.851   5.617  -5.612  0.00  0.00    +0.130 C 
ATOM     25  C   LIG    1        7.365   5.083  -4.575  0.00  0.00    +0.270 A 
ENDBRANCH  18  19
ENDBRANCH   6  18
TORSDOF 5
