REMARK  Name = ZINCAx0000000bxc.0
REMARK                            x       y       z     vdW  Elec       q    Type
REMARK                         _______ _______ _______ _____ _____    ______ ____
ROOT
ATOM      1  N   LIG    1        6.600   4.647  -3.144  0.00  0.00    -0.590 N 
ATOM      2  C   LIG    1        5.532   3.865  -2.892  0.00  0.00    +0.530 C 
ATOM      3  O   LIG    1        4.886   3.406  -3.811  0.00  0.00    -0.530 OA
ENDROOT
BRANCH   1   5
ATOM      4  C   LIG    1        8.501   4.228  -1.662  0.00  0.00    +0.010 C 
ATOM      5  C   LIG    1        7.380   5.201  -2.035  0.00  0.00    +0.280 C 
ENDBRANCH   1   5
BRANCH   2   6
ATOM      6  C   LIG    1        5.139   3.562  -1.469  0.00  0.00    +0.070 C 
BRANCH   6   7
ATOM      7  C   LIG    1        3.902   2.661  -1.463  0.00  0.00    +0.040 C 
BRANCH   7   8
ATOM      8  C   LIG    1        3.503   2.353  -0.018  0.00  0.00    +0.290 C 
BRANCH   8   9
ATOM      9  N   LIG    1        2.319   1.490  -0.012  0.00  0.00    -0.550 N 
ATOM     10  C   LIG    1        1.080   2.048   0.003  0.00  0.00    +0.570 A 
ATOM     11  N   LIG    1       -0.016   1.352   0.009  0.00  0.00    -0.520 NA
ATOM     12  C   LIG    1        0.002  -0.004   0.002  0.00  0.00    +0.150 A 
ATOM     13  C   LIG    1       -1.176  -0.753   0.010  0.00  0.00    -0.080 A 
ATOM     14  C   LIG    1       -1.111  -2.128   0.002  0.00  0.00    +0.050 A 
ATOM     15  C   LIG    1        0.115  -2.782  -0.013  0.00  0.00    +0.000 A 
ATOM     16  C   LIG    1        1.291  -2.065  -0.021  0.00  0.00    +0.090 A 
ATOM     17  C   LIG    1       -2.514  -0.059   0.027  0.00  0.00    +0.110 C 
ATOM     18  C   LIG    1        1.247  -0.672  -0.013  0.00  0.00    -0.190 A 
ATOM     19  C   LIG    1        2.469   0.145  -0.021  0.00  0.00    +0.550 A 
ATOM     20  O   LIG    1        3.573  -0.368  -0.034  0.00  0.00    -0.510 OA
ENDBRANCH   8   9
ENDBRANCH   7   8
ENDBRANCH   6   7
ENDBRANCH   2   6
BRANCH   1  21
ATOM     21  C   LIG    1        6.982   4.942  -4.527  0.00  0.00    +0.400 C 
BRANCH  21  22
ATOM     22  C   LIG    1        6.277   6.191  -4.988  0.00  0.00    +0.430 A 
ATOM     23  N   LIG    1        5.476   6.792  -4.152  0.00  0.00    -0.580 NA
ATOM     24  C   LIG    1        4.814   7.916  -4.488  0.00  0.00    +0.540 A 
ATOM     25  C   LIG    1        5.007   8.456  -5.844  0.00  0.00    -0.210 A 
ATOM     26  C   LIG    1        4.358   9.612  -6.278  0.00  0.00    +0.070 A 
ATOM     27  C   LIG    1        4.577  10.073  -7.560  0.00  0.00    +0.080 A 
ATOM     28  C   LIG    1        5.441   9.387  -8.418  0.00  0.00    +0.170 A 
ATOM     29  C   LIG    1        6.089   8.240  -7.995  0.00  0.00    -0.070 A 
ATOM     30  C   LIG    1        5.878   7.766  -6.709  0.00  0.00    +0.190 A 
ATOM     31  O   LIG    1        4.073   8.468  -3.693  0.00  0.00    -0.480 OA
ATOM     32  N   LIG    1        6.502   6.625  -6.240  0.00  0.00    -0.620 N 
ATOM     33  H   LIG    1        7.106   6.134  -6.819  0.00  0.00    +0.420 HD
BRANCH  28  34
ATOM     34  O   LIG    1        5.647   9.851  -9.678  0.00  0.00    -0.290 OA
ATOM     35  C   LIG    1        6.542   9.105 -10.506  0.00  0.00    +0.250 C 
ENDBRANCH  28  34
BRANCH  27  36
ATOM     36  O   LIG    1        3.948  11.199  -7.991  0.00  0.00    -0.300 OA
ATOM     37  C   LIG    1        3.078  11.851  -7.064  0.00  0.00    +0.250 C 
ENDBRANCH  27  36
ENDBRANCH  21  22
ENDBRANCH   1  21
TORSDOF 9
