REMARK  Name = ZINCrH000004l7Gm.0
REMARK                            x       y       z     vdW  Elec       q    Type
REMARK                         _______ _______ _______ _____ _____    ______ ____
ROOT
ATOM      1  N   LIG    1        1.538   1.038  -3.114  0.00  0.00    -1.090 NA
ATOM      2  H   LIG    1        0.842   0.470  -2.749  0.00  0.00    +0.420 HD
ENDROOT
BRANCH   1   3
ATOM      3  S   LIG    1        1.578   1.363  -4.737  0.00  0.00    +2.710 S 
ATOM      4  O   LIG    1        1.750   2.768  -4.862  0.00  0.00    -0.950 OA
ATOM      5  O   LIG    1        0.486   0.659  -5.313  0.00  0.00    -0.940 OA
BRANCH   3   7
ATOM      6  C   LIG    1        3.263  -0.727  -5.386  0.00  0.00    -0.150 A 
ATOM      7  C   LIG    1        3.042   0.623  -5.381  0.00  0.00    -0.610 A 
ATOM      8  C   LIG    1        4.073   1.344  -5.933  0.00  0.00    +0.080 A 
ATOM      9  C   LIG    1        5.108   0.615  -6.367  0.00  0.00    -0.060 A 
ATOM     10  S   LIG    1        4.832  -1.049  -6.111  0.00  0.00    +0.310 S 
BRANCH   6  11
ATOM     11  C   LIG    1        2.341  -1.740  -4.871  0.00  0.00    +0.530 C 
ATOM     12  O   LIG    1        1.325  -1.401  -4.295  0.00  0.00    -0.470 OA
BRANCH  11  14
ATOM     13  C   LIG    1        1.607  -3.997  -4.601  0.00  0.00    +0.290 C 
ATOM     14  O   LIG    1        2.618  -3.050  -5.036  0.00  0.00    -0.350 OA
ENDBRANCH  11  14
ENDBRANCH   6  11
ENDBRANCH   3   7
ENDBRANCH   1   3
BRANCH   1  15
ATOM     15  C   LIG    1        2.556   1.609  -2.228  0.00  0.00    +0.300 C 
BRANCH  15  16
ATOM     16  C   LIG    1        3.670   0.614  -2.035  0.00  0.00    -0.110 A 
ATOM     17  C   LIG    1        3.377  -0.700  -1.721  0.00  0.00    +0.020 A 
ATOM     18  C   LIG    1        4.399  -1.615  -1.549  0.00  0.00    +0.000 A 
ATOM     19  C   LIG    1        5.715  -1.213  -1.681  0.00  0.00    +0.010 A 
ATOM     20  C   LIG    1        6.009   0.102  -1.990  0.00  0.00    +0.000 A 
ATOM     21  C   LIG    1        4.987   1.015  -2.166  0.00  0.00    +0.010 A 
ENDBRANCH  15  16
BRANCH  15  22
ATOM     22  C   LIG    1        1.926   1.938  -0.873  0.00  0.00    +0.090 C 
BRANCH  22  23
ATOM     23  C   LIG    1        0.895   3.023  -1.048  0.00  0.00    -0.080 A 
ATOM     24  C   LIG    1       -0.419   2.692  -1.318  0.00  0.00    +0.010 A 
ATOM     25  C   LIG    1       -1.363   3.687  -1.485  0.00  0.00    +0.000 A 
ATOM     26  C   LIG    1       -0.995   5.015  -1.370  0.00  0.00    +0.000 A 
ATOM     27  C   LIG    1        0.319   5.347  -1.100  0.00  0.00    +0.000 A 
ATOM     28  C   LIG    1        1.264   4.351  -0.939  0.00  0.00    +0.010 A 
ENDBRANCH  22  23
ENDBRANCH  15  22
ENDBRANCH   1  15
TORSDOF 8
