REMARK  Name = ZINCtV00001bB3dj.0
REMARK                            x       y       z     vdW  Elec       q    Type
REMARK                         _______ _______ _______ _____ _____    ______ ____
ROOT
ATOM      1  C   LIG    1        1.652   8.105  -0.623  0.00  0.00    +0.550 C 
ATOM      2  N   LIG    1        0.348   7.851  -0.391  0.00  0.00    -0.670 N 
ATOM      3  H   LIG    1       -0.279   8.584  -0.297  0.00  0.00    +0.410 HD
ATOM      4  O   LIG    1        2.454   7.189  -0.657  0.00  0.00    -0.530 OA
ENDROOT
BRANCH   2   5
ATOM      5  C   LIG    1       -0.099   6.528  -0.285  0.00  0.00    +0.140 A 
ATOM      6  C   LIG    1        0.715   5.564   0.296  0.00  0.00    +0.050 A 
ATOM      7  C   LIG    1        0.274   4.261   0.400  0.00  0.00    +0.050 A 
ATOM      8  C   LIG    1       -0.984   3.912  -0.076  0.00  0.00    -0.110 A 
ATOM      9  C   LIG    1       -1.796   4.876  -0.663  0.00  0.00    +0.030 A 
ATOM     10  C   LIG    1       -1.357   6.181  -0.762  0.00  0.00    +0.000 A 
BRANCH   8  11
ATOM     11  S   LIG    1       -1.547   2.248   0.057  0.00  0.00    -0.000 S 
BRANCH  11  12
ATOM     12  C   LIG    1       -3.086   2.281  -0.800  0.00  0.00    -0.130 A 
ATOM     13  C   LIG    1       -4.272   2.458  -0.097  0.00  0.00    +0.080 A 
ATOM     14  C   LIG    1       -5.476   2.478  -0.771  0.00  0.00    +0.040 A 
ATOM     15  C   LIG    1       -5.505   2.320  -2.146  0.00  0.00    -0.060 A 
ATOM     16  C   LIG    1       -4.326   2.143  -2.849  0.00  0.00    +0.040 A 
ATOM     17 BR   LIG    1       -7.157   2.346  -3.065  0.00  0.00    -0.040 Br
ATOM     18  C   LIG    1       -3.118   2.123  -2.181  0.00  0.00    +0.080 A 
ENDBRANCH  11  12
ENDBRANCH   8  11
ENDBRANCH   2   5
BRANCH   1  20
ATOM     19  C   LIG    1        3.408   9.734  -1.065  0.00  0.00    +0.140 C 
ATOM     20  C   LIG    1        2.102   9.480  -0.833  0.00  0.00    -0.100 C 
BRANCH  19  24
ATOM     21  C   LIG    1        4.710  13.728  -1.676  0.00  0.00    +0.120 A 
ATOM     22  C   LIG    1        3.368  13.465  -1.437  0.00  0.00    -0.040 A 
ATOM     23  C   LIG    1        2.940  12.170  -1.244  0.00  0.00    +0.040 A 
ATOM     24  C   LIG    1        3.861  11.117  -1.277  0.00  0.00    -0.080 A 
ATOM     25  C   LIG    1        5.214  11.383  -1.518  0.00  0.00    -0.010 A 
ATOM     26  C   LIG    1        5.633  12.683  -1.716  0.00  0.00    +0.100 A 
BRANCH  21  28
ATOM     27  C   LIG    1        4.128  16.028  -1.816  0.00  0.00    +0.240 C 
ATOM     28  O   LIG    1        5.126  15.006  -1.870  0.00  0.00    -0.300 OA
ENDBRANCH  21  28
BRANCH  26  29
ATOM     29  O   LIG    1        6.947  12.945  -1.950  0.00  0.00    -0.310 OA
ATOM     30  C   LIG    1        7.837  11.828  -1.977  0.00  0.00    +0.240 C 
ENDBRANCH  26  29
ENDBRANCH  19  24
ENDBRANCH   1  20
TORSDOF 7
