REMARK  Name = ZINCrD000000CDjr.0
REMARK                            x       y       z     vdW  Elec       q    Type
REMARK                         _______ _______ _______ _____ _____    ______ ____
ROOT
ATOM      1  C   LIG    1       -1.192   3.607   0.139  0.00  0.00    -0.110 A 
ATOM      2  C   LIG    1        0.014   4.314   0.137  0.00  0.00    +0.060 A 
ATOM      3  C   LIG    1        0.012   5.686   0.248  0.00  0.00    +0.040 A 
ATOM      4  C   LIG    1       -1.190   6.373   0.363  0.00  0.00    +0.110 A 
ATOM      5  C   LIG    1       -2.401   5.672   0.365  0.00  0.00    +0.100 A 
ATOM      6  N   LIG    1       -3.414   6.621   0.491  0.00  0.00    -0.640 N 
ATOM      7  H   LIG    1       -4.366   6.435   0.523  0.00  0.00    +0.440 HD
ATOM      8  C   LIG    1       -2.845   7.839   0.562  0.00  0.00    +0.690 A 
ATOM      9  O   LIG    1       -3.449   8.889   0.677  0.00  0.00    -0.530 OA
ATOM     10  N   LIG    1       -1.506   7.720   0.487  0.00  0.00    -0.540 N 
ATOM     11  C   LIG    1       -2.403   4.295   0.248  0.00  0.00    +0.090 A 
ENDROOT
BRANCH   1  13
ATOM     12  O   LIG    1       -1.885   1.591  -0.813  0.00  0.00    -0.520 OA
ATOM     13  C   LIG    1       -1.187   2.136   0.019  0.00  0.00    +0.570 C 
ATOM     14  N   LIG    1       -0.407   1.397   0.833  0.00  0.00    -0.610 N 
ATOM     15  C   LIG    1       -0.457  -0.071   0.788  0.00  0.00    +0.300 C 
ATOM     16  C   LIG    1       -0.726  -0.599   2.200  0.00  0.00    +0.030 C 
ATOM     17  C   LIG    1        0.324  -0.035   3.160  0.00  0.00    -0.010 C 
ATOM     18  C   LIG    1        0.225   1.492   3.188  0.00  0.00    +0.030 C 
ATOM     19  C   LIG    1        0.505   2.043   1.787  0.00  0.00    +0.290 C 
BRANCH  17  20
ATOM     20  C   LIG    1        0.079  -0.588   4.566  0.00  0.00    +0.450 C 
ATOM     21  F   LIG    1        1.040  -0.074   5.443  0.00  0.00    -0.180 F 
ATOM     22  F   LIG    1        0.170  -1.984   4.540  0.00  0.00    -0.180 F 
ATOM     23  F   LIG    1       -1.197  -0.211   4.999  0.00  0.00    -0.180 F 
ENDBRANCH  17  20
ENDBRANCH   1  13
BRANCH  10  24
ATOM     24  C   LIG    1       -0.545   8.824   0.529  0.00  0.00    +0.370 C 
BRANCH  24  25
ATOM     25  C   LIG    1       -0.281   9.325  -0.892  0.00  0.00    +0.430 C 
ATOM     26  F   LIG    1        0.241   8.282  -1.665  0.00  0.00    -0.180 F 
ATOM     27  F   LIG    1        0.637  10.380  -0.852  0.00  0.00    -0.170 F 
ATOM     28  F   LIG    1       -1.479   9.771  -1.459  0.00  0.00    -0.170 F 
ENDBRANCH  24  25
ENDBRANCH  10  24
TORSDOF 4
