REMARK  Name = ZINCkj00000y7Ewy.0
REMARK                            x       y       z     vdW  Elec       q    Type
REMARK                         _______ _______ _______ _____ _____    ______ ____
ROOT
ATOM      1  C   LIG    1       -3.572   1.733   2.935  0.00  0.00    +0.140 C 
ATOM      2  C   LIG    1       -3.843   1.850   4.449  0.00  0.00    +0.070 C 
ATOM      3  C   LIG    1       -4.276   3.330   4.614  0.00  0.00    +0.080 C 
ATOM      4  C   LIG    1       -3.378   4.037   3.568  0.00  0.00    +0.270 C 
ATOM      5  N   LIG    1       -3.307   3.094   2.432  0.00  0.00    -0.390 N 
ATOM      6  H   LIG    1       -3.999   3.341   1.741  0.00  0.00    +0.430 HD
ENDROOT
BRANCH   1   7
ATOM      7  C   LIG    1       -2.352   0.842   2.691  0.00  0.00    +0.300 C 
BRANCH   7  10
ATOM      8  C   LIG    1       -1.477   0.135   5.293  0.00  0.00    +0.110 C 
ATOM      9  C   LIG    1       -2.182  -0.869   4.418  0.00  0.00    +0.520 C 
ATOM     10  N   LIG    1       -2.624  -0.506   3.198  0.00  0.00    -0.590 N 
ATOM     11  O   LIG    1       -2.352  -2.004   4.812  0.00  0.00    -0.500 OA
BRANCH  10  12
ATOM     12  C   LIG    1       -3.376  -1.459   2.378  0.00  0.00    +0.220 C 
ATOM     13  C   LIG    1       -4.845  -1.141   2.093  0.00  0.00    +0.010 C 
ATOM     14  C   LIG    1       -3.804  -1.005   0.980  0.00  0.00    +0.030 C 
ENDBRANCH  10  12
ENDBRANCH   7  10
ENDBRANCH   1   7
BRANCH   5  15
ATOM     15  C   LIG    1       -1.968   3.146   1.829  0.00  0.00    +0.360 C 
BRANCH  15  16
ATOM     16  C   LIG    1       -1.749   4.502   1.209  0.00  0.00    -0.000 A 
ATOM     17  C   LIG    1       -1.144   5.559   1.796  0.00  0.00    -0.050 A 
ATOM     18  C   LIG    1       -1.145   6.618   0.882  0.00  0.00    +0.250 A 
ATOM     19  N   LIG    1       -1.737   6.213  -0.212  0.00  0.00    -0.250 NA
ATOM     20  N   LIG    1       -2.127   4.880  -0.030  0.00  0.00    -0.360 N 
ATOM     21  C   LIG    1       -2.823   4.045  -1.012  0.00  0.00    +0.370 C 
ENDBRANCH  15  16
ENDBRANCH   5  15
TORSDOF 5
