REMARK  Name = ZINCkj00000y7Ewy.1
REMARK                            x       y       z     vdW  Elec       q    Type
REMARK                         _______ _______ _______ _____ _____    ______ ____
ROOT
ATOM      1  C   LIG    1       -1.418   3.535   1.684  0.00  0.00    +0.160 C 
ATOM      2  C   LIG    1       -0.741   4.028   2.980  0.00  0.00    +0.100 C 
ATOM      3  C   LIG    1        0.215   2.861   3.341  0.00  0.00    +0.080 C 
ATOM      4  C   LIG    1       -0.611   1.633   2.895  0.00  0.00    +0.260 C 
ATOM      5  N   LIG    1       -1.305   2.066   1.664  0.00  0.00    -0.380 N 
ATOM      6  H   LIG    1       -2.226   1.655   1.631  0.00  0.00    +0.420 HD
ENDROOT
BRANCH   1   7
ATOM      7  C   LIG    1       -2.893   3.944   1.675  0.00  0.00    +0.340 C 
BRANCH   7  10
ATOM      8  C   LIG    1       -4.224   3.536  -1.889  0.00  0.00    +0.110 C 
ATOM      9  C   LIG    1       -3.474   4.052  -0.688  0.00  0.00    +0.520 C 
ATOM     10  N   LIG    1       -3.545   3.393   0.485  0.00  0.00    -0.610 N 
ATOM     11  O   LIG    1       -2.807   5.061  -0.778  0.00  0.00    -0.520 OA
BRANCH  10  12
ATOM     12  C   LIG    1       -4.275   2.125   0.570  0.00  0.00    +0.140 C 
ATOM     13  C   LIG    1       -5.706   2.096   0.031  0.00  0.00    +0.070 C 
ATOM     14  C   LIG    1       -5.455   2.054   1.541  0.00  0.00    +0.060 C 
ENDBRANCH  10  12
ENDBRANCH   7  10
ENDBRANCH   1   7
BRANCH   5  15
ATOM     15  C   LIG    1       -0.532   1.645   0.487  0.00  0.00    +0.350 C 
BRANCH  15  16
ATOM     16  C   LIG    1       -0.532   0.141   0.397  0.00  0.00    +0.030 A 
ATOM     17  C   LIG    1       -1.466  -0.689   0.916  0.00  0.00    -0.110 A 
ATOM     18  C   LIG    1       -1.093  -2.002   0.609  0.00  0.00    +0.260 A 
ATOM     19  N   LIG    1        0.025  -1.961  -0.069  0.00  0.00    -0.260 NA
ATOM     20  N   LIG    1        0.396  -0.619  -0.220  0.00  0.00    -0.350 N 
ATOM     21  C   LIG    1        1.585  -0.127  -0.922  0.00  0.00    +0.370 C 
ENDBRANCH  15  16
ENDBRANCH   5  15
TORSDOF 5
