REMARK  Name = ZINCrg000000rWQp.0
REMARK                            x       y       z     vdW  Elec       q    Type
REMARK                         _______ _______ _______ _____ _____    ______ ____
ROOT
ATOM      1  C   LIG    1        5.786   3.267  -3.203  0.00  0.00    +0.330 C 
ATOM      2  C   LIG    1        6.698   2.247  -3.889  0.00  0.00    +0.030 C 
ENDROOT
BRANCH   1   5
ATOM      3  C   LIG    1        5.748   5.389  -5.502  0.00  0.00    +0.160 C 
ATOM      4  C   LIG    1        6.448   5.529  -4.175  0.00  0.00    +0.110 A 
ATOM      5  C   LIG    1        6.465   4.612  -3.180  0.00  0.00    -0.240 A 
ATOM      6  C   LIG    1        7.219   5.135  -2.124  0.00  0.00    +0.250 A 
ATOM      7  N   LIG    1        7.647   6.321  -2.475  0.00  0.00    -0.280 NA
ATOM      8  N   LIG    1        7.171   6.595  -3.764  0.00  0.00    -0.320 N 
BRANCH   8   9
ATOM      9  C   LIG    1        7.405   7.767  -4.498  0.00  0.00    +0.140 A 
ATOM     10  C   LIG    1        8.665   8.348  -4.498  0.00  0.00    +0.060 A 
ATOM     11  C   LIG    1        8.895   9.499  -5.226  0.00  0.00    +0.010 A 
ATOM     12  C   LIG    1        7.865  10.080  -5.948  0.00  0.00    +0.110 A 
ATOM     13  C   LIG    1        6.605   9.504  -5.945  0.00  0.00    +0.020 A 
ATOM     14  F   LIG    1        8.089  11.209  -6.655  0.00  0.00    -0.130 F 
ATOM     15  C   LIG    1        6.373   8.350  -5.222  0.00  0.00    +0.050 A 
ENDBRANCH   8   9
ENDBRANCH   1   5
BRANCH   1  16
ATOM     16  N   LIG    1        5.515   2.833  -1.830  0.00  0.00    -0.720 N 
ATOM     17  H   LIG    1        6.056   3.171  -1.099  0.00  0.00    +0.400 HD
ATOM     18  C   LIG    1        4.514   1.965  -1.583  0.00  0.00    +0.500 C 
ATOM     19  O   LIG    1        3.838   1.543  -2.497  0.00  0.00    -0.520 OA
BRANCH  18  20
ATOM     20  C   LIG    1        4.235   1.519  -0.171  0.00  0.00    +0.360 C 
BRANCH  20  21
ATOM     21  N   LIG    1        3.108   0.583  -0.168  0.00  0.00    -0.520 N 
ATOM     22  C   LIG    1        3.340  -0.758  -0.305  0.00  0.00    +0.360 A 
ATOM     23  C   LIG    1        2.301  -1.620  -0.303  0.00  0.00    -0.120 A 
ATOM     24  C   LIG    1        0.987  -1.115  -0.158  0.00  0.00    +0.550 A 
ATOM     25  N   LIG    1        0.800   0.214  -0.026  0.00  0.00    -0.660 N 
ATOM     26  H   LIG    1       -0.098   0.569   0.070  0.00  0.00    +0.430 HD
ATOM     27  O   LIG    1        0.034  -1.873  -0.153  0.00  0.00    -0.510 OA
ATOM     28  C   LIG    1        1.854   1.051  -0.032  0.00  0.00    +0.700 A 
ATOM     29  O   LIG    1        1.670   2.247   0.088  0.00  0.00    -0.540 OA
ENDBRANCH  20  21
ENDBRANCH  18  20
ENDBRANCH   1  16
TORSDOF 5
