REMARK  Name = ZINCqH0000002nok.0
REMARK                            x       y       z     vdW  Elec       q    Type
REMARK                         _______ _______ _______ _____ _____    ______ ____
ROOT
ATOM      1  C   LIG    1        0.961  -2.671   1.399  0.00  0.00    +0.390 C 
ATOM      2  O   LIG    1        1.022  -1.890   2.325  0.00  0.00    -0.440 OA
ENDROOT
BRANCH   1   6
ATOM      3  C   LIG    1        0.692  -6.836   2.155  0.00  0.00    -0.040 A 
ATOM      4  C   LIG    1        0.761  -5.948   3.214  0.00  0.00    +0.000 A 
ATOM      5  C   LIG    1        0.849  -4.592   2.976  0.00  0.00    +0.080 A 
ATOM      6  C   LIG    1        0.868  -4.116   1.661  0.00  0.00    -0.170 A 
ATOM      7  C   LIG    1        0.791  -5.020   0.597  0.00  0.00    +0.060 A 
ATOM      8  C   LIG    1        0.710  -6.373   0.851  0.00  0.00    +0.000 A 
BRANCH   3   9
ATOM      9  C   LIG    1        0.598  -8.316   2.423  0.00  0.00    +0.070 C 
BRANCH   9  10
ATOM     10  C   LIG    1       -0.874  -8.722   2.528  0.00  0.00    +0.010 C 
BRANCH  10  11
ATOM     11  C   LIG    1       -0.970 -10.225   2.801  0.00  0.00    +0.000 C 
BRANCH  11  12
ATOM     12  C   LIG    1       -2.441 -10.631   2.906  0.00  0.00    +0.000 C 
BRANCH  12  14
ATOM     13  C   LIG    1       -4.008 -12.540   3.284  0.00  0.00    +0.000 C 
ATOM     14  C   LIG    1       -2.537 -12.133   3.178  0.00  0.00    -0.010 C 
ENDBRANCH  12  14
ENDBRANCH  11  12
ENDBRANCH  10  11
ENDBRANCH   9  10
ENDBRANCH   3   9
ENDBRANCH   1   6
BRANCH   1  15
ATOM     15  C   LIG    1        0.981  -2.162  -0.019  0.00  0.00    +0.350 C 
BRANCH  15  16
ATOM     16  N   LIG    1        1.078  -0.701  -0.012  0.00  0.00    -0.330 N 
ATOM     17  N   LIG    1        0.002  -0.004   0.002  0.00  0.00    -0.200 NA
ATOM     18  C   LIG    1       -0.016   1.299   0.009  0.00  0.00    +0.070 A 
ATOM     19  C   LIG    1        1.172   2.040   0.002  0.00  0.00    +0.040 A 
ATOM     20  C   LIG    1        2.378   1.342  -0.014  0.00  0.00    -0.110 A 
ATOM     21  C   LIG    1        1.147   3.547   0.010  0.00  0.00    +0.150 C 
ATOM     22  C   LIG    1       -1.338   2.021   0.019  0.00  0.00    +0.180 C 
ATOM     23  C   LIG    1        2.297  -0.124  -0.021  0.00  0.00    +0.510 A 
ATOM     24  O   LIG    1        3.309  -0.805  -0.034  0.00  0.00    -0.510 OA
BRANCH  20  25
ATOM     25  C   LIG    1        3.638   2.023  -0.023  0.00  0.00    +0.270 C 
ATOM     26  N   LIG    1        4.637   2.563  -0.030  0.00  0.00    -0.390 NA
ENDBRANCH  20  25
ENDBRANCH  15  16
ENDBRANCH   1  15
TORSDOF 9
