REMARK  Name = ZINCpk00000FjpVu.0
REMARK                            x       y       z     vdW  Elec       q    Type
REMARK                         _______ _______ _______ _____ _____    ______ ____
ROOT
ATOM      1  O   LIG    1        3.692   1.655   2.612  0.00  0.00    -0.510 OA
ATOM      2  C   LIG    1        2.803   2.229   2.011  0.00  0.00    +0.590 C 
ATOM      3  N   LIG    1        1.750   1.534   1.540  0.00  0.00    -0.620 N 
ATOM      4  C   LIG    1        0.600   2.229   0.944  0.00  0.00    +0.270 C 
ATOM      5  C   LIG    1       -0.677   1.764   1.650  0.00  0.00    +0.030 C 
ATOM      6  C   LIG    1       -0.764   0.237   1.585  0.00  0.00    +0.270 C 
ATOM      7  C   LIG    1        0.438  -0.374   2.309  0.00  0.00    +0.030 C 
ATOM      8  C   LIG    1        1.728   0.067   1.611  0.00  0.00    +0.310 C 
ENDROOT
BRANCH   2   9
ATOM      9  C   LIG    1        2.880   3.683   1.800  0.00  0.00    +0.010 A 
ATOM     10  C   LIG    1        3.585   4.555   2.567  0.00  0.00    +0.060 A 
ATOM     11  C   LIG    1        3.397   5.852   2.031  0.00  0.00    -0.110 A 
ATOM     12  C   LIG    1        3.868   7.121   2.394  0.00  0.00    +0.060 A 
ATOM     13  C   LIG    1        3.506   8.216   1.666  0.00  0.00    +0.000 A 
ATOM     14  C   LIG    1        2.671   8.089   0.563  0.00  0.00    +0.030 A 
ATOM     15  C   LIG    1        2.193   6.850   0.183  0.00  0.00    +0.090 A 
ATOM     16  C   LIG    1        2.551   5.715   0.915  0.00  0.00    +0.090 A 
ATOM     17  N   LIG    1        2.250   4.379   0.787  0.00  0.00    -0.580 N 
ATOM     18  H   LIG    1        1.687   3.990   0.099  0.00  0.00    +0.420 HD
BRANCH  15  19
ATOM     19  O   LIG    1        1.376   6.735  -0.898  0.00  0.00    -0.500 OA
ATOM     20  H   LIG    1        1.845   6.589  -1.731  0.00  0.00    +0.390 HD
ENDBRANCH  15  19
ENDBRANCH   2   9
BRANCH   6  21
ATOM     21  N   LIG    1       -2.001  -0.209   2.231  0.00  0.00    -0.290 N 
ATOM     22  C   LIG    1       -2.168  -0.435   3.554  0.00  0.00    +0.170 A 
ATOM     23  C   LIG    1       -3.454  -0.828   3.710  0.00  0.00    -0.030 A 
ATOM     24  N   LIG    1       -4.001  -0.831   2.490  0.00  0.00    -0.260 NA
ATOM     25  N   LIG    1       -3.114  -0.459   1.635  0.00  0.00    -0.080 NA
BRANCH  23  26
ATOM     26  C   LIG    1       -4.134  -1.195   5.004  0.00  0.00    +0.310 C 
BRANCH  26  27
ATOM     27  O   LIG    1       -3.207  -1.063   6.084  0.00  0.00    -0.570 OA
ATOM     28  H   LIG    1       -3.577  -1.284   6.949  0.00  0.00    +0.390 HD
ENDBRANCH  26  27
ENDBRANCH  23  26
ENDBRANCH   6  21
TORSDOF 5
