REMARK  Name = ZINCrD000000fNqb.0
REMARK                            x       y       z     vdW  Elec       q    Type
REMARK                         _______ _______ _______ _____ _____    ______ ____
ROOT
ATOM      1  C   LIG    1        2.351   4.350   0.009  0.00  0.00    +0.180 C 
ATOM      2  C   LIG    1        1.762   5.774   0.020  0.00  0.00    +0.140 C 
ATOM      3  C   LIG    1        0.266   5.550   0.031  0.00  0.00    +0.020 C 
ATOM      4  N   LIG    1        0.021   4.279   0.022  0.00  0.00    -0.170 NA
ATOM      5  N   LIG    1        1.163   3.482   0.015  0.00  0.00    -0.440 N 
ENDROOT
BRANCH   5   6
ATOM      6  C   LIG    1        1.178   2.086   0.009  0.00  0.00    +0.220 A 
ATOM      7  C   LIG    1       -0.017   1.376   0.015  0.00  0.00    -0.020 A 
ATOM      8  C   LIG    1        0.002  -0.004   0.009  0.00  0.00    +0.050 A 
ATOM      9  C   LIG    1        1.207  -0.681  -0.005  0.00  0.00    -0.030 A 
ATOM     10  C   LIG    1        2.399   0.021  -0.011  0.00  0.00    +0.050 A 
ATOM     11  C   LIG    1        2.388   1.402  -0.004  0.00  0.00    -0.050 A 
ENDBRANCH   5   6
BRANCH   3  12
ATOM     12  C   LIG    1       -0.745   6.606   0.043  0.00  0.00    +0.590 C 
ATOM     13  N   LIG    1       -2.054   6.285   0.051  0.00  0.00    -0.640 N 
ATOM     14  H   LIG    1       -2.326   5.357  -0.025  0.00  0.00    +0.430 HD
ATOM     15  O   LIG    1       -0.405   7.775   0.044  0.00  0.00    -0.450 OA
BRANCH  13  16
ATOM     16  C   LIG    1       -3.014   7.284   0.170  0.00  0.00    +0.380 A 
ATOM     17  N   LIG    1       -2.633   8.544   0.176  0.00  0.00    -0.470 NA
ATOM     18  C   LIG    1       -3.522   9.538   0.282  0.00  0.00    +0.160 A 
ATOM     19  C   LIG    1       -3.110  10.881   0.283  0.00  0.00    +0.040 A 
ATOM     20  C   LIG    1       -4.036  11.872   0.398  0.00  0.00    +0.040 A 
ATOM     21  C   LIG    1       -5.392  11.578   0.516  0.00  0.00    +0.010 A 
ATOM     22  C   LIG    1       -5.829  10.287   0.520  0.00  0.00    +0.040 A 
ATOM     23  C   LIG    1       -4.902   9.241   0.402  0.00  0.00    -0.130 A 
ATOM     24  C   LIG    1       -5.316   7.893   0.402  0.00  0.00    +0.120 A 
ATOM     25  C   LIG    1       -4.364   6.925   0.285  0.00  0.00    -0.050 A 
ENDBRANCH  13  16
ENDBRANCH   3  12
BRANCH   1  27
ATOM     26  C   LIG    1        4.591   4.652   1.314  0.00  0.00    +0.080 C 
ATOM     27  C   LIG    1        3.186   4.113   1.241  0.00  0.00    +0.340 C 
ATOM     28  O   LIG    1        2.729   3.490   2.170  0.00  0.00    -0.420 OA
ENDBRANCH   1  27
TORSDOF 4
