REMARK  Name = ZINCqH0000007b29.0
REMARK                            x       y       z     vdW  Elec       q    Type
REMARK                         _______ _______ _______ _____ _____    ______ ____
ROOT
ATOM      1  N   LIG    1       -1.754   2.344   1.408  0.00  0.00    -0.540 NA
ATOM      2  C   LIG    1       -2.060   1.075   2.084  0.00  0.00    +0.190 C 
ATOM      3  C   LIG    1       -2.416   1.352   3.546  0.00  0.00    +0.200 C 
ATOM      4  N   LIG    1       -3.566   2.266   3.603  0.00  0.00    -0.500 N 
ATOM      5  C   LIG    1       -3.260   3.535   2.927  0.00  0.00    +0.200 C 
ATOM      6  C   LIG    1       -2.903   3.258   1.465  0.00  0.00    +0.200 C 
ENDROOT
BRANCH   4   7
ATOM      7  C   LIG    1       -3.966   2.486   4.923  0.00  0.00    +0.150 A 
ATOM      8  C   LIG    1       -3.108   3.115   5.815  0.00  0.00    +0.020 A 
ATOM      9  C   LIG    1       -3.507   3.331   7.120  0.00  0.00    +0.120 A 
ATOM     10  C   LIG    1       -4.759   2.921   7.539  0.00  0.00    -0.040 A 
ATOM     11  C   LIG    1       -5.617   2.295   6.654  0.00  0.00    +0.130 A 
ATOM     12  C   LIG    1       -5.227   2.081   5.346  0.00  0.00    -0.020 A 
ATOM     13 CL   LIG    1       -6.307   1.300   4.233  0.00  0.00    -0.020 Cl
BRANCH  10  14
ATOM     14  N   LIG    1       -5.183   3.155   8.938  0.00  0.00    +0.030 N 
ATOM     15  O   LIG    1       -6.286   2.795   9.309  0.00  0.00    -0.150 OA
ATOM     16  O   LIG    1       -4.428   3.706   9.719  0.00  0.00    -0.150 OA
ENDBRANCH  10  14
ENDBRANCH   4   7
BRANCH   1  17
ATOM     17  C   LIG    1       -1.333   2.113   0.020  0.00  0.00    +0.240 C 
BRANCH  17  21
ATOM     18  C   LIG    1        2.401   0.033  -0.021  0.00  0.00    +0.100 A 
ATOM     19  C   LIG    1        2.378   1.419  -0.013  0.00  0.00    -0.040 A 
ATOM     20  C   LIG    1        1.169   2.089   0.002  0.00  0.00    +0.060 A 
ATOM     21  C   LIG    1       -0.017   1.379   0.010  0.00  0.00    -0.090 A 
ATOM     22  C   LIG    1        0.002  -0.004   0.002  0.00  0.00    +0.030 A 
ATOM     23  C   LIG    1        1.209  -0.680  -0.013  0.00  0.00    +0.070 A 
ATOM     24  F   LIG    1        1.227  -2.031  -0.020  0.00  0.00    -0.130 F 
BRANCH  18  26
ATOM     25  C   LIG    1        4.775   0.169  -0.042  0.00  0.00    +0.250 C 
ATOM     26  O   LIG    1        3.590  -0.628  -0.035  0.00  0.00    -0.310 OA
ENDBRANCH  18  26
ENDBRANCH  17  21
ENDBRANCH   1  17
TORSDOF 5
