REMARK  Name = ZINCrH000004suNT.0
REMARK                            x       y       z     vdW  Elec       q    Type
REMARK                         _______ _______ _______ _____ _____    ______ ____
ROOT
ATOM      1  N   LIG    1        0.998   5.433  -1.642  0.00  0.00    -0.630 N 
ATOM      2  H   LIG    1        1.047   6.060  -0.904  0.00  0.00    +0.420 HD
ATOM      3  C   LIG    1        1.037   4.107  -1.403  0.00  0.00    +0.500 C 
ATOM      4  O   LIG    1        0.976   3.323  -2.327  0.00  0.00    -0.440 OA
ENDROOT
BRANCH   3   5
ATOM      5  C   LIG    1        1.156   3.599   0.010  0.00  0.00    +0.070 C 
ATOM      6  C   LIG    1       -0.039   4.088   0.830  0.00  0.00    +0.100 C 
ATOM      7  C   LIG    1       -1.285   3.361   0.402  0.00  0.00    +0.520 C 
ATOM      8  N   LIG    1       -1.235   2.070   0.031  0.00  0.00    -0.660 N 
ATOM      9  H   LIG    1       -2.050   1.613  -0.228  0.00  0.00    +0.420 HD
ATOM     10  C   LIG    1       -0.017   1.384   0.010  0.00  0.00    +0.210 A 
ATOM     11  C   LIG    1        0.002  -0.004   0.002  0.00  0.00    -0.050 A 
ATOM     12  C   LIG    1        1.211  -0.677  -0.013  0.00  0.00    +0.140 A 
ATOM     13  C   LIG    1        2.400   0.034  -0.020  0.00  0.00    -0.030 A 
ATOM     14  C   LIG    1        2.382   1.416  -0.013  0.00  0.00    +0.100 A 
ATOM     15  F   LIG    1        1.232  -2.028  -0.020  0.00  0.00    -0.130 F 
ATOM     16  O   LIG    1       -2.348   3.946   0.396  0.00  0.00    -0.510 OA
ATOM     17  C   LIG    1        1.178   2.092   0.002  0.00  0.00    -0.120 A 
ENDBRANCH   3   5
BRANCH   1  22
ATOM     18  C   LIG    1        0.625   5.007  -6.467  0.00  0.00    +0.170 C 
ATOM     19  C   LIG    1        0.716   5.753  -5.161  0.00  0.00    +0.150 A 
ATOM     20  C   LIG    1        0.702   7.102  -5.086  0.00  0.00    -0.230 A 
ATOM     21  S   LIG    1        0.828   7.551  -3.387  0.00  0.00    +0.160 S 
ATOM     22  C   LIG    1        0.888   5.901  -2.944  0.00  0.00    +0.280 A 
ATOM     23  N   LIG    1        0.822   5.148  -3.999  0.00  0.00    -0.470 NA
BRANCH  20  24
ATOM     24  C   LIG    1        0.598   8.034  -6.225  0.00  0.00    +0.220 A 
ATOM     25  C   LIG    1        0.589   9.412  -5.995  0.00  0.00    -0.040 A 
ATOM     26  C   LIG    1        0.495  10.272  -7.073  0.00  0.00    +0.080 A 
ATOM     27  C   LIG    1        0.404   9.730  -8.349  0.00  0.00    -0.040 A 
ATOM     28  C   LIG    1        0.414   8.357  -8.505  0.00  0.00    +0.270 A 
ATOM     29  N   LIG    1        0.508   7.557  -7.462  0.00  0.00    -0.470 NA
ENDBRANCH  20  24
ENDBRANCH   1  22
TORSDOF 3
