REMARK  Name = ZINCpk00000ebuCJ.0
REMARK                            x       y       z     vdW  Elec       q    Type
REMARK                         _______ _______ _______ _____ _____    ______ ____
ROOT
ATOM      1  C   LIG    1       -4.406   0.820   1.469  0.00  0.00    +0.480 C 
ATOM      2  O   LIG    1       -4.981   0.626   0.425  0.00  0.00    -0.500 OA
ENDROOT
BRANCH   1   3
ATOM      3  O   LIG    1       -5.035   0.594   2.634  0.00  0.00    -0.330 OA
BRANCH   3   4
ATOM      4  C   LIG    1       -6.404   0.116   2.562  0.00  0.00    +0.270 C 
BRANCH   4   6
ATOM      5  O   LIG    1       -6.240   0.159   4.915  0.00  0.00    -0.510 OA
ATOM      6  C   LIG    1       -6.941  -0.080   3.956  0.00  0.00    +0.520 C 
ATOM      7  N   LIG    1       -8.202  -0.522   4.136  0.00  0.00    -0.730 N 
ATOM      8  H   LIG    1       -8.763  -0.713   3.368  0.00  0.00    +0.410 HD
BRANCH   7   9
ATOM      9  C   LIG    1       -8.725  -0.713   5.491  0.00  0.00    +0.400 C 
BRANCH   9  10
ATOM     10  C   LIG    1      -10.146  -1.208   5.416  0.00  0.00    -0.050 A 
ATOM     11  C   LIG    1      -10.528  -2.498   5.371  0.00  0.00    -0.030 A 
ATOM     12  C   LIG    1      -11.940  -2.504   5.307  0.00  0.00    -0.070 A 
ATOM     13  C   LIG    1      -12.337  -1.219   5.317  0.00  0.00    +0.190 A 
ATOM     14  O   LIG    1      -11.246  -0.439   5.389  0.00  0.00    -0.170 OA
ENDBRANCH   9  10
ENDBRANCH   7   9
ENDBRANCH   4   6
ENDBRANCH   3   4
ENDBRANCH   1   3
BRANCH   1  15
ATOM     15  C   LIG    1       -2.983   1.317   1.465  0.00  0.00    +0.100 C 
BRANCH  15  16
ATOM     16  C   LIG    1       -2.508   1.492   0.021  0.00  0.00    +0.370 C 
BRANCH  16  17
ATOM     17  N   LIG    1       -1.125   1.975   0.018  0.00  0.00    -0.550 N 
ATOM     18  C   LIG    1       -0.014   1.212   0.009  0.00  0.00    +0.640 A 
ATOM     19  O   LIG    1        1.071   2.002   0.003  0.00  0.00    -0.230 OA
ATOM     20  C   LIG    1        0.677   3.299   0.013  0.00  0.00    +0.040 A 
ATOM     21  C   LIG    1        1.373   4.497   0.011  0.00  0.00    +0.060 A 
ATOM     22  C   LIG    1        0.683   5.694   0.023  0.00  0.00    +0.030 A 
ATOM     23  C   LIG    1       -0.700   5.703   0.036  0.00  0.00    +0.040 A 
ATOM     24  C   LIG    1       -1.403   4.513   0.037  0.00  0.00    +0.040 A 
ATOM     25  O   LIG    1        0.002  -0.004   0.002  0.00  0.00    -0.480 OA
ATOM     26  C   LIG    1       -0.718   3.309   0.025  0.00  0.00    +0.070 A 
ENDBRANCH  16  17
ENDBRANCH  15  16
ENDBRANCH   1  15
TORSDOF 8
