REMARK  Name = ZINCrH000004pVqp.0
REMARK                            x       y       z     vdW  Elec       q    Type
REMARK                         _______ _______ _______ _____ _____    ______ ____
ROOT
ATOM      1  N   LIG    1        5.890   3.228  -0.330  0.00  0.00    -0.680 N 
ATOM      2  H   LIG    1        6.688   3.767  -0.448  0.00  0.00    +0.410 HD
ATOM      3  C   LIG    1        5.931   1.903  -0.573  0.00  0.00    +0.710 C 
ATOM      4  N   LIG    1        7.113   1.295  -0.797  0.00  0.00    -0.620 N 
ATOM      5  C   LIG    1        7.185  -0.135  -1.145  0.00  0.00    +0.310 C 
ATOM      6  C   LIG    1        7.804  -0.242  -2.547  0.00  0.00    +0.060 C 
ATOM      7  C   LIG    1        9.011   0.643  -2.654  0.00  0.00    -0.010 C 
ATOM      8  C   LIG    1        9.266   1.647  -1.851  0.00  0.00    -0.110 C 
ATOM      9  C   LIG    1        8.382   2.030  -0.697  0.00  0.00    +0.320 C 
ATOM     10  O   LIG    1        4.902   1.256  -0.591  0.00  0.00    -0.570 OA
ENDROOT
BRANCH   1  17
ATOM     11  C   LIG    1       -0.051   7.046   2.833  0.00  0.00    +0.100 C 
ATOM     12  C   LIG    1        1.179   6.154   2.658  0.00  0.00    +0.180 C 
ATOM     13  O   LIG    1        1.172   5.586   1.346  0.00  0.00    -0.300 OA
ATOM     14  C   LIG    1        2.327   5.000   0.927  0.00  0.00    +0.060 A 
ATOM     15  C   LIG    1        2.295   3.904   0.084  0.00  0.00    +0.070 A 
ATOM     16  C   LIG    1        3.476   3.318  -0.333  0.00  0.00    +0.050 A 
ATOM     17  C   LIG    1        4.696   3.826   0.094  0.00  0.00    +0.170 A 
ATOM     18  C   LIG    1        4.733   4.926   0.940  0.00  0.00    -0.010 A 
ATOM     19  C   LIG    1        3.551   5.513   1.357  0.00  0.00    +0.110 A 
ATOM     20  N   LIG    1        3.566   6.625   2.212  0.00  0.00    -0.660 N 
ATOM     21  H   LIG    1        4.381   7.132   2.345  0.00  0.00    +0.420 HD
ATOM     22  C   LIG    1        2.429   6.974   2.852  0.00  0.00    +0.490 C 
ATOM     23  O   LIG    1        2.412   7.947   3.576  0.00  0.00    -0.500 OA
ENDBRANCH   1  17
BRANCH   8  24
ATOM     24  C   LIG    1       10.488   2.443  -2.092  0.00  0.00    -0.050 A 
ATOM     25  C   LIG    1       11.516   2.452  -1.149  0.00  0.00    +0.010 A 
ATOM     26  C   LIG    1       12.656   3.194  -1.382  0.00  0.00    +0.000 A 
ATOM     27  C   LIG    1       12.776   3.936  -2.543  0.00  0.00    +0.000 A 
ATOM     28  C   LIG    1       11.758   3.935  -3.480  0.00  0.00    +0.000 A 
ATOM     29  C   LIG    1       10.616   3.194  -3.261  0.00  0.00    +0.010 A 
ENDBRANCH   8  24
TORSDOF 2
