REMARK  Name = ZINCrH000004qzUG.0
REMARK                            x       y       z     vdW  Elec       q    Type
REMARK                         _______ _______ _______ _____ _____    ______ ____
ROOT
ATOM      1  C   LIG    1       -3.162   0.161   4.240  0.00  0.00    +0.550 C 
ATOM      2  N   LIG    1       -2.661   1.272   3.666  0.00  0.00    -0.560 N 
ATOM      3  C   LIG    1       -3.065   1.666   2.307  0.00  0.00    +0.300 C 
ATOM      4  C   LIG    1       -2.158   1.057   1.272  0.00  0.00    +0.030 C 
ATOM      5  C   LIG    1       -0.729   1.579   1.267  0.00  0.00    +0.030 C 
ATOM      6  S   LIG    1        0.157   0.983   2.736  0.00  0.00    -0.150 S 
ATOM      7  C   LIG    1       -0.404   2.114   3.986  0.00  0.00    -0.100 A 
ATOM      8  C   LIG    1        0.478   2.996   4.581  0.00  0.00    +0.080 A 
ATOM      9  C   LIG    1        0.019   3.847   5.573  0.00  0.00    +0.030 A 
ATOM     10  C   LIG    1       -1.307   3.801   5.962  0.00  0.00    +0.040 A 
ATOM     11  C   LIG    1       -2.190   2.924   5.359  0.00  0.00    +0.010 A 
ATOM     12  C   LIG    1       -0.013   1.086   0.008  0.00  0.00    +0.080 C 
ATOM     13  C   LIG    1       -1.743   2.082   4.348  0.00  0.00    +0.150 A 
ATOM     14  O   LIG    1       -3.956  -0.529   3.636  0.00  0.00    -0.510 OA
ENDROOT
BRANCH   1  15
ATOM     15  C   LIG    1       -2.735  -0.225   5.633  0.00  0.00    +0.110 C 
BRANCH  15  16
ATOM     16  S   LIG    1       -3.576  -1.756   6.121  0.00  0.00    +0.120 S 
BRANCH  16  24
ATOM     17  C   LIG    1       -3.353  -4.902  11.004  0.00  0.00    +0.170 C 
ATOM     18  C   LIG    1       -2.533  -3.646  10.861  0.00  0.00    +0.210 A 
ATOM     19  C   LIG    1       -1.727  -3.230  11.873  0.00  0.00    -0.050 A 
ATOM     20  C   LIG    1       -0.977  -2.060  11.712  0.00  0.00    +0.240 A 
ATOM     21  N   LIG    1       -1.052  -1.373  10.594  0.00  0.00    -0.470 NA
ATOM     22  C   LIG    1       -1.843  -1.775   9.593  0.00  0.00    +0.460 A 
ATOM     23  N   LIG    1       -2.086  -1.273   8.387  0.00  0.00    -0.530 NA
ATOM     24  C   LIG    1       -2.963  -2.045   7.748  0.00  0.00    +0.230 A 
ATOM     25  N   LIG    1       -3.296  -3.060   8.518  0.00  0.00    -0.310 NA
ATOM     26  C   LIG    1       -0.079  -1.586  12.825  0.00  0.00    +0.180 C 
ATOM     27  N   LIG    1       -2.588  -2.914   9.718  0.00  0.00    -0.320 N 
ENDBRANCH  16  24
ENDBRANCH  15  16
ENDBRANCH   1  15
TORSDOF 3
