REMARK  Name = ZINCrD000000Ax53.0
REMARK                            x       y       z     vdW  Elec       q    Type
REMARK                         _______ _______ _______ _____ _____    ______ ____
ROOT
ATOM      1  O   LIG    1        2.328   1.272  -0.013  0.00  0.00    -0.520 OA
ATOM      2  C   LIG    1        1.395   2.047  -0.000  0.00  0.00    +0.520 C 
ATOM      3  N   LIG    1        1.623   3.376   0.005  0.00  0.00    -0.720 N 
ATOM      4  H   LIG    1        0.878   3.996   0.015  0.00  0.00    +0.400 HD
ENDROOT
BRANCH   3   5
ATOM      5  C   LIG    1        2.998   3.883  -0.006  0.00  0.00    +0.340 C 
BRANCH   5   6
ATOM      6  C   LIG    1        2.977   5.390   0.003  0.00  0.00    -0.190 A 
ATOM      7  C   LIG    1        3.169   6.100  -1.169  0.00  0.00    +0.120 A 
ATOM      8  C   LIG    1        3.137   7.487  -1.116  0.00  0.00    -0.070 A 
ATOM      9  C   LIG    1        2.927   8.111   0.097  0.00  0.00    +0.310 A 
ATOM     10  N   LIG    1        2.752   7.407   1.199  0.00  0.00    -0.540 NA
ATOM     11  C   LIG    1        2.771   6.084   1.188  0.00  0.00    +0.340 A 
BRANCH  11  12
ATOM     12  O   LIG    1        2.587   5.400   2.345  0.00  0.00    -0.290 OA
BRANCH  12  13
ATOM     13  C   LIG    1        2.380   6.171   3.529  0.00  0.00    +0.170 C 
ATOM     14  C   LIG    1        3.726   6.415   4.244  0.00  0.00    +0.000 C 
ATOM     15  C   LIG    1        3.376   6.332   5.750  0.00  0.00    +0.020 C 
ATOM     16  C   LIG    1        2.330   5.191   5.796  0.00  0.00    +0.020 C 
ATOM     17  C   LIG    1        1.493   5.393   4.517  0.00  0.00    +0.040 C 
ENDBRANCH  12  13
ENDBRANCH  11  12
ENDBRANCH   5   6
ENDBRANCH   3   5
BRANCH   2  18
ATOM     18  C   LIG    1       -0.019   1.526   0.010  0.00  0.00    +0.080 C 
BRANCH  18  19
ATOM     19  C   LIG    1        0.002  -0.004   0.002  0.00  0.00    +0.270 C 
ATOM     20  O   LIG    1        0.532  -0.503   1.261  0.00  0.00    -0.300 OA
ATOM     21  C   LIG    1       -0.406  -1.252   1.865  0.00  0.00    +0.520 C 
ATOM     22  C   LIG    1       -1.627  -1.300   1.041  0.00  0.00    -0.190 A 
ATOM     23  C   LIG    1       -2.861  -1.929   1.218  0.00  0.00    +0.110 A 
ATOM     24  C   LIG    1       -3.843  -1.795   0.257  0.00  0.00    +0.020 A 
ATOM     25  C   LIG    1       -3.610  -1.040  -0.879  0.00  0.00    +0.060 A 
ATOM     26  C   LIG    1       -2.388  -0.414  -1.062  0.00  0.00    +0.040 A 
ATOM     27  O   LIG    1       -0.267  -1.809   2.935  0.00  0.00    -0.450 OA
ATOM     28  C   LIG    1       -1.403  -0.540  -0.111  0.00  0.00    -0.100 A 
ENDBRANCH  18  19
ENDBRANCH   2  18
TORSDOF 6
