REMARK  Name = ZINCkj00000dDG1n.1
REMARK                            x       y       z     vdW  Elec       q    Type
REMARK                         _______ _______ _______ _____ _____    ______ ____
ROOT
ATOM      1  C   LIG    1        0.277  -4.427   0.657  0.00  0.00    +0.320 C 
ENDROOT
BRANCH   1   2
ATOM      2  C   LIG    1       -0.143  -2.986   0.950  0.00  0.00    -0.030 C 
ATOM      3  C   LIG    1       -1.530  -2.727   0.354  0.00  0.00    +0.080 C 
ATOM      4  C   LIG    1       -2.047  -1.370   0.848  0.00  0.00    +0.190 C 
ATOM      5  C   LIG    1       -0.955  -0.346   0.645  0.00  0.00    +0.310 C 
ATOM      6  N   LIG    1       -1.074   0.950   0.660  0.00  0.00    -0.470 N 
ATOM      7  C   LIG    1        0.127   1.506   0.437  0.00  0.00    +0.230 C 
ATOM      8  C   LIG    1        1.026   0.513   0.278  0.00  0.00    +0.250 C 
ATOM      9  H   LIG    1       -1.901   1.436   0.805  0.00  0.00    +0.460 HD
ATOM     10  N   LIG    1        0.342  -0.658   0.410  0.00  0.00    -0.400 N 
ATOM     11  C   LIG    1        0.871  -2.021   0.324  0.00  0.00    +0.330 C 
ENDBRANCH   1   2
BRANCH   1  13
ATOM     12  C   LIG    1        1.553  -5.204   2.582  0.00  0.00    +0.530 C 
ATOM     13  N   LIG    1        1.548  -4.712   1.327  0.00  0.00    -0.630 N 
ATOM     14  C   LIG    1        2.814  -4.461   0.634  0.00  0.00    +0.280 C 
ATOM     15  O   LIG    1        0.511  -5.319   3.192  0.00  0.00    -0.510 OA
BRANCH  12  21
ATOM     16  C   LIG    1        2.265  -7.533   1.703  0.00  0.00    +0.030 C 
ATOM     17  C   LIG    1        3.304  -6.978   2.678  0.00  0.00    -0.020 C 
ATOM     18  C   LIG    1        3.403  -7.877   3.935  0.00  0.00    +0.020 C 
ATOM     19  C   LIG    1        3.535  -6.832   5.072  0.00  0.00    +0.210 C 
ATOM     20  O   LIG    1        2.670  -5.758   4.645  0.00  0.00    -0.350 OA
ATOM     21  C   LIG    1        2.853  -5.611   3.227  0.00  0.00    +0.150 C 
ENDBRANCH  12  21
ENDBRANCH   1  13
TORSDOF 3
