REMARK  Name = ZINCrD000000fTF5.0
REMARK                            x       y       z     vdW  Elec       q    Type
REMARK                         _______ _______ _______ _____ _____    ______ ____
ROOT
ATOM      1  C   LIG    1       -3.617   9.276  -1.140  0.00  0.00    +0.530 C 
ATOM      2  N   LIG    1       -2.292   9.408  -0.934  0.00  0.00    -0.610 N 
ATOM      3  C   LIG    1       -1.743   9.409   0.429  0.00  0.00    +0.290 C 
ATOM      4  C   LIG    1       -0.889  10.667   0.615  0.00  0.00    +0.010 C 
ATOM      5  C   LIG    1        0.170  10.728  -0.488  0.00  0.00    +0.230 C 
ATOM      6  C   LIG    1       -0.519  10.809  -1.853  0.00  0.00    +0.000 C 
ATOM      7  C   LIG    1       -1.368   9.553  -2.067  0.00  0.00    +0.270 C 
ATOM      8  O   LIG    1       -4.360   9.072  -0.203  0.00  0.00    -0.530 OA
ENDROOT
BRANCH   1  14
ATOM      9  C   LIG    1       -4.559  11.694  -5.177  0.00  0.00    +0.530 C 
ATOM     10  N   LIG    1       -5.075  10.937  -4.189  0.00  0.00    -0.610 N 
ATOM     11  C   LIG    1       -6.314  10.175  -4.400  0.00  0.00    +0.260 C 
ATOM     12  C   LIG    1       -6.058   8.709  -4.037  0.00  0.00    +0.010 C 
ATOM     13  C   LIG    1       -5.506   8.628  -2.612  0.00  0.00    +0.050 C 
ATOM     14  C   LIG    1       -4.177   9.383  -2.536  0.00  0.00    -0.020 C 
ATOM     15  C   LIG    1       -4.411  10.857  -2.881  0.00  0.00    +0.300 C 
ATOM     16  O   LIG    1       -3.488  12.243  -5.024  0.00  0.00    -0.530 OA
BRANCH   9  18
ATOM     17  C   LIG    1       -4.608  12.905  -7.340  0.00  0.00    +0.050 C 
ATOM     18  C   LIG    1       -5.311  11.860  -6.472  0.00  0.00    -0.080 C 
ATOM     19  C   LIG    1       -6.740  12.321  -6.176  0.00  0.00    +0.050 C 
ATOM     20  C   LIG    1       -5.350  10.523  -7.214  0.00  0.00    +0.050 C 
ENDBRANCH   9  18
ENDBRANCH   1  14
BRANCH   5  21
ATOM     21  N   LIG    1        1.010  11.913  -0.294  0.00  0.00    -0.740 N 
ATOM     22  H   LIG    1        0.662  12.680   0.186  0.00  0.00    +0.400 HD
BRANCH  21  23
ATOM     23  C   LIG    1        2.311  11.936  -0.800  0.00  0.00    +0.220 A 
ATOM     24  C   LIG    1        3.109  13.059  -0.617  0.00  0.00    -0.080 A 
ATOM     25  C   LIG    1        4.396  13.079  -1.118  0.00  0.00    +0.050 A 
ATOM     26  C   LIG    1        4.890  11.983  -1.802  0.00  0.00    -0.060 A 
ATOM     27  C   LIG    1        4.096  10.867  -1.991  0.00  0.00    +0.050 A 
ATOM     28  C   LIG    1        2.811  10.838  -1.488  0.00  0.00    -0.080 A 
ENDBRANCH  21  23
ENDBRANCH   5  21
TORSDOF 4
