REMARK  Name = ZINCvU00000008uL.0
REMARK                            x       y       z     vdW  Elec       q    Type
REMARK                         _______ _______ _______ _____ _____    ______ ____
ROOT
ATOM      1  C   LIG    1        6.477  -0.051   0.878  0.00  0.00    +0.120 A 
ATOM      2  C   LIG    1        5.395   0.810   0.965  0.00  0.00    -0.020 A 
ATOM      3  C   LIG    1        4.830   1.329  -0.186  0.00  0.00    -0.070 A 
ATOM      4  C   LIG    1        5.349   1.000  -1.424  0.00  0.00    +0.050 A 
ATOM      5  C   LIG    1        6.433   0.145  -1.518  0.00  0.00    -0.080 A 
ATOM      6 BR   LIG    1        7.140  -0.304  -3.213  0.00  0.00    -0.020 Br
ATOM      7  C   LIG    1        7.000  -0.383  -0.368  0.00  0.00    +0.100 A 
ENDROOT
BRANCH   1   9
ATOM      8  C   LIG    1        6.441  -0.182   3.252  0.00  0.00    +0.250 C 
ATOM      9  O   LIG    1        7.030  -0.567   2.008  0.00  0.00    -0.300 OA
ENDBRANCH   1   9
BRANCH   3  10
ATOM     10  C   LIG    1        3.650   2.261  -0.090  0.00  0.00    +0.320 C 
BRANCH  10  11
ATOM     11  N   LIG    1        2.409   1.483  -0.131  0.00  0.00    -0.720 N 
ATOM     12  H   LIG    1        2.445   0.517  -0.210  0.00  0.00    +0.410 HD
BRANCH  11  13
ATOM     13  C   LIG    1        1.173   2.133  -0.057  0.00  0.00    +0.180 A 
ATOM     14  C   LIG    1        1.109   3.499   0.170  0.00  0.00    +0.200 A 
ATOM     15  N   LIG    1       -0.055   4.117   0.241  0.00  0.00    -0.440 NA
ATOM     16  C   LIG    1       -1.197   3.471   0.102  0.00  0.00    +0.220 A 
ATOM     17  C   LIG    1       -1.220   2.110  -0.131  0.00  0.00    +0.020 A 
ATOM     18  C   LIG    1       -0.018   1.415  -0.209  0.00  0.00    +0.110 A 
BRANCH  18  19
ATOM     19  N   LIG    1       -0.000   0.034  -0.440  0.00  0.00    -0.320 N 
ATOM     20  C   LIG    1       -0.754  -0.890   0.199  0.00  0.00    +0.240 A 
ATOM     21  C   LIG    1       -0.440  -2.103  -0.312  0.00  0.00    -0.230 A 
ATOM     22  C   LIG    1        0.537  -1.916  -1.296  0.00  0.00    +0.250 A 
ATOM     23  C   LIG    1       -1.039  -3.422   0.103  0.00  0.00    +0.110 C 
ATOM     24  N   LIG    1        0.797  -0.636  -1.377  0.00  0.00    -0.290 NA
ENDBRANCH  18  19
ENDBRANCH  11  13
ENDBRANCH  10  11
ENDBRANCH   3  10
BRANCH   7  25
ATOM     25  O   LIG    1        8.065  -1.224  -0.458  0.00  0.00    -0.310 OA
BRANCH  25  26
ATOM     26  C   LIG    1        9.365  -0.630  -0.434  0.00  0.00    +0.230 C 
BRANCH  26  27
ATOM     27  C   LIG    1       10.412  -1.708  -0.543  0.00  0.00    -0.090 A 
ATOM     28  C   LIG    1       10.919  -2.297   0.600  0.00  0.00    +0.030 A 
ATOM     29  C   LIG    1       11.876  -3.290   0.499  0.00  0.00    +0.000 A 
ATOM     30  C   LIG    1       12.333  -3.686  -0.744  0.00  0.00    +0.010 A 
ATOM     31  C   LIG    1       11.830  -3.093  -1.886  0.00  0.00    +0.000 A 
ATOM     32  C   LIG    1       10.869  -2.105  -1.786  0.00  0.00    +0.030 A 
ENDBRANCH  26  27
ENDBRANCH  25  26
ENDBRANCH   7  25
TORSDOF 8
