REMARK  Name = ZINCrD00000758Mk.0
REMARK                            x       y       z     vdW  Elec       q    Type
REMARK                         _______ _______ _______ _____ _____    ______ ____
ROOT
ATOM      1  C   LIG    1       -2.260  -0.210   2.447  0.00  0.00    +0.510 C 
ATOM      2  O   LIG    1       -1.336  -0.903   2.821  0.00  0.00    -0.480 OA
ENDROOT
BRANCH   1  11
ATOM      3  C   LIG    1       -1.477  -3.195   1.598  0.00  0.00    +0.210 C 
ATOM      4  C   LIG    1       -2.981  -3.232   1.694  0.00  0.00    +0.150 A 
ATOM      5  N   LIG    1       -3.741  -4.261   1.474  0.00  0.00    -0.270 NA
ATOM      6  O   LIG    1       -5.095  -3.904   1.665  0.00  0.00    -0.070 OA
ATOM      7  C   LIG    1       -5.170  -2.604   2.016  0.00  0.00    +0.300 A 
ATOM      8  N   LIG    1       -6.184  -1.802   2.301  0.00  0.00    -0.450 NA
ATOM      9  C   LIG    1       -6.006  -0.539   2.624  0.00  0.00    +0.240 A 
ATOM     10  C   LIG    1       -4.741   0.023   2.691  0.00  0.00    +0.020 A 
ATOM     11  C   LIG    1       -3.629  -0.767   2.396  0.00  0.00    +0.010 A 
ATOM     12  C   LIG    1       -3.853  -2.115   2.053  0.00  0.00    -0.210 A 
BRANCH   9  13
ATOM     13  C   LIG    1       -7.206   0.317   2.937  0.00  0.00    +0.020 C 
ATOM     14  C   LIG    1       -6.961   1.640   3.664  0.00  0.00    +0.040 C 
ATOM     15  C   LIG    1       -7.604   0.466   4.406  0.00  0.00    +0.060 C 
ENDBRANCH   9  13
ENDBRANCH   1  11
BRANCH   1  16
ATOM     16  O   LIG    1       -2.039   1.067   2.080  0.00  0.00    -0.310 OA
BRANCH  16  17
ATOM     17  C   LIG    1       -0.670   1.547   2.156  0.00  0.00    +0.190 C 
ATOM     18  C   LIG    1        0.036   1.286   0.825  0.00  0.00    +0.080 C 
BRANCH  17  19
ATOM     19  C   LIG    1       -0.672   3.027   2.442  0.00  0.00    +0.520 C 
ATOM     20  N   LIG    1        0.491   3.673   2.657  0.00  0.00    -0.720 N 
ATOM     21  H   LIG    1        1.329   3.186   2.627  0.00  0.00    +0.410 HD
ATOM     22  O   LIG    1       -1.720   3.636   2.479  0.00  0.00    -0.510 OA
BRANCH  20  23
ATOM     23  C   LIG    1        0.489   5.112   2.935  0.00  0.00    +0.370 C 
BRANCH  23  24
ATOM     24  C   LIG    1        1.905   5.587   3.135  0.00  0.00    -0.220 A 
ATOM     25  C   LIG    1        2.710   6.035   2.170  0.00  0.00    +0.030 A 
ATOM     26  C   LIG    1        3.971   6.418   2.594  0.00  0.00    +0.000 A 
ATOM     27  C   LIG    1        4.190   6.280   3.902  0.00  0.00    -0.030 A 
ATOM     28  S   LIG    1        2.747   5.641   4.678  0.00  0.00    +0.120 S 
ENDBRANCH  23  24
ENDBRANCH  20  23
ENDBRANCH  17  19
ENDBRANCH  16  17
ENDBRANCH   1  16
TORSDOF 7
