REMARK  Name = ZINCrD0000073CHn.0
REMARK                            x       y       z     vdW  Elec       q    Type
REMARK                         _______ _______ _______ _____ _____    ______ ____
ROOT
ATOM      1  C   LIG    1        1.280   1.980   0.001  0.00  0.00    +0.250 C 
ENDROOT
BRANCH   1   2
ATOM      2  C   LIG    1       -0.014   1.209   0.009  0.00  0.00    +0.520 C 
ATOM      3  N   LIG    1       -1.191   1.867   0.018  0.00  0.00    -0.720 N 
ATOM      4  H   LIG    1       -1.204   2.837   0.023  0.00  0.00    +0.400 HD
ATOM      5  O   LIG    1        0.002  -0.004   0.002  0.00  0.00    -0.510 OA
BRANCH   3   6
ATOM      6  C   LIG    1       -2.449   1.117   0.020  0.00  0.00    +0.190 C 
ATOM      7  C   LIG    1       -2.524   0.243  -1.234  0.00  0.00    +0.030 C 
ATOM      8  C   LIG    1       -3.839  -0.540  -1.232  0.00  0.00    -0.010 C 
ATOM      9  C   LIG    1       -3.902  -1.427   0.013  0.00  0.00    +0.020 C 
ATOM     10  C   LIG    1       -3.827  -0.553   1.266  0.00  0.00    -0.010 C 
ATOM     11  C   LIG    1       -5.003   0.425   1.277  0.00  0.00    +0.020 C 
ATOM     12  C   LIG    1       -4.940   1.312   0.033  0.00  0.00    +0.000 C 
ATOM     13  C   LIG    1       -5.015   0.439  -1.221  0.00  0.00    +0.020 C 
ATOM     14  C   LIG    1       -2.512   0.230   1.264  0.00  0.00    +0.030 C 
ATOM     15  C   LIG    1       -3.626   2.095   0.031  0.00  0.00    +0.030 C 
ENDBRANCH   3   6
ENDBRANCH   1   2
BRANCH   1  16
ATOM     16  O   LIG    1        2.379   1.066  -0.015  0.00  0.00    -0.320 OA
BRANCH  16  17
ATOM     17  C   LIG    1        3.618   1.599  -0.024  0.00  0.00    +0.500 C 
ATOM     18  O   LIG    1        3.761   2.806  -0.019  0.00  0.00    -0.510 OA
BRANCH  17  20
ATOM     19  C   LIG    1        6.030   1.256  -0.049  0.00  0.00    +0.140 C 
ATOM     20  C   LIG    1        4.790   0.724  -0.040  0.00  0.00    -0.040 C 
BRANCH  19  25
ATOM     21  C   LIG    1        9.598   0.089  -0.091  0.00  0.00    +0.120 A 
ATOM     22  C   LIG    1        9.427  -1.289  -0.096  0.00  0.00    -0.060 A 
ATOM     23  C   LIG    1        8.156  -1.835  -0.086  0.00  0.00    +0.050 A 
ATOM     24  C   LIG    1        7.048  -1.014  -0.071  0.00  0.00    +0.000 A 
ATOM     25  C   LIG    1        7.209   0.376  -0.065  0.00  0.00    -0.050 A 
ATOM     26  C   LIG    1        8.494   0.924  -0.080  0.00  0.00    +0.020 A 
BRANCH  21  28
ATOM     27  C   LIG    1       11.943  -0.303  -0.118  0.00  0.00    +0.250 C 
ATOM     28  O   LIG    1       10.850   0.618  -0.102  0.00  0.00    -0.320 OA
ENDBRANCH  21  28
ENDBRANCH  19  25
ENDBRANCH  17  20
ENDBRANCH  16  17
ENDBRANCH   1  16
TORSDOF 7
