REMARK  Name = ZINCrD00000F5LyC.0
REMARK                            x       y       z     vdW  Elec       q    Type
REMARK                         _______ _______ _______ _____ _____    ______ ____
ROOT
ATOM      1  N   LIG    1        2.866   3.739  -1.588  0.00  0.00    -0.980 NA
ENDROOT
BRANCH   1   2
ATOM      2  S   LIG    1        2.621   3.316  -0.006  0.00  0.00    +2.710 S 
ATOM      3  O   LIG    1        3.898   2.987   0.524  0.00  0.00    -0.940 OA
ATOM      4  O   LIG    1        1.782   4.318   0.552  0.00  0.00    -0.940 OA
BRANCH   2   5
ATOM      5  C   LIG    1        1.683   1.824  -0.004  0.00  0.00    -0.820 A 
ATOM      6  C   LIG    1        2.212   0.596  -0.016  0.00  0.00    +0.160 A 
ATOM      7  C   LIG    1        1.299  -0.433  -0.013  0.00  0.00    +0.080 A 
ATOM      8  C   LIG    1        0.002  -0.004   0.002  0.00  0.00    -0.120 A 
ATOM      9  S   LIG    1       -0.022   1.754   0.012  0.00  0.00    +0.370 S 
BRANCH   8  10
ATOM     10  C   LIG    1       -1.153  -0.851   0.009  0.00  0.00    +0.270 C 
ATOM     11  N   LIG    1       -2.069  -1.522   0.014  0.00  0.00    -0.380 NA
ENDBRANCH   8  10
ENDBRANCH   2   5
ENDBRANCH   1   2
BRANCH   1  12
ATOM     12  C   LIG    1        1.900   4.601  -2.273  0.00  0.00    +0.330 C 
BRANCH  12  16
ATOM     13  C   LIG    1        3.494   6.920  -4.511  0.00  0.00    +0.100 C 
ATOM     14  C   LIG    1        2.694   6.756  -3.487  0.00  0.00    -0.210 C 
ATOM     15  C   LIG    1        1.434   7.132  -2.750  0.00  0.00    +0.090 C 
ATOM     16  C   LIG    1        2.368   6.056  -2.193  0.00  0.00    -0.010 C 
ENDBRANCH  12  16
ENDBRANCH   1  12
BRANCH   1  17
ATOM     17  C   LIG    1        4.048   3.251  -2.302  0.00  0.00    +0.370 C 
BRANCH  17  18
ATOM     18  C   LIG    1        3.694   2.002  -3.066  0.00  0.00    -0.090 A 
ATOM     19  C   LIG    1        3.836   0.787  -2.469  0.00  0.00    +0.060 A 
ATOM     20  C   LIG    1        3.502  -0.381  -3.177  0.00  0.00    +0.080 A 
ATOM     21  N   LIG    1        3.627  -1.588  -2.615  0.00  0.00    -0.420 NA
ATOM     22  C   LIG    1        3.312  -2.662  -3.304  0.00  0.00    +0.260 A 
ATOM     23  C   LIG    1        2.848  -2.556  -4.617  0.00  0.00    +0.260 A 
ATOM     24  N   LIG    1        2.717  -1.382  -5.190  0.00  0.00    -0.420 NA
ATOM     25  C   LIG    1        3.030  -0.274  -4.510  0.00  0.00    +0.080 A 
ATOM     26  C   LIG    1        2.901   0.999  -5.094  0.00  0.00    +0.060 A 
ATOM     27  C   LIG    1        3.229   2.107  -4.377  0.00  0.00    +0.060 A 
ENDBRANCH  17  18
ENDBRANCH   1  17
TORSDOF 7
