REMARK  Name = ZINCvU0000000BZ1.0
REMARK                            x       y       z     vdW  Elec       q    Type
REMARK                         _______ _______ _______ _____ _____    ______ ____
ROOT
ATOM      1  C   LIG    1       -1.136   2.362   1.740  0.00  0.00    +0.090 A 
ATOM      2  C   LIG    1       -0.628   3.222   0.781  0.00  0.00    +0.010 A 
ATOM      3  C   LIG    1       -0.754   4.595   0.944  0.00  0.00    +0.140 A 
ATOM      4  C   LIG    1       -1.391   5.107   2.072  0.00  0.00    +0.090 A 
ATOM      5  C   LIG    1       -1.899   4.246   3.031  0.00  0.00    +0.010 A 
ATOM      6  C   LIG    1       -1.778   2.874   2.865  0.00  0.00    +0.140 A 
ENDROOT
BRANCH   3   7
ATOM      7  N   LIG    1       -0.240   5.466  -0.026  0.00  0.00    -0.650 N 
ATOM      8  H   LIG    1        0.005   6.372   0.216  0.00  0.00    +0.420 HD
ATOM      9  C   LIG    1       -0.087   5.044  -1.297  0.00  0.00    +0.560 C 
ATOM     10  O   LIG    1       -0.487   3.943  -1.625  0.00  0.00    -0.520 OA
BRANCH   9  11
ATOM     11  C   LIG    1        0.568   5.919  -2.293  0.00  0.00    -0.140 A 
ATOM     12  C   LIG    1        1.023   7.185  -1.922  0.00  0.00    +0.050 A 
ATOM     13  C   LIG    1        1.637   7.995  -2.855  0.00  0.00    +0.000 A 
ATOM     14  C   LIG    1        1.792   7.558  -4.159  0.00  0.00    +0.040 A 
ATOM     15  C   LIG    1        1.339   6.306  -4.534  0.00  0.00    +0.000 A 
ATOM     16  C   LIG    1        0.728   5.484  -3.610  0.00  0.00    +0.080 A 
ENDBRANCH   9  11
ENDBRANCH   3   7
BRANCH   6  17
ATOM     17  N   LIG    1       -2.298   2.003   3.833  0.00  0.00    -0.660 N 
ATOM     18  H   LIG    1       -2.546   1.098   3.588  0.00  0.00    +0.420 HD
ATOM     19  C   LIG    1       -2.453   2.423   5.104  0.00  0.00    +0.520 C 
ATOM     20  O   LIG    1       -2.051   3.518   5.434  0.00  0.00    -0.520 OA
BRANCH  19  21
ATOM     21  C   LIG    1       -3.126   1.531   6.116  0.00  0.00    +0.070 C 
BRANCH  21  22
ATOM     22  C   LIG    1       -3.173   2.241   7.470  0.00  0.00    +0.060 C 
ATOM     23  C   LIG    1       -1.749   2.441   7.991  0.00  0.00    +0.040 C 
BRANCH  22  24
ATOM     24  C   LIG    1       -3.953   1.402   8.450  0.00  0.00    -0.080 A 
ATOM     25  C   LIG    1       -3.531   0.122   8.754  0.00  0.00    +0.000 A 
ATOM     26  C   LIG    1       -4.244  -0.646   9.655  0.00  0.00    +0.000 A 
ATOM     27  C   LIG    1       -5.384  -0.136  10.247  0.00  0.00    +0.000 A 
ATOM     28  C   LIG    1       -5.810   1.143   9.940  0.00  0.00    +0.000 A 
ATOM     29  C   LIG    1       -5.094   1.912   9.041  0.00  0.00    +0.000 A 
ENDBRANCH  22  24
ENDBRANCH  21  22
ENDBRANCH  19  21
ENDBRANCH   6  17
BRANCH   1  31
ATOM     30  C   LIG    1       -0.348   0.562   0.401  0.00  0.00    +0.240 C 
ATOM     31  O   LIG    1       -1.013   1.017   1.581  0.00  0.00    -0.320 OA
ENDBRANCH   1  31
BRANCH   4  32
ATOM     32  O   LIG    1       -1.514   6.452   2.232  0.00  0.00    -0.320 OA
ATOM     33  C   LIG    1       -2.179   6.907   3.412  0.00  0.00    +0.240 C 
ENDBRANCH   4  32
TORSDOF 8
