REMARK  Name = ZINCqH0000037pCl.0
REMARK                            x       y       z     vdW  Elec       q    Type
REMARK                         _______ _______ _______ _____ _____    ______ ____
ROOT
ATOM      1  C   LIG    1        2.417  -0.277   0.361  0.00  0.00    +0.240 A 
ATOM      2  C   LIG    1        1.311  -1.032  -0.033  0.00  0.00    -0.050 A 
ATOM      3  C   LIG    1        0.066  -0.440  -0.056  0.00  0.00    +0.320 A 
ATOM      4  N   LIG    1       -0.090   0.824   0.289  0.00  0.00    -0.540 NA
ATOM      5  C   LIG    1        0.932   1.576   0.669  0.00  0.00    +0.340 A 
ATOM      6  C   LIG    1        2.215   1.053   0.718  0.00  0.00    -0.070 A 
ENDROOT
BRANCH   1  16
ATOM      7  C   LIG    1        3.968  -5.994  -0.358  0.00  0.00    +0.030 C 
ATOM      8  C   LIG    1        4.878  -4.772  -0.509  0.00  0.00    +0.000 C 
ATOM      9  C   LIG    1        5.135  -4.163   0.862  0.00  0.00    +0.330 C 
ATOM     10  N   LIG    1        5.059  -2.720   0.626  0.00  0.00    -0.620 N 
ATOM     11  C   LIG    1        6.148  -1.887   0.319  0.00  0.00    +0.320 C 
ATOM     12  C   LIG    1        6.758  -2.352  -1.033  0.00  0.00    -0.260 C 
ATOM     13  S   LIG    1        7.507  -3.972  -0.831  0.00  0.00    +1.240 S 
ATOM     14  O   LIG    1        8.552  -4.134  -1.781  0.00  0.00    -0.850 OA
ATOM     15  C   LIG    1        3.845  -2.142   0.716  0.00  0.00    +0.700 C 
ATOM     16  N   LIG    1        3.692  -0.842   0.397  0.00  0.00    -0.680 N 
ATOM     17  H   LIG    1        4.469  -0.298   0.192  0.00  0.00    +0.410 HD
ATOM     18  O   LIG    1        2.887  -2.793   1.086  0.00  0.00    -0.550 OA
ATOM     19  C   LIG    1        6.203  -5.201  -1.149  0.00  0.00    -0.230 C 
ENDBRANCH   1  16
BRANCH   5  20
ATOM     20  O   LIG    1        0.721   2.871   1.014  0.00  0.00    -0.240 OA
BRANCH  20  21
ATOM     21  C   LIG    1       -0.561   3.321   1.048  0.00  0.00    +0.110 A 
ATOM     22  C   LIG    1       -1.068   4.054  -0.014  0.00  0.00    +0.040 A 
ATOM     23  C   LIG    1       -2.373   4.506   0.020  0.00  0.00    +0.040 A 
ATOM     24  C   LIG    1       -3.171   4.239   1.117  0.00  0.00    +0.040 A 
ATOM     25  C   LIG    1       -2.667   3.514   2.181  0.00  0.00    +0.040 A 
ATOM     26  C   LIG    1       -1.363   3.054   2.150  0.00  0.00    -0.040 A 
ATOM     27 CL   LIG    1       -0.731   2.143   3.485  0.00  0.00    -0.050 Cl
ENDBRANCH  20  21
ENDBRANCH   5  20
TORSDOF 3
