REMARK  Name = ZINCkj00000GeSX2.0
REMARK                            x       y       z     vdW  Elec       q    Type
REMARK                         _______ _______ _______ _____ _____    ______ ____
ROOT
ATOM      1  C   LIG    1       -1.291   3.163  -3.307  0.00  0.00    +0.090 C 
ATOM      2  C   LIG    1       -2.165   1.958  -2.955  0.00  0.00    +0.230 C 
ATOM      3  C   LIG    1       -3.642   2.327  -3.143  0.00  0.00    +0.260 C 
ATOM      4  N   LIG    1       -4.447   1.236  -2.613  0.00  0.00    -0.390 N 
ATOM      5  C   LIG    1       -5.893   1.365  -2.808  0.00  0.00    +0.260 C 
ATOM      6  C   LIG    1       -6.551   0.645  -1.606  0.00  0.00    +0.080 C 
ATOM      7  C   LIG    1       -5.365   0.208  -0.702  0.00  0.00    +0.080 C 
ATOM      8  C   LIG    1       -4.254   1.179  -1.139  0.00  0.00    +0.170 C 
ATOM      9  C   LIG    1       -2.850   0.637  -0.890  0.00  0.00    +0.310 C 
ATOM     10  H   LIG    1       -4.141   0.366  -3.022  0.00  0.00    +0.420 HD
ATOM     11  N   LIG    1       -1.916   1.565  -1.562  0.00  0.00    -0.630 N 
ATOM     12  C   LIG    1       -0.848   2.051  -0.899  0.00  0.00    +0.540 C 
ATOM     13  O   LIG    1       -0.128   2.871  -1.428  0.00  0.00    -0.490 OA
ENDROOT
BRANCH  12  14
ATOM     14  C   LIG    1       -0.548   1.576   0.499  0.00  0.00    +0.230 C 
BRANCH  14  15
ATOM     15  C   LIG    1       -1.291   2.434   1.491  0.00  0.00    -0.140 A 
ATOM     16  C   LIG    1       -0.841   3.711   1.773  0.00  0.00    +0.030 A 
ATOM     17  C   LIG    1       -1.525   4.500   2.680  0.00  0.00    +0.020 A 
ATOM     18  C   LIG    1       -2.652   4.009   3.311  0.00  0.00    +0.020 A 
ATOM     19  C   LIG    1       -3.098   2.730   3.033  0.00  0.00    +0.020 A 
ATOM     20  C   LIG    1       -2.418   1.943   2.123  0.00  0.00    +0.000 A 
ENDBRANCH  14  15
BRANCH  14  21
ATOM     21  N   LIG    1        0.896   1.675   0.751  0.00  0.00    -0.820 NA
ATOM     22  H   LIG    1        1.131   1.302   1.659  0.00  0.00    +0.360 HD
ATOM     23  H   LIG    1        1.215   2.627   0.657  0.00  0.00    +0.360 HD
ENDBRANCH  14  21
ENDBRANCH  12  14
TORSDOF 3
