REMARK  Name = ZINCkj00000GeSX2.1
REMARK                            x       y       z     vdW  Elec       q    Type
REMARK                         _______ _______ _______ _____ _____    ______ ____
ROOT
ATOM      1  C   LIG    1        0.945  -2.115   1.016  0.00  0.00    +0.080 C 
ATOM      2  C   LIG    1        0.809  -0.627   1.341  0.00  0.00    +0.230 C 
ATOM      3  C   LIG    1       -0.051   0.062   0.279  0.00  0.00    +0.250 C 
ATOM      4  N   LIG    1       -0.078   1.496   0.467  0.00  0.00    -0.380 N 
ATOM      5  C   LIG    1       -0.694   1.907   1.744  0.00  0.00    +0.250 C 
ATOM      6  C   LIG    1       -0.309   3.401   1.872  0.00  0.00    +0.060 C 
ATOM      7  C   LIG    1        0.954   3.566   1.000  0.00  0.00    +0.090 C 
ATOM      8  C   LIG    1        1.249   2.139   0.458  0.00  0.00    +0.160 C 
ATOM      9  C   LIG    1        2.183   1.472   1.474  0.00  0.00    +0.320 C 
ATOM     10  H   LIG    1       -0.628   1.902  -0.276  0.00  0.00    +0.430 HD
ATOM     11  N   LIG    1        2.135   0.015   1.318  0.00  0.00    -0.620 N 
ATOM     12  C   LIG    1        3.260  -0.710   1.159  0.00  0.00    +0.500 C 
ATOM     13  O   LIG    1        3.201  -1.921   1.121  0.00  0.00    -0.500 OA
ENDROOT
BRANCH  12  14
ATOM     14  C   LIG    1        4.591  -0.016   1.027  0.00  0.00    +0.230 C 
BRANCH  14  15
ATOM     15  C   LIG    1        4.794   0.414  -0.403  0.00  0.00    -0.090 A 
ATOM     16  C   LIG    1        5.096  -0.525  -1.371  0.00  0.00    +0.020 A 
ATOM     17  C   LIG    1        5.277  -0.131  -2.683  0.00  0.00    +0.020 A 
ATOM     18  C   LIG    1        5.167   1.204  -3.026  0.00  0.00    +0.020 A 
ATOM     19  C   LIG    1        4.872   2.144  -2.056  0.00  0.00    +0.010 A 
ATOM     20  C   LIG    1        4.685   1.749  -0.744  0.00  0.00    +0.000 A 
ENDBRANCH  14  15
BRANCH  14  21
ATOM     21  N   LIG    1        5.665  -0.939   1.418  0.00  0.00    -0.810 NA
ATOM     22  H   LIG    1        5.669  -1.760   0.831  0.00  0.00    +0.360 HD
ATOM     23  H   LIG    1        5.588  -1.192   2.392  0.00  0.00    +0.350 HD
ENDBRANCH  14  21
ENDBRANCH  12  14
TORSDOF 3
