REMARK  Name = ZINCqH0000008ApY.1
REMARK                            x       y       z     vdW  Elec       q    Type
REMARK                         _______ _______ _______ _____ _____    ______ ____
ROOT
ATOM      1  N   LIG    1       -5.752   0.426  -1.940  0.00  0.00    -0.520 NA
ATOM      2  C   LIG    1       -5.237  -0.887  -2.347  0.00  0.00    +0.170 C 
ATOM      3  C   LIG    1       -6.404  -1.859  -2.536  0.00  0.00    +0.030 C 
ATOM      4  C   LIG    1       -7.352  -1.308  -3.605  0.00  0.00    -0.020 C 
ATOM      5  C   LIG    1       -7.837   0.080  -3.179  0.00  0.00    +0.030 C 
ATOM      6  C   LIG    1       -6.628   0.996  -2.972  0.00  0.00    +0.170 C 
ENDROOT
BRANCH   1   7
ATOM      7  C   LIG    1       -4.654   1.346  -1.615  0.00  0.00    +0.200 C 
BRANCH   7  10
ATOM      8  N   LIG    1       -2.873   1.535   0.091  0.00  0.00    -0.730 N 
ATOM      9  H   LIG    1       -2.585   2.352  -0.346  0.00  0.00    +0.400 HD
ATOM     10  C   LIG    1       -3.925   0.847  -0.394  0.00  0.00    +0.510 C 
ATOM     11  O   LIG    1       -4.285  -0.175   0.152  0.00  0.00    -0.520 OA
BRANCH   8  18
ATOM     12  C   LIG    1       -0.013   1.086   0.008  0.00  0.00    +0.020 C 
ATOM     13  C   LIG    1       -0.729   1.579   1.267  0.00  0.00    -0.030 C 
ATOM     14  C   LIG    1        0.011   1.072   2.506  0.00  0.00    +0.030 C 
ATOM     15  C   LIG    1       -0.705   1.566   3.765  0.00  0.00    +0.000 C 
ATOM     16  C   LIG    1       -2.140   1.036   3.776  0.00  0.00    +0.010 C 
ATOM     17  C   LIG    1       -2.880   1.543   2.537  0.00  0.00    +0.000 C 
ATOM     18  C   LIG    1       -2.164   1.050   1.278  0.00  0.00    +0.240 C 
ENDBRANCH   8  18
ENDBRANCH   7  10
ENDBRANCH   1   7
BRANCH   4  19
ATOM     19  C   LIG    1       -8.552  -2.245  -3.755  0.00  0.00    +0.020 C 
BRANCH  19  20
ATOM     20  C   LIG    1       -8.080  -3.595  -4.300  0.00  0.00    +0.070 C 
BRANCH  20  21
ATOM     21  C   LIG    1       -9.262  -4.518  -4.447  0.00  0.00    -0.090 A 
ATOM     22  C   LIG    1       -9.634  -5.338  -3.398  0.00  0.00    +0.030 A 
ATOM     23  C   LIG    1      -10.720  -6.181  -3.529  0.00  0.00    -0.010 A 
ATOM     24  C   LIG    1      -11.432  -6.212  -4.719  0.00  0.00    +0.100 A 
ATOM     25  C   LIG    1      -11.055  -5.393  -5.773  0.00  0.00    -0.010 A 
ATOM     26  C   LIG    1       -9.971  -4.547  -5.635  0.00  0.00    +0.030 A 
BRANCH  24  27
ATOM     27  O   LIG    1      -12.498  -7.045  -4.853  0.00  0.00    -0.500 OA
ATOM     28  H   LIG    1      -12.272  -7.921  -5.194  0.00  0.00    +0.390 HD
ENDBRANCH  24  27
ENDBRANCH  20  21
ENDBRANCH  19  20
ENDBRANCH   4  19
TORSDOF 7
