REMARK  Name = ZINCb80000003VOo.0
REMARK                            x       y       z     vdW  Elec       q    Type
REMARK                         _______ _______ _______ _____ _____    ______ ____
ROOT
ATOM      1  C   LIG    1        2.055  -1.690  -0.027  0.00  0.00    +0.190 C 
ATOM      2  C   LIG    1        1.423  -0.322  -0.013  0.00  0.00    +0.110 A 
ATOM      3  N   LIG    1        2.031   0.831  -0.013  0.00  0.00    -0.340 NA
ATOM      4  O   LIG    1        1.270   1.771  -0.001  0.00  0.00    +0.110 OA
ATOM      5  C   LIG    1       -0.017   1.402   0.010  0.00  0.00    +0.250 A 
ATOM      6  N   LIG    1       -1.197   2.027   0.029  0.00  0.00    -0.510 NA
ATOM      7  C   LIG    1       -2.323   1.371   0.032  0.00  0.00    +0.650 A 
ATOM      8  N   LIG    1       -2.396   0.018   0.025  0.00  0.00    -0.640 N 
ATOM      9  H   LIG    1       -3.261  -0.420   0.031  0.00  0.00    +0.430 HD
ATOM     10  C   LIG    1       -1.260  -0.723   0.010  0.00  0.00    +0.580 A 
ATOM     11  O   LIG    1       -1.297  -1.940   0.004  0.00  0.00    -0.500 OA
ATOM     12  C   LIG    1        0.002  -0.004   0.002  0.00  0.00    -0.340 A 
ENDROOT
TORSDOF 0
