REMARK  Name = ZINCrD00000e2ddP.0
REMARK                            x       y       z     vdW  Elec       q    Type
REMARK                         _______ _______ _______ _____ _____    ______ ____
ROOT
ATOM      1  N   LIG    1       -4.837  -1.993  -2.834  0.00  0.00    -0.660 N 
ATOM      2  H   LIG    1       -4.721  -2.613  -2.097  0.00  0.00    +0.410 HD
ATOM      3  C   LIG    1       -4.362  -0.736  -2.738  0.00  0.00    +0.730 C 
ATOM      4  N   LIG    1       -3.726  -0.339  -1.618  0.00  0.00    -0.630 N 
ATOM      5  C   LIG    1       -3.482  -1.173  -0.427  0.00  0.00    +0.250 C 
ATOM      6  C   LIG    1       -2.253  -0.530   0.262  0.00  0.00    +0.060 C 
ATOM      7  C   LIG    1       -2.513   0.980   0.019  0.00  0.00    +0.160 C 
ATOM      8  F   LIG    1       -3.391   1.491   0.982  0.00  0.00    -0.180 F 
ATOM      9  C   LIG    1       -3.162   0.998  -1.381  0.00  0.00    +0.300 C 
ATOM     10  O   LIG    1       -4.507   0.041  -3.663  0.00  0.00    -0.560 OA
ENDROOT
BRANCH   7  11
ATOM     11  C   LIG    1       -1.219   1.751   0.017  0.00  0.00    -0.080 A 
ATOM     12  C   LIG    1       -1.234   3.127   0.150  0.00  0.00    +0.030 A 
ATOM     13  C   LIG    1       -0.047   3.836   0.142  0.00  0.00    -0.050 A 
ATOM     14  C   LIG    1        1.156   3.170   0.008  0.00  0.00    -0.010 A 
ATOM     15  C   LIG    1        1.173   1.791  -0.119  0.00  0.00    +0.110 A 
ATOM     16  F   LIG    1        2.348   1.138  -0.249  0.00  0.00    -0.130 F 
ATOM     17  C   LIG    1       -0.066   5.337   0.281  0.00  0.00    +0.100 C 
ATOM     18  C   LIG    1       -0.016   1.082  -0.111  0.00  0.00    -0.010 A 
ENDBRANCH   7  11
BRANCH   1  21
ATOM     19  C   LIG    1       -6.415  -2.415  -6.046  0.00  0.00    -0.040 A 
ATOM     20  C   LIG    1       -5.744  -1.622  -5.139  0.00  0.00    +0.090 A 
ATOM     21  C   LIG    1       -5.501  -2.408  -4.004  0.00  0.00    +0.070 A 
ATOM     22  C   LIG    1       -6.026  -3.640  -4.234  0.00  0.00    +0.180 A 
ATOM     23  N   LIG    1       -6.584  -3.655  -5.472  0.00  0.00    -0.410 N 
ATOM     24  C   LIG    1       -7.254  -4.800  -6.093  0.00  0.00    +0.340 C 
BRANCH  19  25
ATOM     25  C   LIG    1       -6.871  -2.010  -7.378  0.00  0.00    +0.540 C 
ATOM     26  O   LIG    1       -6.660  -0.880  -7.776  0.00  0.00    -0.490 OA
BRANCH  25  28
ATOM     27  C   LIG    1       -7.946  -2.421  -9.472  0.00  0.00    +0.280 C 
ATOM     28  O   LIG    1       -7.524  -2.891  -8.164  0.00  0.00    -0.360 OA
ENDBRANCH  25  28
ENDBRANCH  19  25
ENDBRANCH   1  21
TORSDOF 4
