REMARK  Name = ZINCvU0000000I8v.0
REMARK                            x       y       z     vdW  Elec       q    Type
REMARK                         _______ _______ _______ _____ _____    ______ ____
ROOT
ATOM      1  C   LIG    1        3.019   1.240   1.336  0.00  0.00    +0.040 C 
ATOM      2  C   LIG    1        3.322   2.654   1.848  0.00  0.00    +0.060 C 
ATOM      3  C   LIG    1        4.514   3.207   1.063  0.00  0.00    +0.100 C 
ATOM      4  C   LIG    1        4.294   3.007  -0.409  0.00  0.00    +0.510 C 
ATOM      5  N   LIG    1        3.403   2.150  -0.910  0.00  0.00    -0.560 N 
ATOM      6  O   LIG    1        4.962   3.659  -1.183  0.00  0.00    -0.520 OA
ATOM      7  C   LIG    1        2.503   1.339  -0.100  0.00  0.00    +0.350 C 
ENDROOT
BRANCH   5   8
ATOM      8  C   LIG    1        3.328   2.022  -2.302  0.00  0.00    +0.130 A 
ATOM      9  C   LIG    1        2.862   3.079  -3.073  0.00  0.00    +0.030 A 
ATOM     10  C   LIG    1        2.794   2.951  -4.447  0.00  0.00    +0.020 A 
ATOM     11  C   LIG    1        3.178   1.769  -5.053  0.00  0.00    -0.080 A 
ATOM     12  C   LIG    1        3.636   0.713  -4.287  0.00  0.00    +0.020 A 
ATOM     13  C   LIG    1        3.096   1.631  -6.551  0.00  0.00    +0.090 C 
ATOM     14  C   LIG    1        3.712   0.836  -2.913  0.00  0.00    +0.000 A 
ENDBRANCH   5   8
BRANCH   7  15
ATOM     15  C   LIG    1        1.134   1.968  -0.095  0.00  0.00    -0.220 A 
ATOM     16  C   LIG    1       -0.019   1.301  -0.169  0.00  0.00    +0.080 A 
ATOM     17  C   LIG    1       -1.153   2.094  -0.153  0.00  0.00    +0.000 A 
ATOM     18  C   LIG    1       -0.922   3.404  -0.057  0.00  0.00    -0.050 A 
ATOM     19  S   LIG    1        0.811   3.694   0.007  0.00  0.00    +0.100 S 
ENDBRANCH   7  15
BRANCH   1  20
ATOM     20  C   LIG    1        1.969   0.601   2.208  0.00  0.00    +0.470 C 
ATOM     21  O   LIG    1        0.913   0.259   1.729  0.00  0.00    -0.460 OA
BRANCH  20  22
ATOM     22  O   LIG    1        2.206   0.412   3.516  0.00  0.00    -0.290 OA
BRANCH  22  26
ATOM     23  C   LIG    1       -0.648  -1.666   5.658  0.00  0.00    -0.170 A 
ATOM     24  C   LIG    1        0.225  -2.350   4.804  0.00  0.00    +0.100 A 
ATOM     25  C   LIG    1        1.175  -1.652   4.092  0.00  0.00    +0.010 A 
ATOM     26  C   LIG    1        1.267  -0.271   4.220  0.00  0.00    +0.120 A 
ATOM     27  C   LIG    1        0.406   0.413   5.071  0.00  0.00    +0.010 A 
ATOM     28  C   LIG    1       -0.550  -0.275   5.783  0.00  0.00    +0.080 A 
BRANCH  23  30
ATOM     29  C   LIG    1       -2.602  -1.666   7.339  0.00  0.00    +0.080 C 
ATOM     30  C   LIG    1       -1.663  -2.405   6.420  0.00  0.00    +0.390 C 
ATOM     31  O   LIG    1       -1.746  -3.610   6.309  0.00  0.00    -0.450 OA
ENDBRANCH  23  30
ENDBRANCH  22  26
ENDBRANCH  20  22
ENDBRANCH   1  20
TORSDOF 6
