REMARK  Name = ZINCtV00000tRRQA.0
REMARK                            x       y       z     vdW  Elec       q    Type
REMARK                         _______ _______ _______ _____ _____    ______ ____
ROOT
ATOM      1  C   LIG    1       -4.995   1.638  -1.314  0.00  0.00    +0.040 C 
ATOM      2  C   LIG    1       -5.017   0.942   0.049  0.00  0.00    +0.190 C 
ATOM      3  C   LIG    1       -5.562  -0.493  -0.107  0.00  0.00    +0.040 C 
ATOM      4  C   LIG    1       -4.272  -1.351  -0.184  0.00  0.00    +0.040 C 
ATOM      5  C   LIG    1       -3.335  -0.591   0.787  0.00  0.00    +0.240 C 
ATOM      6  N   LIG    1       -3.649   0.834   0.577  0.00  0.00    -0.620 N 
ATOM      7  C   LIG    1       -2.822   1.867   0.832  0.00  0.00    +0.720 C 
ATOM      8  N   LIG    1       -1.556   1.633   1.231  0.00  0.00    -0.680 N 
ATOM      9  H   LIG    1       -1.209   0.727   1.240  0.00  0.00    +0.410 HD
ATOM     10  O   LIG    1       -3.217   3.009   0.702  0.00  0.00    -0.560 OA
ENDROOT
BRANCH   8  11
ATOM     11  C   LIG    1       -0.740   2.699   1.633  0.00  0.00    +0.170 A 
ATOM     12  C   LIG    1        0.314   2.476   2.508  0.00  0.00    +0.020 A 
ATOM     13  C   LIG    1        1.121   3.527   2.899  0.00  0.00    +0.030 A 
ATOM     14  C   LIG    1        0.876   4.803   2.423  0.00  0.00    +0.090 A 
ATOM     15  C   LIG    1       -0.179   5.029   1.553  0.00  0.00    -0.050 A 
ATOM     16 CL   LIG    1       -0.483   6.631   0.956  0.00  0.00    -0.040 Cl
ATOM     17  F   LIG    1        1.667   5.829   2.805  0.00  0.00    -0.130 F 
ATOM     18  C   LIG    1       -0.989   3.981   1.160  0.00  0.00    +0.080 A 
ENDBRANCH   8  11
BRANCH   2  19
ATOM     19  C   LIG    1       -5.891   1.731   1.026  0.00  0.00    +0.080 C 
BRANCH  19  20
ATOM     20  C   LIG    1       -5.762   1.139   2.405  0.00  0.00    -0.080 A 
ATOM     21  C   LIG    1       -6.734   0.277   2.880  0.00  0.00    +0.050 A 
ATOM     22  C   LIG    1       -6.615  -0.272   4.142  0.00  0.00    -0.050 A 
ATOM     23  C   LIG    1       -5.526   0.052   4.938  0.00  0.00    +0.100 A 
ATOM     24  C   LIG    1       -4.555   0.921   4.462  0.00  0.00    +0.020 A 
ATOM     25  C   LIG    1       -4.676   1.462   3.197  0.00  0.00    +0.060 A 
BRANCH  23  26
ATOM     26  O   LIG    1       -5.410  -0.483   6.183  0.00  0.00    -0.310 OA
BRANCH  26  27
ATOM     27  C   LIG    1       -6.503  -1.272   6.654  0.00  0.00    +0.600 C 
ATOM     28  F   LIG    1       -7.630  -0.458   6.818  0.00  0.00    -0.160 F 
ATOM     29  F   LIG    1       -6.165  -1.851   7.882  0.00  0.00    -0.130 F 
ATOM     30  F   LIG    1       -6.787  -2.279   5.726  0.00  0.00    -0.170 F 
ENDBRANCH  26  27
ENDBRANCH  23  26
ENDBRANCH  19  20
ENDBRANCH   2  19
TORSDOF 5
