REMARK  Name = ZINCtV000002q50J.0
REMARK                            x       y       z     vdW  Elec       q    Type
REMARK                         _______ _______ _______ _____ _____    ______ ____
ROOT
ATOM      1  C   LIG    1        1.231  -4.888  -0.160  0.00  0.00    +0.300 C 
ATOM      2  C   LIG    1        0.668  -4.956   1.262  0.00  0.00    +0.040 C 
ENDROOT
BRANCH   1   3
ATOM      3  C   LIG    1        2.502  -4.079  -0.158  0.00  0.00    -0.080 A 
ATOM      4  C   LIG    1        3.721  -4.708   0.002  0.00  0.00    +0.030 A 
ATOM      5  C   LIG    1        4.890  -3.965   0.009  0.00  0.00    +0.080 A 
ATOM      6  C   LIG    1        4.838  -2.591  -0.150  0.00  0.00    +0.030 A 
ATOM      7  C   LIG    1        3.620  -1.959  -0.316  0.00  0.00    -0.020 A 
ATOM      8  F   LIG    1        6.081  -4.581   0.171  0.00  0.00    -0.130 F 
ATOM      9  C   LIG    1        2.450  -2.702  -0.324  0.00  0.00    +0.120 A 
BRANCH   9  10
ATOM     10  O   LIG    1        1.251  -2.082  -0.487  0.00  0.00    -0.250 OA
BRANCH  10  11
ATOM     11  C   LIG    1        1.253  -0.752  -0.763  0.00  0.00    +0.110 A 
ATOM     12  C   LIG    1        0.772   0.153   0.172  0.00  0.00    +0.010 A 
ATOM     13  C   LIG    1        0.774   1.505  -0.110  0.00  0.00    +0.080 A 
ATOM     14  C   LIG    1        1.256   1.959  -1.323  0.00  0.00    -0.010 A 
ATOM     15  C   LIG    1        1.738   1.059  -2.259  0.00  0.00    +0.120 A 
ATOM     16  F   LIG    1        2.213   1.505  -3.443  0.00  0.00    -0.130 F 
ATOM     17  C   LIG    1        1.737  -0.296  -1.981  0.00  0.00    -0.040 A 
ENDBRANCH  10  11
ENDBRANCH   9  10
ENDBRANCH   1   3
BRANCH   1  18
ATOM     18  N   LIG    1        1.515  -6.243  -0.638  0.00  0.00    -0.740 N 
ATOM     19  H   LIG    1        2.418  -6.593  -0.595  0.00  0.00    +0.400 HD
BRANCH  18  22
ATOM     20  C   LIG    1       -0.274  -9.094  -2.124  0.00  0.00    +0.190 A 
ATOM     21  C   LIG    1        0.753  -8.313  -1.615  0.00  0.00    -0.060 A 
ATOM     22  C   LIG    1        0.484  -7.031  -1.156  0.00  0.00    +0.230 A 
ATOM     23  C   LIG    1       -0.810  -6.530  -1.218  0.00  0.00    -0.090 A 
ATOM     24  C   LIG    1       -1.830  -7.309  -1.731  0.00  0.00    +0.070 A 
ATOM     25  C   LIG    1       -1.566  -8.587  -2.183  0.00  0.00    -0.170 A 
ATOM     26  C   LIG    1       -2.681  -9.433  -2.742  0.00  0.00    +0.080 C 
BRANCH  20  29
ATOM     27  C   LIG    1        1.323 -12.474  -2.564  0.00  0.00    +0.110 C 
ATOM     28  C   LIG    1        0.957 -11.126  -1.997  0.00  0.00    +0.510 C 
ATOM     29  N   LIG    1       -0.007 -10.389  -2.583  0.00  0.00    -0.670 N 
ATOM     30  H   LIG    1       -0.517 -10.756  -3.322  0.00  0.00    +0.410 HD
ATOM     31  O   LIG    1        1.529 -10.705  -1.014  0.00  0.00    -0.520 OA
ENDBRANCH  20  29
ENDBRANCH  18  22
ENDBRANCH   1  18
TORSDOF 6
