REMARK  Name = ZINCqH0000007LxA.0
REMARK                            x       y       z     vdW  Elec       q    Type
REMARK                         _______ _______ _______ _____ _____    ______ ____
ROOT
ATOM      1  N   LIG    1       -2.676  -3.039   4.795  0.00  0.00    -0.710 N 
ATOM      2  H   LIG    1       -2.448  -3.898   4.406  0.00  0.00    +0.400 HD
ATOM      3  C   LIG    1       -2.330  -1.900   4.163  0.00  0.00    +0.570 C 
ATOM      4  O   LIG    1       -2.616  -0.824   4.649  0.00  0.00    -0.520 OA
ENDROOT
BRANCH   1  10
ATOM      5  C   LIG    1       -1.477  -4.363   8.896  0.00  0.00    +0.140 A 
ATOM      6  C   LIG    1       -0.734  -3.303   9.391  0.00  0.00    -0.070 A 
ATOM      7  C   LIG    1       -0.836  -2.057   8.803  0.00  0.00    +0.050 A 
ATOM      8  C   LIG    1       -1.676  -1.871   7.722  0.00  0.00    +0.010 A 
ATOM      9  C   LIG    1       -2.420  -2.928   7.224  0.00  0.00    -0.080 A 
ATOM     10  C   LIG    1       -3.397  -2.980   6.069  0.00  0.00    +0.300 C 
ATOM     11  C   LIG    1       -4.210  -4.274   6.285  0.00  0.00    +0.050 C 
ATOM     12  C   LIG    1       -3.226  -5.152   7.088  0.00  0.00    +0.090 C 
ATOM     13  C   LIG    1       -2.322  -4.175   7.809  0.00  0.00    -0.120 A 
BRANCH   5  15
ATOM     14  C   LIG    1       -0.491  -5.712  10.588  0.00  0.00    +0.250 C 
ATOM     15  O   LIG    1       -1.378  -5.589   9.474  0.00  0.00    -0.320 OA
ENDBRANCH   5  15
ENDBRANCH   1  10
BRANCH   3  16
ATOM     16  C   LIG    1       -1.603  -1.960   2.878  0.00  0.00    -0.210 A 
ATOM     17  C   LIG    1       -1.269  -3.194   2.308  0.00  0.00    +0.370 A 
ATOM     18  N   LIG    1       -0.622  -3.271   1.166  0.00  0.00    -0.460 NA
ATOM     19  C   LIG    1       -0.256  -2.189   0.498  0.00  0.00    +0.230 A 
ATOM     20  O   LIG    1        0.393  -1.958  -0.656  0.00  0.00    +0.090 OA
ATOM     21  N   LIG    1        0.515  -0.782  -0.904  0.00  0.00    -0.310 NA
ATOM     22  C   LIG    1        0.002  -0.004   0.002  0.00  0.00    +0.080 A 
ATOM     23  C   LIG    1       -0.559  -0.908   1.011  0.00  0.00    -0.220 A 
ATOM     24  C   LIG    1       -1.239  -0.784   2.213  0.00  0.00    +0.230 A 
BRANCH  22  25
ATOM     25  C   LIG    1       -0.018   1.503   0.010  0.00  0.00    +0.080 C 
ATOM     26  C   LIG    1       -0.758   2.010  -1.229  0.00  0.00    +0.040 C 
ATOM     27  C   LIG    1        1.417   2.032  -0.001  0.00  0.00    +0.040 C 
ENDBRANCH  22  25
ENDBRANCH   3  16
TORSDOF 4
