REMARK  Name = ZINCtV00000L6k1O.0
REMARK                            x       y       z     vdW  Elec       q    Type
REMARK                         _______ _______ _______ _____ _____    ______ ____
ROOT
ATOM      1  N   LIG    1       -2.412  -1.888   0.737  0.00  0.00    -0.490 N 
ATOM      2  C   LIG    1       -1.079  -1.693   0.797  0.00  0.00    +0.490 C 
ATOM      3  O   LIG    1       -0.638  -0.582   1.002  0.00  0.00    -0.430 OA
ENDROOT
BRANCH   1   9
ATOM      4  C   LIG    1       -3.299  -3.654  -0.654  0.00  0.00    -0.050 A 
ATOM      5  C   LIG    1       -3.799  -4.934  -0.789  0.00  0.00    +0.020 A 
ATOM      6  C   LIG    1       -3.938  -5.744   0.323  0.00  0.00    +0.040 A 
ATOM      7  C   LIG    1       -3.571  -5.278   1.572  0.00  0.00    +0.010 A 
ATOM      8  C   LIG    1       -3.064  -4.000   1.712  0.00  0.00    +0.040 A 
ATOM      9  C   LIG    1       -2.925  -3.184   0.598  0.00  0.00    +0.100 A 
BRANCH   4  11
ATOM     10  C   LIG    1       -2.293  -3.477  -2.913  0.00  0.00    +0.030 C 
ATOM     11  C   LIG    1       -3.155  -2.769  -1.865  0.00  0.00    +0.020 C 
ATOM     12  C   LIG    1       -4.537  -2.479  -2.453  0.00  0.00    +0.040 C 
ENDBRANCH   4  11
ENDBRANCH   1   9
BRANCH   1  13
ATOM     13  C   LIG    1       -3.273  -0.807   0.813  0.00  0.00    +0.400 C 
ATOM     14  N   LIG    1       -2.765   0.365   0.825  0.00  0.00    -0.540 NA
ATOM     15  C   LIG    1       -3.441   1.641   0.928  0.00  0.00    +0.270 C 
ATOM     16  C   LIG    1       -4.915   1.557   0.553  0.00  0.00    +0.020 C 
ATOM     17  C   LIG    1       -5.594   0.493   1.427  0.00  0.00    +0.100 C 
ATOM     18  S   LIG    1       -5.000  -1.132   0.878  0.00  0.00    -0.130 S 
ENDBRANCH   1  13
BRANCH   2  19
ATOM     19  C   LIG    1       -0.139  -2.855   0.610  0.00  0.00    +0.110 C 
ATOM     20  C   LIG    1       -0.283  -3.823   1.786  0.00  0.00    +0.060 C 
ATOM     21  C   LIG    1       -0.479  -3.582  -0.693  0.00  0.00    +0.100 C 
BRANCH  19  22
ATOM     22  O   LIG    1        1.206  -2.375   0.550  0.00  0.00    -0.280 OA
BRANCH  22  23
ATOM     23  C   LIG    1        1.643  -1.632   1.601  0.00  0.00    +0.140 A 
ATOM     24  C   LIG    1        0.801  -1.387   2.676  0.00  0.00    -0.030 A 
ATOM     25  C   LIG    1        1.249  -0.636   3.746  0.00  0.00    +0.050 A 
ATOM     26  C   LIG    1        2.533  -0.120   3.741  0.00  0.00    -0.070 A 
ATOM     27  C   LIG    1        3.372  -0.359   2.667  0.00  0.00    +0.060 A 
ATOM     28 CL   LIG    1        3.091   0.829   5.083  0.00  0.00    -0.070 Cl
ATOM     29  C   LIG    1        2.930  -1.114   1.598  0.00  0.00    +0.000 A 
ENDBRANCH  22  23
ENDBRANCH  19  22
ENDBRANCH   2  19
TORSDOF 6
