REMARK  Name = ZINCpe00000VVH1p.0
REMARK                            x       y       z     vdW  Elec       q    Type
REMARK                         _______ _______ _______ _____ _____    ______ ____
ROOT
ATOM      1  C   LIG    1       -5.034   5.058   3.397  0.00  0.00    +0.600 C 
ATOM      2  N   LIG    1       -5.617   4.533   2.301  0.00  0.00    -0.600 N 
ATOM      3  C   LIG    1       -4.928   3.789   1.237  0.00  0.00    +0.270 C 
ATOM      4  C   LIG    1       -5.989   3.409   0.182  0.00  0.00    -0.010 C 
ATOM      5  C   LIG    1       -7.114   4.448   0.431  0.00  0.00    +0.180 C 
ATOM      6  C   LIG    1       -7.053   4.606   1.974  0.00  0.00    +0.230 C 
ATOM      7  O   LIG    1       -5.705   5.656   4.215  0.00  0.00    -0.520 OA
ENDROOT
BRANCH   1  10
ATOM      8  N   LIG    1       -1.588   4.099   2.852  0.00  0.00    -0.340 N 
ATOM      9  N   LIG    1       -2.854   4.262   2.716  0.00  0.00    -0.170 NA
ATOM     10  C   LIG    1       -3.578   4.905   3.604  0.00  0.00    +0.020 A 
ATOM     11  C   LIG    1       -2.967   5.457   4.756  0.00  0.00    +0.130 A 
ATOM     12  C   LIG    1       -1.623   5.296   4.913  0.00  0.00    -0.020 A 
ATOM     13  C   LIG    1       -0.920   4.588   3.914  0.00  0.00    +0.480 A 
ATOM     14  O   LIG    1        0.284   4.419   4.012  0.00  0.00    -0.520 OA
BRANCH   8  15
ATOM     15  C   LIG    1       -0.849   3.366   1.821  0.00  0.00    +0.320 C 
BRANCH  15  17
ATOM     16  C   LIG    1       -0.049   1.112   1.098  0.00  0.00    +0.030 C 
ATOM     17  C   LIG    1       -0.821   1.877   2.175  0.00  0.00    +0.000 C 
ENDBRANCH  15  17
ENDBRANCH   8  15
ENDBRANCH   1  10
BRANCH   5  18
ATOM     18  N   LIG    1       -8.419   3.923   0.009  0.00  0.00    -0.520 NA
ATOM     19  C   LIG    1       -9.460   4.957   0.105  0.00  0.00    +0.150 C 
ATOM     20  C   LIG    1      -10.788   4.386  -0.400  0.00  0.00    +0.220 C 
ATOM     21  O   LIG    1      -11.116   3.216   0.355  0.00  0.00    -0.380 OA
ATOM     22  C   LIG    1      -10.124   2.188   0.283  0.00  0.00    +0.220 C 
ATOM     23  C   LIG    1       -8.789   2.737   0.795  0.00  0.00    +0.150 C 
ENDBRANCH   5  18
BRANCH   4  24
ATOM     24  C   LIG    1       -5.423   3.553  -1.232  0.00  0.00    +0.030 C 
ATOM     25  C   LIG    1       -4.293   2.542  -1.434  0.00  0.00    +0.010 C 
ENDBRANCH   4  24
TORSDOF 5
