REMARK  Name = ZINCpk00000xYddF.0
REMARK                            x       y       z     vdW  Elec       q    Type
REMARK                         _______ _______ _______ _____ _____    ______ ____
ROOT
ATOM      1  N   LIG    1       -1.191   1.870   0.018  0.00  0.00    -0.740 N 
ATOM      2  H   LIG    1       -1.204   2.840   0.023  0.00  0.00    +0.400 HD
ATOM      3  C   LIG    1       -0.014   1.212   0.009  0.00  0.00    +0.710 C 
ATOM      4  N   LIG    1        1.143   1.901   0.001  0.00  0.00    -0.740 N 
ATOM      5  H   LIG    1        1.130   2.871   0.007  0.00  0.00    +0.400 HD
ATOM      6  O   LIG    1        0.002  -0.004   0.002  0.00  0.00    -0.580 OA
ENDROOT
BRANCH   1   8
ATOM      7  C   LIG    1       -2.830   0.759  -1.417  0.00  0.00    +0.040 C 
ATOM      8  C   LIG    1       -2.449   1.120   0.020  0.00  0.00    +0.310 C 
BRANCH   8   9
ATOM      9  C   LIG    1       -3.537   1.966   0.630  0.00  0.00    -0.110 A 
ATOM     10  C   LIG    1       -3.602   3.318   0.350  0.00  0.00    +0.050 A 
ATOM     11  C   LIG    1       -4.599   4.098   0.902  0.00  0.00    +0.000 A 
ATOM     12  C   LIG    1       -5.542   3.527   1.754  0.00  0.00    +0.140 A 
ATOM     13  N   LIG    1       -6.623   4.095   2.429  0.00  0.00    -0.660 N 
ATOM     14  H   LIG    1       -6.862   5.033   2.375  0.00  0.00    +0.410 HD
ATOM     15  C   LIG    1       -7.297   3.191   3.161  0.00  0.00    +0.530 C 
ATOM     16  C   LIG    1       -6.605   1.858   2.970  0.00  0.00    +0.140 C 
ATOM     17  O   LIG    1       -8.276   3.404   3.845  0.00  0.00    -0.500 OA
ATOM     18  C   LIG    1       -5.462   2.168   2.032  0.00  0.00    -0.140 A 
ATOM     19  C   LIG    1       -4.470   1.392   1.476  0.00  0.00    +0.080 A 
ENDBRANCH   8   9
ENDBRANCH   1   8
BRANCH   4  20
ATOM     20  C   LIG    1        2.422   1.186  -0.015  0.00  0.00    +0.290 C 
BRANCH  20  21
ATOM     21  C   LIG    1        3.571   2.196  -0.020  0.00  0.00    +0.270 C 
BRANCH  21  22
ATOM     22  N   LIG    1        4.850   1.481  -0.036  0.00  0.00    -0.700 N 
ATOM     23  H   LIG    1        4.863   0.511  -0.042  0.00  0.00    +0.420 HD
BRANCH  22  24
ATOM     24  C   LIG    1        6.039   2.189  -0.044  0.00  0.00    +0.560 A 
ATOM     25  N   LIG    1        6.003   3.514  -0.042  0.00  0.00    -0.570 NA
ATOM     26  C   LIG    1        7.121   4.221  -0.043  0.00  0.00    +0.360 A 
ATOM     27  C   LIG    1        8.339   3.559  -0.058  0.00  0.00    -0.140 A 
ATOM     28  C   LIG    1        8.340   2.173  -0.066  0.00  0.00    +0.360 A 
ATOM     29  N   LIG    1        7.186   1.527  -0.058  0.00  0.00    -0.570 NA
ENDBRANCH  22  24
ENDBRANCH  21  22
ENDBRANCH  20  21
ENDBRANCH   4  20
TORSDOF 6
