REMARK  Name = ZINCrH00000tj1nk.0
REMARK                            x       y       z     vdW  Elec       q    Type
REMARK                         _______ _______ _______ _____ _____    ______ ____
ROOT
ATOM      1  N   LIG    1       -2.315   4.324   0.036  0.00  0.00    -0.690 N 
ATOM      2  H   LIG    1       -3.148   3.828   0.038  0.00  0.00    +0.410 HD
ENDROOT
BRANCH   1   9
ATOM      3  C   LIG    1        0.114  11.200   0.065  0.00  0.00    +0.170 C 
ATOM      4  C   LIG    1       -0.676   9.917   0.061  0.00  0.00    +0.110 A 
ATOM      5  N   LIG    1       -1.984   9.826   0.066  0.00  0.00    -0.300 NA
ATOM      6  N   LIG    1       -2.343   8.473   0.060  0.00  0.00    -0.350 N 
ATOM      7  C   LIG    1       -1.192   7.734   0.051  0.00  0.00    +0.300 A 
ATOM      8  N   LIG    1       -1.210   6.388   0.048  0.00  0.00    -0.540 NA
ATOM      9  C   LIG    1       -2.333   5.705   0.044  0.00  0.00    +0.480 A 
ATOM     10  C   LIG    1       -3.609   6.434   0.054  0.00  0.00    -0.150 A 
ATOM     11  C   LIG    1       -4.835   5.769   0.055  0.00  0.00    +0.080 A 
ATOM     12  C   LIG    1       -6.004   6.499   0.065  0.00  0.00    +0.010 A 
ATOM     13  C   LIG    1       -5.967   7.886   0.073  0.00  0.00    +0.080 A 
ATOM     14  C   LIG    1       -4.762   8.557   0.072  0.00  0.00    +0.020 A 
ATOM     15  C   LIG    1       -3.574   7.840   0.062  0.00  0.00    +0.210 A 
ATOM     16  C   LIG    1       -0.137   8.636   0.051  0.00  0.00    -0.100 A 
ENDBRANCH   1   9
BRANCH   1  17
ATOM     17  C   LIG    1       -1.036   3.609   0.027  0.00  0.00    +0.280 C 
BRANCH  17  18
ATOM     18  C   LIG    1       -1.295   2.101   0.020  0.00  0.00    +0.270 C 
BRANCH  18  19
ATOM     19  N   LIG    1       -0.017   1.386   0.010  0.00  0.00    -0.730 N 
ATOM     20  H   LIG    1        0.817   1.883   0.004  0.00  0.00    +0.410 HD
BRANCH  19  21
ATOM     21  C   LIG    1        0.002  -0.004   0.002  0.00  0.00    +0.290 A 
ATOM     22  C   LIG    1       -1.188  -0.718   0.010  0.00  0.00    -0.070 A 
ATOM     23  C   LIG    1       -1.169  -2.099   0.002  0.00  0.00    +0.130 A 
ATOM     24  C   LIG    1        0.034  -2.784  -0.015  0.00  0.00    -0.070 A 
ATOM     25  C   LIG    1        1.230  -2.092  -0.022  0.00  0.00    +0.200 A 
ATOM     26  F   LIG    1        2.401  -2.766  -0.038  0.00  0.00    -0.120 F 
ATOM     27  C   LIG    1        1.226  -0.693  -0.019  0.00  0.00    -0.150 A 
BRANCH  27  28
ATOM     28  C   LIG    1        2.461   0.032  -0.033  0.00  0.00    +0.250 C 
ATOM     29  N   LIG    1        3.441   0.607  -0.043  0.00  0.00    -0.410 NA
ENDBRANCH  27  28
ENDBRANCH  19  21
ENDBRANCH  18  19
ENDBRANCH  17  18
ENDBRANCH   1  17
TORSDOF 6
