REMARK  Name = ZINCvU00000005yx.0
REMARK                            x       y       z     vdW  Elec       q    Type
REMARK                         _______ _______ _______ _____ _____    ______ ____
ROOT
ATOM      1  C   LIG    1       -4.981  -2.629   0.035  0.00  0.00    +0.370 C 
ATOM      2  C   LIG    1       -5.537  -2.661   1.421  0.00  0.00    -0.220 A 
ATOM      3  C   LIG    1       -6.724  -1.983   1.409  0.00  0.00    +0.090 A 
ATOM      4  C   LIG    1       -6.969  -1.506   0.038  0.00  0.00    +0.570 C 
ATOM      5  O   LIG    1       -7.943  -0.869  -0.313  0.00  0.00    -0.450 OA
ATOM      6  O   LIG    1       -7.480  -1.823   2.513  0.00  0.00    -0.180 OA
ATOM      7  C   LIG    1       -7.199  -2.539   3.626  0.00  0.00    +0.160 A 
ATOM      8  C   LIG    1       -8.123  -2.554   4.671  0.00  0.00    +0.030 A 
ATOM      9  C   LIG    1       -7.859  -3.268   5.818  0.00  0.00    +0.130 A 
ATOM     10  C   LIG    1       -6.676  -3.983   5.955  0.00  0.00    -0.120 A 
ATOM     11  C   LIG    1       -5.749  -3.985   4.936  0.00  0.00    +0.160 A 
ATOM     12 BR   LIG    1       -6.338  -4.953   7.543  0.00  0.00    -0.020 Br
ATOM     13  C   LIG    1       -6.007  -3.268   3.768  0.00  0.00    -0.210 A 
ATOM     14  C   LIG    1       -5.026  -3.269   2.654  0.00  0.00    +0.460 A 
ATOM     15  O   LIG    1       -3.902  -3.730   2.754  0.00  0.00    -0.410 OA
ATOM     16  N   LIG    1       -5.957  -1.877  -0.771  0.00  0.00    -0.500 N 
ENDROOT
BRANCH   1  20
ATOM     17  C   LIG    1       -1.200  -0.637   0.010  0.00  0.00    +0.150 A 
ATOM     18  C   LIG    1       -2.374   0.101   0.031  0.00  0.00    -0.080 A 
ATOM     19  C   LIG    1       -3.595  -0.545   0.033  0.00  0.00    +0.050 A 
ATOM     20  C   LIG    1       -3.648  -1.927   0.026  0.00  0.00    -0.130 A 
ATOM     21  C   LIG    1       -2.479  -2.665   0.011  0.00  0.00    +0.100 A 
ATOM     22  C   LIG    1       -1.255  -2.024   0.003  0.00  0.00    -0.010 A 
BRANCH  17  23
ATOM     23  O   LIG    1        0.002  -0.004   0.002  0.00  0.00    -0.310 OA
BRANCH  23  24
ATOM     24  C   LIG    1       -0.017   1.425   0.010  0.00  0.00    +0.180 C 
BRANCH  24  26
ATOM     25  C   LIG    1        1.397   3.484   0.007  0.00  0.00    +0.040 C 
ATOM     26  C   LIG    1        1.418   1.954  -0.001  0.00  0.00    +0.020 C 
ENDBRANCH  24  26
ENDBRANCH  23  24
ENDBRANCH  17  23
ENDBRANCH   1  20
BRANCH  16  27
ATOM     27  C   LIG    1       -5.852  -1.599  -2.127  0.00  0.00    +0.270 A 
ATOM     28  N   LIG    1       -4.865  -1.962  -2.885  0.00  0.00    -0.490 NA
ATOM     29  C   LIG    1       -4.931  -1.616  -4.157  0.00  0.00    +0.250 A 
ATOM     30  C   LIG    1       -6.020  -0.918  -4.487  0.00  0.00    -0.100 A 
ATOM     31  S   LIG    1       -7.003  -0.722  -3.038  0.00  0.00    +0.210 S 
ENDBRANCH  16  27
TORSDOF 5
