REMARK  Name = ZINCAx0000000a8q.0
REMARK                            x       y       z     vdW  Elec       q    Type
REMARK                         _______ _______ _______ _____ _____    ______ ____
ROOT
ATOM      1  C   LIG    1        4.817   0.700  -0.040  0.00  0.00    +0.070 C 
ATOM      2  C   LIG    1        6.051   1.231  -0.049  0.00  0.00    +0.070 C 
ENDROOT
BRANCH   1   3
ATOM      3  C   LIG    1        3.635   1.583  -0.024  0.00  0.00    +0.500 C 
ATOM      4  O   LIG    1        3.777   2.789  -0.019  0.00  0.00    -0.490 OA
BRANCH   3   5
ATOM      5  O   LIG    1        2.397   1.051  -0.015  0.00  0.00    -0.320 OA
BRANCH   5   6
ATOM      6  C   LIG    1        1.280   1.980   0.001  0.00  0.00    +0.270 C 
BRANCH   6   8
ATOM      7  O   LIG    1        0.002  -0.004   0.002  0.00  0.00    -0.510 OA
ATOM      8  C   LIG    1       -0.014   1.209   0.009  0.00  0.00    +0.520 C 
ATOM      9  N   LIG    1       -1.191   1.867   0.018  0.00  0.00    -0.720 N 
ATOM     10  H   LIG    1       -1.204   2.837   0.023  0.00  0.00    +0.400 HD
BRANCH   9  11
ATOM     11  C   LIG    1       -2.449   1.117   0.020  0.00  0.00    +0.190 C 
ATOM     12  C   LIG    1       -2.524   0.243  -1.234  0.00  0.00    +0.030 C 
ATOM     13  C   LIG    1       -3.839  -0.540  -1.232  0.00  0.00    -0.010 C 
ATOM     14  C   LIG    1       -3.902  -1.427   0.013  0.00  0.00    +0.020 C 
ATOM     15  C   LIG    1       -3.827  -0.553   1.266  0.00  0.00    -0.010 C 
ATOM     16  C   LIG    1       -5.003   0.425   1.277  0.00  0.00    +0.020 C 
ATOM     17  C   LIG    1       -4.940   1.312   0.033  0.00  0.00    +0.000 C 
ATOM     18  C   LIG    1       -5.015   0.439  -1.221  0.00  0.00    +0.020 C 
ATOM     19  C   LIG    1       -2.512   0.230   1.264  0.00  0.00    +0.030 C 
ATOM     20  C   LIG    1       -3.626   2.095   0.031  0.00  0.00    +0.020 C 
ENDBRANCH   9  11
ENDBRANCH   6   8
ENDBRANCH   5   6
ENDBRANCH   3   5
ENDBRANCH   1   3
BRANCH   2  21
ATOM     21  C   LIG    1        7.233   0.348  -0.065  0.00  0.00    +0.500 C 
ATOM     22  O   LIG    1        7.090  -0.858  -0.070  0.00  0.00    -0.490 OA
BRANCH  21  23
ATOM     23  O   LIG    1        8.471   0.880  -0.074  0.00  0.00    -0.320 OA
BRANCH  23  24
ATOM     24  C   LIG    1        9.588  -0.049  -0.090  0.00  0.00    +0.270 C 
BRANCH  24  25
ATOM     25  C   LIG    1       10.882   0.722  -0.098  0.00  0.00    +0.520 C 
ATOM     26  N   LIG    1       12.058   0.065  -0.113  0.00  0.00    -0.720 N 
ATOM     27  H   LIG    1       12.072  -0.905  -0.118  0.00  0.00    +0.400 HD
ATOM     28  O   LIG    1       10.866   1.935  -0.091  0.00  0.00    -0.510 OA
BRANCH  26  29
ATOM     29  C   LIG    1       13.317   0.814  -0.121  0.00  0.00    +0.190 C 
ATOM     30  C   LIG    1       13.374   1.702  -1.366  0.00  0.00    +0.030 C 
ATOM     31  C   LIG    1       14.689   2.485  -1.374  0.00  0.00    -0.010 C 
ATOM     32  C   LIG    1       14.770   3.358  -0.121  0.00  0.00    +0.020 C 
ATOM     33  C   LIG    1       14.713   2.471   1.124  0.00  0.00    -0.010 C 
ATOM     34  C   LIG    1       15.889   1.493   1.108  0.00  0.00    +0.020 C 
ATOM     35  C   LIG    1       15.808   0.619  -0.146  0.00  0.00    +0.000 C 
ATOM     36  C   LIG    1       15.865   1.506  -1.391  0.00  0.00    +0.020 C 
ATOM     37  C   LIG    1       13.398   1.688   1.133  0.00  0.00    +0.030 C 
ATOM     38  C   LIG    1       14.493  -0.164  -0.137  0.00  0.00    +0.020 C 
ENDBRANCH  26  29
ENDBRANCH  24  25
ENDBRANCH  23  24
ENDBRANCH  21  23
ENDBRANCH   2  21
TORSDOF 10
