REMARK  Name = ZINCnE000001EDVA.1
REMARK                            x       y       z     vdW  Elec       q    Type
REMARK                         _______ _______ _______ _____ _____    ______ ____
ROOT
ATOM      1  C   LIG    1        1.666  -0.462   6.040  0.00  0.00    +0.240 A 
ATOM      2  C   LIG    1        2.416  -1.624   5.908  0.00  0.00    -0.030 A 
ATOM      3  C   LIG    1        2.408  -2.321   4.715  0.00  0.00    +0.040 A 
ATOM      4  C   LIG    1        1.650  -1.867   3.652  0.00  0.00    -0.090 A 
ATOM      5  C   LIG    1        0.902  -0.703   3.776  0.00  0.00    +0.150 A 
ATOM      6  C   LIG    1        0.908  -0.001   4.973  0.00  0.00    +0.000 A 
ENDROOT
BRANCH   1  11
ATOM      7  C   LIG    1        0.692   3.006   9.512  0.00  0.00    +0.120 C 
ATOM      8  C   LIG    1        1.243   1.792   8.809  0.00  0.00    +0.110 A 
ATOM      9  C   LIG    1        2.088   0.888   9.343  0.00  0.00    -0.380 A 
ATOM     10  C   LIG    1        2.362  -0.091   8.360  0.00  0.00    +0.480 A 
ATOM     11  N   LIG    1        1.674   0.242   7.249  0.00  0.00    -0.390 N 
ATOM     12  O   LIG    1        3.087  -1.061   8.493  0.00  0.00    -0.630 OA
ATOM     13  N   LIG    1        0.975   1.425   7.521  0.00  0.00    -0.430 NA
ENDBRANCH   1  11
BRANCH   5  14
ATOM     14  N   LIG    1        0.140  -0.242   2.698  0.00  0.00    -0.670 N 
ATOM     15  H   LIG    1       -0.288  -0.875   2.100  0.00  0.00    +0.400 HD
ATOM     16  C   LIG    1       -0.001   1.082   2.489  0.00  0.00    +0.510 C 
ATOM     17  O   LIG    1        0.462   1.874   3.283  0.00  0.00    -0.500 OA
BRANCH  16  18
ATOM     18  C   LIG    1       -0.735   1.579   1.270  0.00  0.00    -0.070 C 
ATOM     19  C   LIG    1       -2.175   1.063   1.291  0.00  0.00    +0.080 C 
ATOM     20  C   LIG    1       -2.985   1.762   0.231  0.00  0.00    -0.040 C 
ATOM     21  C   LIG    1       -2.626   2.861  -0.351  0.00  0.00    -0.050 C 
ATOM     22  C   LIG    1       -1.348   3.590  -0.056  0.00  0.00    +0.060 C 
ATOM     23  C   LIG    1       -0.029   1.082   0.007  0.00  0.00    +0.050 C 
ATOM     24  C   LIG    1       -0.763   3.113   1.275  0.00  0.00    +0.050 C 
ENDBRANCH  16  18
ENDBRANCH   5  14
TORSDOF 3
