REMARK  Name = ZINCrg00001JduQc.0
REMARK                            x       y       z     vdW  Elec       q    Type
REMARK                         _______ _______ _______ _____ _____    ______ ____
ROOT
ATOM      1  C   LIG    1        9.072  -2.986   0.729  0.00  0.00    +0.560 C 
ATOM      2  N   LIG    1        8.325  -2.339  -0.188  0.00  0.00    -0.610 N 
ATOM      3  C   LIG    1        7.915  -3.025  -1.416  0.00  0.00    +0.290 C 
ATOM      4  O   LIG    1        9.342  -2.447   1.784  0.00  0.00    -0.530 OA
ENDROOT
BRANCH   1   9
ATOM      5  C   LIG    1       10.372  -6.479   1.235  0.00  0.00    +0.140 A 
ATOM      6  C   LIG    1       10.481  -6.916  -0.080  0.00  0.00    +0.010 A 
ATOM      7  C   LIG    1       10.134  -6.079  -1.123  0.00  0.00    +0.030 A 
ATOM      8  C   LIG    1        9.671  -4.804  -0.866  0.00  0.00    +0.020 A 
ATOM      9  C   LIG    1        9.563  -4.353   0.451  0.00  0.00    -0.120 A 
ATOM     10  C   LIG    1        9.913  -5.198   1.503  0.00  0.00    +0.090 A 
BRANCH   5  13
ATOM     11  C   LIG    1       10.502  -8.116   4.623  0.00  0.00    +0.110 C 
ATOM     12  C   LIG    1       10.063  -7.264   3.460  0.00  0.00    +0.510 C 
ATOM     13  N   LIG    1       10.725  -7.331   2.288  0.00  0.00    -0.680 N 
ATOM     14  H   LIG    1       11.446  -7.969   2.174  0.00  0.00    +0.410 HD
ATOM     15  O   LIG    1        9.113  -6.519   3.578  0.00  0.00    -0.520 OA
ENDBRANCH   5  13
ENDBRANCH   1   9
BRANCH   2  16
ATOM     16  C   LIG    1        7.924  -0.949   0.043  0.00  0.00    +0.300 C 
BRANCH  16  17
ATOM     17  C   LIG    1        6.583  -0.921   0.780  0.00  0.00    +0.000 C 
BRANCH  17  18
ATOM     18  C   LIG    1        6.164   0.530   1.022  0.00  0.00    +0.290 C 
BRANCH  18  19
ATOM     19  N   LIG    1        4.881   0.557   1.727  0.00  0.00    -0.680 N 
ATOM     20  H   LIG    1        4.440  -0.274   1.963  0.00  0.00    +0.420 HD
BRANCH  19  21
ATOM     21  C   LIG    1        4.297   1.769   2.057  0.00  0.00    +0.490 A 
ATOM     22  N   LIG    1        4.892   2.902   1.740  0.00  0.00    -0.530 NA
ATOM     23  C   LIG    1        4.343   4.079   2.051  0.00  0.00    +0.340 A 
ATOM     24  C   LIG    1        3.163   4.155   2.700  0.00  0.00    +0.130 A 
ATOM     25  N   LIG    1        2.502   3.012   3.054  0.00  0.00    -0.180 N 
ATOM     26  N   LIG    1        1.395   2.767   3.660  0.00  0.00    -0.100 NA
ATOM     27  N   LIG    1        1.228   1.492   3.741  0.00  0.00    -0.040 NA
ATOM     28  N   LIG    1        2.221   0.881   3.190  0.00  0.00    -0.260 NA
ATOM     29  C   LIG    1        3.057   1.802   2.739  0.00  0.00    +0.100 A 
ENDBRANCH  19  21
ENDBRANCH  18  19
ENDBRANCH  17  18
ENDBRANCH  16  17
ENDBRANCH   2  16
TORSDOF 7
