REMARK  Name = ZINCrg00000J1k8Q.0
REMARK                            x       y       z     vdW  Elec       q    Type
REMARK                         _______ _______ _______ _____ _____    ______ ____
ROOT
ATOM      1  C   LIG    1       -1.640   9.356   0.069  0.00  0.00    +0.520 C 
ATOM      2  N   LIG    1       -1.051  10.568   0.070  0.00  0.00    -0.620 N 
ATOM      3  C   LIG    1        0.414  10.696   0.062  0.00  0.00    +0.300 C 
ATOM      4  C   LIG    1        0.808  11.652  -1.075  0.00  0.00    +0.200 C 
ATOM      5  N   LIG    1        0.076  12.916  -0.921  0.00  0.00    -0.480 N 
ATOM      6  C   LIG    1       -1.373  12.711  -1.047  0.00  0.00    +0.200 C 
ATOM      7  C   LIG    1       -1.857  11.799   0.085  0.00  0.00    +0.310 C 
ATOM      8  O   LIG    1       -2.850   9.269   0.081  0.00  0.00    -0.520 OA
ENDROOT
BRANCH   5   9
ATOM      9  C   LIG    1        0.528  13.871  -1.835  0.00  0.00    +0.110 A 
ATOM     10  C   LIG    1        1.875  14.223  -1.882  0.00  0.00    +0.060 A 
ATOM     11  C   LIG    1        2.276  15.171  -2.809  0.00  0.00    +0.100 A 
ATOM     12  C   LIG    1        1.332  15.740  -3.644  0.00  0.00    +0.140 A 
ATOM     13  N   LIG    1        0.063  15.389  -3.571  0.00  0.00    -0.400 NA
ATOM     14  C   LIG    1       -0.360  14.488  -2.707  0.00  0.00    +0.250 A 
BRANCH  12  15
ATOM     15  N   LIG    1        1.752  16.757  -4.633  0.00  0.00    +0.030 N 
ATOM     16  O   LIG    1        2.922  17.088  -4.708  0.00  0.00    -0.160 OA
ATOM     17  O   LIG    1        0.928  17.264  -5.373  0.00  0.00    -0.120 OA
ENDBRANCH  12  15
ENDBRANCH   5   9
BRANCH   1  18
ATOM     18  C   LIG    1       -0.795   8.108   0.054  0.00  0.00    +0.050 C 
BRANCH  18  19
ATOM     19  C   LIG    1       -1.704   6.877   0.056  0.00  0.00    +0.300 C 
BRANCH  19  22
ATOM     20  O   LIG    1       -2.684   4.365   0.052  0.00  0.00    -0.530 OA
ATOM     21  C   LIG    1       -1.471   4.452   0.041  0.00  0.00    +0.590 C 
ATOM     22  N   LIG    1       -0.882   5.664   0.041  0.00  0.00    -0.730 N 
ATOM     23  H   LIG    1        0.085   5.734   0.032  0.00  0.00    +0.400 HD
BRANCH  21  24
ATOM     24  C   LIG    1       -0.645   3.231   0.026  0.00  0.00    -0.240 A 
ATOM     25  C   LIG    1        0.717   3.158   0.012  0.00  0.00    +0.230 A 
ATOM     26  O   LIG    1        1.070   1.869   0.002  0.00  0.00    -0.170 OA
ATOM     27  C   LIG    1       -0.013   1.076   0.008  0.00  0.00    +0.170 A 
ATOM     28  C   LIG    1       -1.116   1.839   0.017  0.00  0.00    -0.010 A 
ENDBRANCH  21  24
ENDBRANCH  19  22
ENDBRANCH  18  19
ENDBRANCH   1  18
TORSDOF 6
