REMARK  Name = ZINCtV00000L6jSV.0
REMARK                            x       y       z     vdW  Elec       q    Type
REMARK                         _______ _______ _______ _____ _____    ______ ____
ROOT
ATOM      1  C   LIG    1       -1.071   1.557  -0.580  0.00  0.00    +0.600 C 
ATOM      2  N   LIG    1       -0.011   0.966   0.007  0.00  0.00    -0.660 N 
ATOM      3  H   LIG    1       -0.101   0.080   0.392  0.00  0.00    +0.410 HD
ATOM      4  O   LIG    1       -0.933   2.621  -1.153  0.00  0.00    -0.490 OA
ENDROOT
BRANCH   1   7
ATOM      5  C   LIG    1       -2.311  -0.519  -2.663  0.00  0.00    +0.210 C 
ATOM      6  C   LIG    1       -2.948   0.021  -1.409  0.00  0.00    +0.030 A 
ATOM      7  C   LIG    1       -2.395   0.915  -0.527  0.00  0.00    -0.250 A 
ATOM      8  C   LIG    1       -3.454   1.069   0.493  0.00  0.00    +0.090 A 
ATOM      9  N   LIG    1       -4.431   0.297   0.089  0.00  0.00    -0.320 NA
ATOM     10  O   LIG    1       -4.162  -0.276  -0.938  0.00  0.00    +0.110 OA
BRANCH   8  11
ATOM     11  C   LIG    1       -3.418   1.917   1.709  0.00  0.00    -0.020 A 
ATOM     12  C   LIG    1       -2.289   2.683   1.995  0.00  0.00    +0.050 A 
ATOM     13  C   LIG    1       -2.264   3.474   3.125  0.00  0.00    +0.030 A 
ATOM     14  C   LIG    1       -3.351   3.501   3.980  0.00  0.00    +0.050 A 
ATOM     15  C   LIG    1       -4.472   2.739   3.705  0.00  0.00    +0.030 A 
ATOM     16  C   LIG    1       -4.512   1.947   2.574  0.00  0.00    -0.010 A 
ATOM     17 CL   LIG    1       -5.920   0.991   2.230  0.00  0.00    -0.040 Cl
ENDBRANCH   8  11
ENDBRANCH   1   7
BRANCH   2  18
ATOM     18  C   LIG    1        1.220   1.628   0.057  0.00  0.00    +0.150 A 
ATOM     19  C   LIG    1        1.268   3.014  -0.005  0.00  0.00    +0.010 A 
ATOM     20  C   LIG    1        2.485   3.664   0.045  0.00  0.00    +0.030 A 
ATOM     21  C   LIG    1        3.656   2.937   0.156  0.00  0.00    -0.010 A 
ATOM     22  C   LIG    1        3.612   1.556   0.218  0.00  0.00    +0.040 A 
ATOM     23  C   LIG    1        2.397   0.900   0.174  0.00  0.00    -0.100 A 
BRANCH  23  24
ATOM     24  C   LIG    1        2.350  -0.605   0.248  0.00  0.00    +0.120 C 
BRANCH  24  25
ATOM     25  C   LIG    1        2.307  -1.175  -1.147  0.00  0.00    -0.080 A 
ATOM     26  C   LIG    1        1.090  -1.403  -1.763  0.00  0.00    -0.010 A 
ATOM     27  C   LIG    1        1.051  -1.921  -3.044  0.00  0.00    +0.000 A 
ATOM     28  C   LIG    1        2.227  -2.220  -3.705  0.00  0.00    +0.000 A 
ATOM     29  C   LIG    1        3.443  -1.998  -3.086  0.00  0.00    +0.000 A 
ATOM     30  C   LIG    1        3.483  -1.475  -1.808  0.00  0.00    +0.010 A 
ENDBRANCH  24  25
ENDBRANCH  23  24
ENDBRANCH   2  18
TORSDOF 5
