REMARK  Name = ZINCkj00000ANJq3.0
REMARK                            x       y       z     vdW  Elec       q    Type
REMARK                         _______ _______ _______ _____ _____    ______ ____
ROOT
ATOM      1  N   LIG    1       -3.188   1.047  -1.456  0.00  0.00    -0.730 N 
ATOM      2  H   LIG    1       -2.888   0.223  -1.870  0.00  0.00    +0.390 HD
ATOM      3  C   LIG    1       -4.475   1.429  -1.572  0.00  0.00    +0.600 C 
ATOM      4  O   LIG    1       -4.874   2.414  -0.978  0.00  0.00    -0.530 OA
ENDROOT
BRANCH   3   5
ATOM      5  C   LIG    1       -5.365   0.684  -2.387  0.00  0.00    -0.160 A 
ATOM      6  C   LIG    1       -5.091  -0.505  -3.043  0.00  0.00    +0.300 A 
ATOM      7  N   LIG    1       -6.180  -0.878  -3.695  0.00  0.00    -0.480 NA
ATOM      8  C   LIG    1       -7.153   0.011  -3.496  0.00  0.00    +0.240 A 
ATOM      9  C   LIG    1       -8.479   0.070  -3.961  0.00  0.00    +0.130 A 
ATOM     10  C   LIG    1       -9.272   1.115  -3.593  0.00  0.00    +0.060 A 
ATOM     11  C   LIG    1       -8.755   2.116  -2.756  0.00  0.00    +0.100 A 
ATOM     12  C   LIG    1       -7.475   2.042  -2.319  0.00  0.00    +0.210 A 
ATOM     13  F   LIG    1       -9.535   3.156  -2.387  0.00  0.00    -0.110 F 
ATOM     14  N   LIG    1       -6.680   0.998  -2.679  0.00  0.00    -0.300 N 
ENDBRANCH   3   5
BRANCH   1  19
ATOM     15  C   LIG    1       -0.809   1.624  -1.203  0.00  0.00    -0.020 C 
ATOM     16  C   LIG    1       -0.011   1.089   0.004  0.00  0.00    +0.020 C 
ATOM     17  C   LIG    1       -0.786   1.613   1.238  0.00  0.00    +0.040 C 
ATOM     18  C   LIG    1       -2.266   1.486   0.787  0.00  0.00    +0.020 C 
ATOM     19  C   LIG    1       -2.243   1.877  -0.705  0.00  0.00    +0.270 C 
BRANCH  15  20
ATOM     20  C   LIG    1       -0.819   0.585  -2.326  0.00  0.00    +0.270 C 
BRANCH  20  21
ATOM     21  N   LIG    1        0.542   0.417  -2.851  0.00  0.00    -0.640 N 
ATOM     22  H   LIG    1        0.535  -0.268  -3.591  0.00  0.00    +0.440 HD
ATOM     23  H   LIG    1        1.152   0.105  -2.110  0.00  0.00    +0.440 HD
ATOM     24  H   LIG    1        0.875   1.299  -3.211  0.00  0.00    +0.440 HD
ENDBRANCH  20  21
ENDBRANCH  15  20
ENDBRANCH   1  19
TORSDOF 4
