REMARK  Name = ZINCrD000000C8xV.0
REMARK                            x       y       z     vdW  Elec       q    Type
REMARK                         _______ _______ _______ _____ _____    ______ ____
ROOT
ATOM      1  O   LIG    1        3.462  -2.111  -0.134  0.00  0.00    -0.560 OA
ATOM      2  C   LIG    1        2.418  -2.734  -0.126  0.00  0.00    +0.710 C 
ATOM      3  N   LIG    1        2.434  -4.077  -0.232  0.00  0.00    -0.630 N 
ATOM      4  C   LIG    1        1.183  -4.845  -0.331  0.00  0.00    +0.250 C 
ATOM      5  C   LIG    1        1.218  -5.971   0.702  0.00  0.00    +0.230 C 
ATOM      6  O   LIG    1        2.431  -6.712   0.553  0.00  0.00    -0.370 OA
ATOM      7  C   LIG    1        3.616  -5.948   0.789  0.00  0.00    +0.200 C 
ATOM      8  C   LIG    1        3.704  -4.821  -0.246  0.00  0.00    +0.300 C 
ATOM      9  N   LIG    1        1.245  -2.081  -0.012  0.00  0.00    -0.670 N 
ATOM     10  H   LIG    1        0.418  -2.581   0.076  0.00  0.00    +0.410 HD
ENDROOT
BRANCH   9  11
ATOM     11  C   LIG    1        1.218  -0.680  -0.022  0.00  0.00    +0.180 A 
ATOM     12  C   LIG    1        2.239   0.030  -0.638  0.00  0.00    +0.030 A 
ATOM     13  C   LIG    1        2.213   1.411  -0.648  0.00  0.00    +0.050 A 
ATOM     14  C   LIG    1        1.173   2.091  -0.042  0.00  0.00    +0.010 A 
ATOM     15  C   LIG    1        0.148   1.389   0.579  0.00  0.00    +0.070 A 
ATOM     16  O   LIG    1       -0.863   2.075   1.177  0.00  0.00    -0.300 OA
ATOM     17  C   LIG    1       -2.060   1.342   1.460  0.00  0.00    +0.220 C 
ATOM     18  C   LIG    1       -1.663   0.007   2.106  0.00  0.00    +0.220 C 
ATOM     19  O   LIG    1       -0.831  -0.706   1.185  0.00  0.00    -0.310 OA
ATOM     20  C   LIG    1        0.168   0.002   0.588  0.00  0.00    +0.010 A 
ENDBRANCH   9  11
BRANCH   7  21
ATOM     21  C   LIG    1        4.824  -6.841   0.664  0.00  0.00    -0.070 A 
ATOM     22  C   LIG    1        4.869  -7.807  -0.324  0.00  0.00    +0.080 A 
ATOM     23  C   LIG    1        5.978  -8.624  -0.444  0.00  0.00    +0.020 A 
ATOM     24  C   LIG    1        7.039  -8.483   0.433  0.00  0.00    +0.080 A 
ATOM     25  C   LIG    1        6.991  -7.518   1.428  0.00  0.00    +0.070 A 
ATOM     26  F   LIG    1        8.026  -7.379   2.285  0.00  0.00    -0.130 F 
ATOM     27  F   LIG    1        8.121  -9.284   0.320  0.00  0.00    -0.130 F 
ATOM     28  C   LIG    1        5.882  -6.699   1.542  0.00  0.00    +0.040 A 
ENDBRANCH   7  21
TORSDOF 2
