REMARK  Name = ZINCpk000000oeSB.0
REMARK                            x       y       z     vdW  Elec       q    Type
REMARK                         _______ _______ _______ _____ _____    ______ ____
ROOT
ATOM      1  C   LIG    1        2.300   5.683   0.226  0.00  0.00    +0.390 C 
ENDROOT
BRANCH   1   5
ATOM      2  N   LIG    1        5.602   6.836   1.197  0.00  0.00    -0.570 N 
ATOM      3  C   LIG    1        5.750   6.984  -0.138  0.00  0.00    +0.510 C 
ATOM      4  C   LIG    1        4.447   6.543  -0.735  0.00  0.00    +0.510 C 
ATOM      5  N   LIG    1        3.674   6.185   0.313  0.00  0.00    -0.560 N 
ATOM      6  O   LIG    1        4.150   6.515  -1.911  0.00  0.00    -0.400 OA
ATOM      7  O   LIG    1        6.730   7.387  -0.728  0.00  0.00    -0.400 OA
ATOM      8  C   LIG    1        4.368   6.368   1.447  0.00  0.00    +0.720 C 
ATOM      9  O   LIG    1        3.936   6.138   2.559  0.00  0.00    -0.480 OA
BRANCH   2  10
ATOM     10  C   LIG    1        6.619   7.141   2.206  0.00  0.00    +0.330 C 
BRANCH  10  11
ATOM     11  C   LIG    1        6.473   8.598   2.652  0.00  0.00    +0.000 C 
BRANCH  11  13
ATOM     12  C   LIG    1        7.389  10.373   4.152  0.00  0.00    +0.030 C 
ATOM     13  C   LIG    1        7.535   8.916   3.706  0.00  0.00    +0.020 C 
ENDBRANCH  11  13
ENDBRANCH  10  11
ENDBRANCH   2  10
ENDBRANCH   1   5
BRANCH   1  14
ATOM     14  C   LIG    1        2.321   4.181   0.104  0.00  0.00    +0.500 C 
ATOM     15  N   LIG    1        1.163   3.497   0.010  0.00  0.00    -0.670 N 
ATOM     16  H   LIG    1        0.322   3.974  -0.057  0.00  0.00    +0.420 HD
ATOM     17  O   LIG    1        3.379   3.588   0.091  0.00  0.00    -0.500 OA
BRANCH  15  18
ATOM     18  C   LIG    1        1.176   2.097   0.008  0.00  0.00    +0.130 A 
ATOM     19  C   LIG    1        0.233   1.395  -0.732  0.00  0.00    +0.020 A 
ATOM     20  C   LIG    1        0.240   0.012  -0.739  0.00  0.00    +0.030 A 
ATOM     21  C   LIG    1        1.183  -0.681  -0.010  0.00  0.00    +0.050 A 
ATOM     22  C   LIG    1        2.138   0.015   0.739  0.00  0.00    -0.150 A 
ATOM     23  C   LIG    1        2.129   1.412   0.745  0.00  0.00    +0.080 A 
BRANCH  22  24
ATOM     24  C   LIG    1        3.146  -0.721   1.518  0.00  0.00    +0.390 C 
ATOM     25  O   LIG    1        3.973  -0.115   2.166  0.00  0.00    -0.450 OA
ATOM     26  C   LIG    1        3.152  -2.228   1.510  0.00  0.00    +0.080 C 
ENDBRANCH  22  24
ENDBRANCH  15  18
ENDBRANCH   1  14
TORSDOF 7
