REMARK  Name = ZINCpk000005U69u.0
REMARK                            x       y       z     vdW  Elec       q    Type
REMARK                         _______ _______ _______ _____ _____    ______ ____
ROOT
ATOM      1  C   LIG    1        1.699   8.828   1.482  0.00  0.00    +0.140 A 
ATOM      2  N   LIG    1        1.148   8.165   0.494  0.00  0.00    -0.450 NA
ATOM      3  C   LIG    1       -0.147   8.026   0.830  0.00  0.00    +0.170 A 
ATOM      4  N   LIG    1       -0.315   8.605   1.981  0.00  0.00    -0.380 NA
ATOM      5  O   LIG    1        0.734   9.068   2.375  0.00  0.00    +0.080 OA
ENDROOT
BRANCH   1   6
ATOM      6  C   LIG    1        3.144   9.242   1.589  0.00  0.00    +0.340 C 
BRANCH   6   7
ATOM      7  N   LIG    1        3.222  10.638   2.040  0.00  0.00    -0.820 NA
ATOM      8  H   LIG    1        2.785  10.751   2.943  0.00  0.00    +0.350 HD
ATOM      9  H   LIG    1        2.813  11.261   1.360  0.00  0.00    +0.360 HD
ENDBRANCH   6   7
BRANCH   6  10
ATOM     10  C   LIG    1        3.859   8.339   2.597  0.00  0.00    +0.130 C 
BRANCH  10  11
ATOM     11  C   LIG    1        5.329   8.671   2.614  0.00  0.00    +0.100 A 
ATOM     12  C   LIG    1        5.948   9.009   3.804  0.00  0.00    +0.230 A 
ATOM     13  N   LIG    1        7.238   9.296   3.820  0.00  0.00    -0.430 NA
ATOM     14  C   LIG    1        7.934   9.270   2.697  0.00  0.00    +0.210 A 
ATOM     15  C   LIG    1        7.314   8.937   1.506  0.00  0.00    +0.230 A 
ATOM     16  N   LIG    1        6.026   8.646   1.491  0.00  0.00    -0.430 NA
ENDBRANCH  10  11
ENDBRANCH   6  10
ENDBRANCH   1   6
BRANCH   3  17
ATOM     17  C   LIG    1       -1.210   7.331   0.017  0.00  0.00    +0.210 C 
BRANCH  17  18
ATOM     18  C   LIG    1       -1.263   5.853   0.405  0.00  0.00    +0.150 C 
ATOM     19  C   LIG    1       -2.425   5.167  -0.327  0.00  0.00    +0.240 C 
ATOM     20  O   LIG    1       -2.437   3.785   0.048  0.00  0.00    -0.300 OA
ATOM     21  C   LIG    1       -1.241   3.136   0.030  0.00  0.00    +0.050 A 
ATOM     22  C   LIG    1       -1.220   1.750   0.017  0.00  0.00    +0.030 A 
ATOM     23  C   LIG    1       -0.013   1.076   0.008  0.00  0.00    +0.010 A 
ATOM     24  C   LIG    1        1.175   1.782   0.000  0.00  0.00    +0.020 A 
ATOM     25  C   LIG    1        1.161   3.164   0.007  0.00  0.00    +0.020 A 
ATOM     26  C   LIG    1       -0.046   3.846   0.020  0.00  0.00    +0.050 A 
ATOM     27  O   LIG    1       -0.045   5.207   0.018  0.00  0.00    -0.290 OA
ENDBRANCH  17  18
ENDBRANCH   3  17
TORSDOF 6
