REMARK  Name = ZINCrm000000OMPh.0
REMARK                            x       y       z     vdW  Elec       q    Type
REMARK                         _______ _______ _______ _____ _____    ______ ____
ROOT
ATOM      1  C   LIG    1       -3.639  -0.894  -3.544  0.00  0.00    +0.040 C 
ATOM      2  C   LIG    1       -2.413   0.022  -3.481  0.00  0.00    +0.130 C 
ATOM      3  C   LIG    1       -2.038   0.262  -2.017  0.00  0.00    +0.260 C 
ATOM      4  N   LIG    1       -1.727  -1.018  -1.371  0.00  0.00    -0.390 N 
ATOM      5  C   LIG    1       -2.920  -1.874  -1.364  0.00  0.00    +0.270 C 
ATOM      6  H   LIG    1       -0.987  -1.479  -1.879  0.00  0.00    +0.430 HD
ATOM      7  C   LIG    1       -3.328  -2.198  -2.803  0.00  0.00    +0.110 C 
ENDROOT
BRANCH   1   8
ATOM      8  N   LIG    1       -4.784  -0.228  -2.910  0.00  0.00    -0.640 N 
ATOM      9  H   LIG    1       -4.564  -0.026  -1.946  0.00  0.00    +0.430 HD
ATOM     10  H   LIG    1       -5.591  -0.832  -2.952  0.00  0.00    +0.440 HD
ATOM     11  H   LIG    1       -4.983   0.634  -3.397  0.00  0.00    +0.450 HD
ENDBRANCH   1   8
BRANCH   4  12
ATOM     12  C   LIG    1       -1.293  -0.775   0.011  0.00  0.00    +0.330 C 
BRANCH  12  13
ATOM     13  C   LIG    1        0.002  -0.004   0.002  0.00  0.00    -0.180 A 
ATOM     14  C   LIG    1       -0.017   1.378   0.010  0.00  0.00    +0.030 A 
ATOM     15  C   LIG    1        1.171   2.086   0.002  0.00  0.00    +0.030 A 
ATOM     16  C   LIG    1        2.377   1.411  -0.015  0.00  0.00    +0.070 A 
ATOM     17  C   LIG    1        2.396   0.029  -0.022  0.00  0.00    +0.030 A 
ATOM     18  C   LIG    1        1.208  -0.679  -0.013  0.00  0.00    +0.040 A 
ENDBRANCH  12  13
ENDBRANCH   4  12
BRANCH   1  19
ATOM     19  C   LIG    1       -3.972  -1.204  -5.005  0.00  0.00    +0.340 C 
BRANCH  19  20
ATOM     20  N   LIG    1       -5.212  -1.981  -5.070  0.00  0.00    -0.740 N 
ATOM     21  H   LIG    1       -5.680  -2.215  -4.253  0.00  0.00    +0.400 HD
ATOM     22  C   LIG    1       -5.702  -2.369  -6.263  0.00  0.00    +0.590 C 
ATOM     23  O   LIG    1       -5.116  -2.075  -7.286  0.00  0.00    -0.480 OA
BRANCH  22  24
ATOM     24  C   LIG    1       -6.956  -3.155  -6.329  0.00  0.00    +0.150 A 
ATOM     25  C   LIG    1       -7.483  -3.569  -7.561  0.00  0.00    -0.150 A 
ATOM     26  C   LIG    1       -7.092  -3.422  -8.957  0.00  0.00    -0.010 A 
ATOM     27  C   LIG    1       -8.024  -4.054  -9.693  0.00  0.00    +0.290 A 
ATOM     28  N   LIG    1       -8.980  -4.593  -8.874  0.00  0.00    -0.570 N 
ATOM     29  H   LIG    1       -9.753  -5.095  -9.177  0.00  0.00    +0.430 HD
ATOM     30  C   LIG    1       -8.685  -4.318  -7.566  0.00  0.00    +0.330 A 
ATOM     31  N   LIG    1       -9.261  -4.597  -6.405  0.00  0.00    -0.490 NA
ATOM     32  C   LIG    1       -8.729  -4.186  -5.272  0.00  0.00    +0.520 A 
ATOM     33  N   LIG    1       -7.611  -3.492  -5.218  0.00  0.00    -0.520 NA
ENDBRANCH  22  24
ENDBRANCH  19  20
ENDBRANCH   1  19
TORSDOF 6
