REMARK  Name = ZINCpk00000y6tXp.0
REMARK                            x       y       z     vdW  Elec       q    Type
REMARK                         _______ _______ _______ _____ _____    ______ ____
ROOT
ATOM      1  C   LIG    1        5.452   2.374   1.469  0.00  0.00    +0.300 C 
ENDROOT
BRANCH   1   3
ATOM      2  C   LIG    1        7.766   1.349   1.293  0.00  0.00    +0.310 C 
ATOM      3  N   LIG    1        6.906   2.531   1.387  0.00  0.00    -0.990 NA
BRANCH   3   4
ATOM      4  S   LIG    1        7.577   4.045   1.401  0.00  0.00    +2.690 S 
ATOM      5  O   LIG    1        6.544   4.946   1.028  0.00  0.00    -0.930 OA
ATOM      6  O   LIG    1        8.810   3.944   0.701  0.00  0.00    -0.930 OA
BRANCH   4   7
ATOM      7  C   LIG    1        7.984   4.420   3.074  0.00  0.00    -0.620 A 
ATOM      8  C   LIG    1        8.296   5.682   3.510  0.00  0.00    -0.220 A 
ATOM      9  S   LIG    1        8.634   5.626   5.235  0.00  0.00    +0.330 S 
ATOM     10  C   LIG    1        8.356   3.944   5.282  0.00  0.00    -0.070 A 
ATOM     11  C   LIG    1        8.027   3.477   4.070  0.00  0.00    +0.070 A 
BRANCH   8  12
ATOM     12  C   LIG    1        8.336   6.842   2.704  0.00  0.00    +0.510 C 
ATOM     13  O   LIG    1        8.528   7.928   3.212  0.00  0.00    -0.430 OA
ENDBRANCH   8  12
ENDBRANCH   4   7
ENDBRANCH   3   4
ENDBRANCH   1   3
BRANCH   1  14
ATOM     14  C   LIG    1        4.874   2.234   0.059  0.00  0.00    +0.310 C 
BRANCH  14  15
ATOM     15  N   LIG    1        3.420   2.077   0.141  0.00  0.00    -0.580 N 
ATOM     16  C   LIG    1        2.786   0.894   0.244  0.00  0.00    +0.580 C 
ATOM     17  C   LIG    1        1.330   1.143   0.302  0.00  0.00    -0.140 A 
ATOM     18  C   LIG    1        0.213   0.331   0.407  0.00  0.00    +0.100 A 
ATOM     19  C   LIG    1       -1.051   0.900   0.431  0.00  0.00    +0.040 A 
ATOM     20  C   LIG    1       -1.203   2.272   0.363  0.00  0.00    +0.050 A 
ATOM     21  C   LIG    1       -0.094   3.097   0.257  0.00  0.00    +0.100 A 
ATOM     22  C   LIG    1        1.175   2.542   0.226  0.00  0.00    -0.140 A 
ATOM     23  O   LIG    1        3.321  -0.195   0.283  0.00  0.00    -0.460 OA
ATOM     24  C   LIG    1        2.542   3.096   0.124  0.00  0.00    +0.570 C 
ATOM     25  O   LIG    1        2.825   4.274   0.038  0.00  0.00    -0.440 OA
ENDBRANCH  14  15
ENDBRANCH   1  14
TORSDOF 6
