REMARK  Name = ZINCnE000001Uvft.0
REMARK                            x       y       z     vdW  Elec       q    Type
REMARK                         _______ _______ _______ _____ _____    ______ ____
ROOT
ATOM      1  C   LIG    1       -0.018   1.503   0.010  0.00  0.00    +0.080 A 
ATOM      2  N   LIG    1       -1.084   2.231   0.019  0.00  0.00    -0.280 NA
ATOM      3  N   LIG    1       -0.691   3.578   0.028  0.00  0.00    -0.540 NA
ATOM      4  C   LIG    1        0.679   3.583   0.015  0.00  0.00    +0.440 A 
ATOM      5  N   LIG    1        1.454   4.635   0.013  0.00  0.00    -0.690 NA
ATOM      6  O   LIG    1        1.074   2.293   0.004  0.00  0.00    -0.300 OA
ENDROOT
BRANCH   5   7
ATOM      7  C   LIG    1        0.866   5.977   0.026  0.00  0.00    +0.170 C 
ATOM      8  C   LIG    1        1.314   6.744  -1.222  0.00  0.00    -0.010 C 
ATOM      9  C   LIG    1        0.762   8.171  -1.159  0.00  0.00    +0.190 C 
ATOM     10  O   LIG    1        1.213   8.805   0.040  0.00  0.00    -0.390 OA
ATOM     11  C   LIG    1        0.783   8.157   1.239  0.00  0.00    +0.190 C 
ATOM     12  C   LIG    1        1.337   6.731   1.274  0.00  0.00    -0.010 C 
ENDBRANCH   5   7
BRANCH   1  13
ATOM     13  C   LIG    1        0.002  -0.004   0.002  0.00  0.00    +0.210 C 
BRANCH  13  20
ATOM     14  C   LIG    1       -3.567  -0.957  -3.542  0.00  0.00    +0.000 A 
ATOM     15  C   LIG    1       -4.162  -1.296  -2.366  0.00  0.00    +0.010 A 
ATOM     16  C   LIG    1       -3.451  -1.157  -1.161  0.00  0.00    -0.050 A 
ATOM     17  C   LIG    1       -4.032  -1.496   0.072  0.00  0.00    +0.000 A 
ATOM     18  C   LIG    1       -3.314  -1.348   1.219  0.00  0.00    +0.010 A 
ATOM     19  C   LIG    1       -2.005  -0.870   1.188  0.00  0.00    +0.010 A 
ATOM     20  C   LIG    1       -1.412  -0.526   0.013  0.00  0.00    -0.040 A 
ATOM     21  C   LIG    1       -2.122  -0.664  -1.191  0.00  0.00    -0.030 A 
ATOM     22  C   LIG    1       -1.541  -0.325  -2.425  0.00  0.00    +0.040 A 
ATOM     23  C   LIG    1       -2.260  -0.474  -3.571  0.00  0.00    -0.010 A 
ENDBRANCH  13  20
ENDBRANCH   1  13
TORSDOF 3
