REMARK  Name = ZINCqH0000003c70.0
REMARK                            x       y       z     vdW  Elec       q    Type
REMARK                         _______ _______ _______ _____ _____    ______ ____
ROOT
ATOM      1  C   LIG    1        1.159   3.160  -0.008  0.00  0.00    -0.120 A 
ATOM      2  C   LIG    1        1.166   1.790  -0.189  0.00  0.00    +0.050 A 
ATOM      3  C   LIG    1       -0.021   1.083  -0.177  0.00  0.00    +0.020 A 
ATOM      4  C   LIG    1       -1.223   1.752   0.012  0.00  0.00    +0.150 A 
ATOM      5  C   LIG    1       -1.226   3.129   0.199  0.00  0.00    -0.020 A 
ATOM      6  C   LIG    1       -0.036   3.829   0.186  0.00  0.00    +0.050 A 
ENDROOT
BRANCH   4   7
ATOM      7  N   LIG    1       -2.427   1.041   0.019  0.00  0.00    -0.670 N 
ATOM      8  H   LIG    1       -3.235   1.452  -0.327  0.00  0.00    +0.410 HD
ATOM      9  C   LIG    1       -2.465  -0.215   0.505  0.00  0.00    +0.560 C 
ATOM     10  O   LIG    1       -1.477  -0.696   1.025  0.00  0.00    -0.500 OA
BRANCH   9  11
ATOM     11  C   LIG    1       -3.708  -1.009   0.406  0.00  0.00    -0.140 A 
ATOM     12  C   LIG    1       -4.846  -0.458  -0.185  0.00  0.00    +0.090 A 
ATOM     13  C   LIG    1       -6.001  -1.206  -0.280  0.00  0.00    +0.030 A 
ATOM     14  C   LIG    1       -6.037  -2.496   0.220  0.00  0.00    +0.110 A 
ATOM     15  C   LIG    1       -4.914  -3.046   0.813  0.00  0.00    -0.190 A 
ATOM     16  C   LIG    1       -3.751  -2.311   0.908  0.00  0.00    +0.140 A 
BRANCH  15  17
ATOM     17  C   LIG    1       -4.962  -4.451   1.355  0.00  0.00    +0.510 C 
ATOM     18  F   LIG    1       -3.691  -5.029   1.266  0.00  0.00    -0.170 F 
ATOM     19  F   LIG    1       -5.872  -5.208   0.609  0.00  0.00    -0.170 F 
ATOM     20  F   LIG    1       -5.367  -4.421   2.694  0.00  0.00    -0.170 F 
ENDBRANCH  15  17
ENDBRANCH   9  11
ENDBRANCH   4   7
BRANCH   1  21
ATOM     21  C   LIG    1        2.456   3.928  -0.021  0.00  0.00    +0.340 C 
BRANCH  21  25
ATOM     22  N   LIG    1        4.150   5.457  -2.904  0.00  0.00    -0.750 N 
ATOM     23  H   LIG    1        3.543   5.233  -3.626  0.00  0.00    +0.400 HD
ATOM     24  C   LIG    1        3.874   5.063  -1.645  0.00  0.00    +0.700 C 
ATOM     25  N   LIG    1        2.755   4.356  -1.390  0.00  0.00    -0.740 N 
ATOM     26  H   LIG    1        2.148   4.132  -2.112  0.00  0.00    +0.400 HD
ATOM     27  O   LIG    1        4.635   5.345  -0.739  0.00  0.00    -0.590 OA
BRANCH  22  29
ATOM     28  C   LIG    1        5.438   6.544  -4.676  0.00  0.00    +0.030 C 
ATOM     29  C   LIG    1        5.366   6.226  -3.181  0.00  0.00    +0.270 C 
ENDBRANCH  22  29
ENDBRANCH  21  25
ENDBRANCH   1  21
TORSDOF 6
