REMARK  Name = ZINCnE000005uwby.0
REMARK                            x       y       z     vdW  Elec       q    Type
REMARK                         _______ _______ _______ _____ _____    ______ ____
ROOT
ATOM      1  C   LIG    1       -0.716   3.381   0.026  0.00  0.00    +0.070 A 
ATOM      2  N   LIG    1        0.573   3.445   0.015  0.00  0.00    -0.280 NA
ATOM      3  N   LIG    1        1.073   2.134   0.003  0.00  0.00    -0.540 NA
ATOM      4  C   LIG    1       -0.016   1.303   0.009  0.00  0.00    +0.440 A 
ATOM      5  N   LIG    1        0.002  -0.004   0.002  0.00  0.00    -0.690 NA
ATOM      6  O   LIG    1       -1.109   2.092   0.018  0.00  0.00    -0.300 OA
ENDROOT
BRANCH   1   7
ATOM      7  C   LIG    1       -1.642   4.570   0.041  0.00  0.00    +0.200 C 
BRANCH   7  14
ATOM      8  C   LIG    1        0.559   7.496  -3.537  0.00  0.00    +0.000 A 
ATOM      9  C   LIG    1        0.851   8.122  -2.364  0.00  0.00    +0.010 A 
ATOM     10  C   LIG    1        0.391   7.578  -1.153  0.00  0.00    -0.050 A 
ATOM     11  C   LIG    1        0.673   8.196   0.078  0.00  0.00    +0.000 A 
ATOM     12  C   LIG    1        0.211   7.640   1.231  0.00  0.00    +0.010 A 
ATOM     13  C   LIG    1       -0.542   6.468   1.212  0.00  0.00    +0.010 A 
ATOM     14  C   LIG    1       -0.830   5.840   0.040  0.00  0.00    -0.030 A 
ATOM     15  C   LIG    1       -0.371   6.383  -1.172  0.00  0.00    -0.030 A 
ATOM     16  C   LIG    1       -0.653   5.766  -2.403  0.00  0.00    +0.040 A 
ATOM     17  C   LIG    1       -0.190   6.321  -3.556  0.00  0.00    -0.010 A 
ENDBRANCH   7  14
ENDBRANCH   1   7
BRANCH   5  18
ATOM     18  C   LIG    1        1.281  -0.719  -0.013  0.00  0.00    +0.200 C 
BRANCH  18  19
ATOM     19  C   LIG    1        1.440  -1.507   1.288  0.00  0.00    +0.150 C 
ATOM     20  C   LIG    1        2.803  -2.244   1.307  0.00  0.00    +0.010 C 
ATOM     21  C   LIG    1        3.035  -2.393   2.837  0.00  0.00    -0.010 C 
ATOM     22  C   LIG    1        2.401  -1.100   3.393  0.00  0.00    +0.170 C 
ATOM     23  O   LIG    1        1.479  -0.612   2.411  0.00  0.00    -0.360 OA
ENDBRANCH  18  19
ENDBRANCH   5  18
TORSDOF 4
