REMARK  Name = ZINCpk000004O9DK.0
REMARK                            x       y       z     vdW  Elec       q    Type
REMARK                         _______ _______ _______ _____ _____    ______ ____
ROOT
ATOM      1  C   LIG    1        3.510   0.938   0.314  0.00  0.00    +0.520 C 
ATOM      2  N   LIG    1        4.449  -0.019   0.174  0.00  0.00    -0.600 N 
ATOM      3  C   LIG    1        4.216  -1.085  -0.775  0.00  0.00    +0.270 C 
ATOM      4  C   LIG    1        4.764  -0.672  -2.164  0.00  0.00    +0.010 C 
ATOM      5  C   LIG    1        6.234  -0.669  -2.152  0.00  0.00    +0.030 C 
ATOM      6  C   LIG    1        6.854   0.337  -1.188  0.00  0.00    +0.020 C 
ATOM      7  C   LIG    1        6.938  -0.275   0.188  0.00  0.00    +0.260 C 
ATOM      8  C   LIG    1        5.675   0.067   0.992  0.00  0.00    +0.260 C 
ATOM      9  O   LIG    1        3.721   1.894   1.030  0.00  0.00    -0.510 OA
ENDROOT
BRANCH   1  14
ATOM     10  C   LIG    1       -1.364  -0.468   0.252  0.00  0.00    +0.180 C 
ATOM     11  C   LIG    1       -0.072   0.294   0.104  0.00  0.00    +0.090 C 
ATOM     12  N   LIG    1        0.035   1.547  -0.113  0.00  0.00    -0.280 NA
ATOM     13  O   LIG    1        1.376   1.985  -0.198  0.00  0.00    -0.170 OA
ATOM     14  C   LIG    1        2.199   0.821  -0.419  0.00  0.00    +0.130 C 
ATOM     15  C   LIG    1        1.321  -0.299   0.189  0.00  0.00    +0.080 C 
ENDBRANCH   1  14
BRANCH   7  16
ATOM     16  N   LIG    1        8.114   0.253   0.884  0.00  0.00    -0.690 N 
ATOM     17  H   LIG    1        8.477   1.117   0.636  0.00  0.00    +0.420 HD
BRANCH  16  18
ATOM     18  C   LIG    1        8.707  -0.482   1.896  0.00  0.00    +0.570 A 
ATOM     19  N   LIG    1        8.197  -1.661   2.222  0.00  0.00    -0.560 NA
ATOM     20  C   LIG    1        8.739  -2.392   3.185  0.00  0.00    +0.390 A 
ATOM     21  C   LIG    1        9.847  -1.905   3.848  0.00  0.00    -0.310 A 
ATOM     22  C   LIG    1       10.711  -2.435   4.965  0.00  0.00    +0.290 C 
ATOM     23  O   LIG    1       11.930  -1.670   4.920  0.00  0.00    -0.350 OA
ATOM     24  C   LIG    1       11.551  -0.396   4.366  0.00  0.00    +0.310 C 
ATOM     25  C   LIG    1       10.357  -0.665   3.482  0.00  0.00    +0.190 A 
ATOM     26  N   LIG    1        9.775   0.010   2.511  0.00  0.00    -0.550 NA
ENDBRANCH  16  18
ENDBRANCH   7  16
TORSDOF 3
