REMARK  Name = ZINCrD00000760Sr.0
REMARK                            x       y       z     vdW  Elec       q    Type
REMARK                         _______ _______ _______ _____ _____    ______ ____
ROOT
ATOM      1  O   LIG    1       -2.361  -6.820  -5.683  0.00  0.00    -0.480 OA
ATOM      2  C   LIG    1       -2.469  -6.019  -4.774  0.00  0.00    +0.570 A 
ATOM      3  C   LIG    1       -1.750  -6.228  -3.504  0.00  0.00    -0.160 A 
ATOM      4  C   LIG    1       -0.933  -7.339  -3.309  0.00  0.00    +0.130 A 
ATOM      5  C   LIG    1       -0.277  -7.501  -2.107  0.00  0.00    +0.020 A 
ATOM      6  C   LIG    1       -0.425  -6.564  -1.096  0.00  0.00    +0.100 A 
ATOM      7  C   LIG    1       -1.232  -5.458  -1.277  0.00  0.00    +0.020 A 
ATOM      8  C   LIG    1       -1.900  -5.279  -2.478  0.00  0.00    +0.170 A 
ATOM      9  N   LIG    1       -2.718  -4.177  -2.691  0.00  0.00    -0.420 N 
ATOM     10  C   LIG    1       -3.064  -3.104  -1.914  0.00  0.00    +0.170 A 
ATOM     11  N   LIG    1       -3.871  -2.359  -2.629  0.00  0.00    -0.250 NA
ATOM     12  N   LIG    1       -4.056  -2.890  -3.784  0.00  0.00    -0.270 NA
ATOM     13  C   LIG    1       -3.378  -4.008  -3.881  0.00  0.00    +0.420 A 
ATOM     14  N   LIG    1       -3.253  -4.929  -4.909  0.00  0.00    -0.460 N 
ENDROOT
BRANCH  14  15
ATOM     15  C   LIG    1       -3.938  -4.718  -6.111  0.00  0.00    +0.120 A 
ATOM     16  C   LIG    1       -3.341  -3.995  -7.136  0.00  0.00    +0.030 A 
ATOM     17  C   LIG    1       -4.017  -3.793  -8.322  0.00  0.00    +0.020 A 
ATOM     18  C   LIG    1       -5.293  -4.301  -8.488  0.00  0.00    +0.030 A 
ATOM     19  C   LIG    1       -5.893  -5.016  -7.468  0.00  0.00    +0.020 A 
ATOM     20  C   LIG    1       -5.220  -5.226  -6.280  0.00  0.00    +0.040 A 
ENDBRANCH  14  15
BRANCH  10  21
ATOM     21  S   LIG    1       -2.520  -2.783  -0.269  0.00  0.00    +0.030 S 
BRANCH  21  22
ATOM     22  C   LIG    1       -3.346  -1.219   0.136  0.00  0.00    +0.110 C 
BRANCH  22  23
ATOM     23  C   LIG    1       -2.970  -0.796   1.557  0.00  0.00    +0.170 C 
ATOM     24  C   LIG    1       -3.763   0.463   1.956  0.00  0.00    +0.020 C 
ATOM     25  C   LIG    1       -2.671   1.510   2.288  0.00  0.00    +0.000 C 
ATOM     26  C   LIG    1       -1.438   0.614   2.571  0.00  0.00    +0.200 C 
ATOM     27  O   LIG    1       -1.574  -0.458   1.613  0.00  0.00    -0.370 OA
ENDBRANCH  22  23
ENDBRANCH  21  22
ENDBRANCH  10  21
TORSDOF 4
