REMARK  Name = ZINCpe00000y9SDV.0
REMARK                            x       y       z     vdW  Elec       q    Type
REMARK                         _______ _______ _______ _____ _____    ______ ____
ROOT
ATOM      1  C   LIG    1       -1.528   4.684   0.487  0.00  0.00    +0.520 C 
ATOM      2  N   LIG    1       -0.280   4.190   0.370  0.00  0.00    -0.600 N 
ATOM      3  C   LIG    1        0.440   4.344  -0.863  0.00  0.00    +0.280 C 
ATOM      4  C   LIG    1        0.189   3.175  -1.847  0.00  0.00    +0.280 C 
ATOM      5  N   LIG    1        0.137   1.894  -1.091  0.00  0.00    -0.590 N 
ATOM      6  C   LIG    1        1.020   1.619   0.005  0.00  0.00    +0.270 C 
ATOM      7  C   LIG    1        0.308   2.032   1.305  0.00  0.00    +0.140 C 
ATOM      8  C   LIG    1       -0.770   0.963  -1.447  0.00  0.00    +0.610 C 
ATOM      9  O   LIG    1       -1.573   1.202  -2.330  0.00  0.00    -0.520 OA
ATOM     10  C   LIG    1        0.349   3.487   1.513  0.00  0.00    +0.310 C 
ATOM     11  O   LIG    1       -2.136   4.554   1.528  0.00  0.00    -0.530 OA
ENDROOT
BRANCH   8  12
ATOM     12  C   LIG    1       -0.790  -0.337  -0.771  0.00  0.00    -0.100 A 
ATOM     13  C   LIG    1       -1.564  -1.393  -1.101  0.00  0.00    +0.310 A 
ATOM     14  N   LIG    1       -1.274  -2.408  -0.224  0.00  0.00    -0.640 N 
ATOM     15  H   LIG    1       -1.676  -3.291  -0.219  0.00  0.00    +0.450 HD
ATOM     16  C   LIG    1       -0.337  -1.957   0.633  0.00  0.00    +0.610 A 
ATOM     17  O   LIG    1        0.154  -2.589   1.548  0.00  0.00    -0.480 OA
ATOM     18  O   LIG    1       -0.037  -0.691   0.303  0.00  0.00    -0.230 OA
ENDBRANCH   8  12
BRANCH   7  19
ATOM     19  O   LIG    1        0.944   1.385   2.409  0.00  0.00    -0.560 OA
ATOM     20  H   LIG    1        0.926   0.420   2.363  0.00  0.00    +0.390 HD
ENDBRANCH   7  19
BRANCH   1  21
ATOM     21  C   LIG    1       -2.167   5.399  -0.675  0.00  0.00    +0.050 C 
BRANCH  21  22
ATOM     22  C   LIG    1       -3.573   5.858  -0.280  0.00  0.00    +0.040 C 
BRANCH  22  23
ATOM     23  C   LIG    1       -4.261   6.493  -1.490  0.00  0.00    -0.020 C 
BRANCH  23  25
ATOM     24  C   LIG    1       -5.054   6.088  -3.825  0.00  0.00    +0.010 C 
ATOM     25  C   LIG    1       -4.481   5.430  -2.568  0.00  0.00    +0.000 C 
ENDBRANCH  23  25
BRANCH  23  26
ATOM     26  C   LIG    1       -5.610   7.074  -1.063  0.00  0.00    +0.010 C 
ATOM     27  C   LIG    1       -5.381   8.235  -0.093  0.00  0.00    +0.000 C 
ENDBRANCH  23  26
ENDBRANCH  22  23
ENDBRANCH  21  22
ENDBRANCH   1  21
TORSDOF 7
