REMARK  Name = ZINCpe000000U2Ni.0
REMARK                            x       y       z     vdW  Elec       q    Type
REMARK                         _______ _______ _______ _____ _____    ______ ____
ROOT
ATOM      1  C   LIG    1        2.434   0.935  -0.016  0.00  0.00    -0.200 A 
ATOM      2  C   LIG    1        2.455  -0.462  -0.018  0.00  0.00    +0.090 A 
ATOM      3  C   LIG    1        3.657  -1.131  -0.037  0.00  0.00    -0.080 A 
ATOM      4  C   LIG    1        4.853  -0.417  -0.045  0.00  0.00    +0.250 A 
ATOM      5  C   LIG    1        4.835   0.975  -0.038  0.00  0.00    -0.070 A 
ATOM      6  C   LIG    1        3.636   1.649  -0.024  0.00  0.00    +0.130 A 
ENDROOT
BRANCH   1   9
ATOM      7  N   LIG    1       -0.011   0.966   0.007  0.00  0.00    -0.720 N 
ATOM      8  H   LIG    1        0.002  -0.004   0.002  0.00  0.00    +0.400 HD
ATOM      9  C   LIG    1        1.147   1.655   0.000  0.00  0.00    +0.570 C 
ATOM     10  O   LIG    1        1.130   2.871   0.007  0.00  0.00    -0.550 OA
BRANCH   7  11
ATOM     11  CA  LIG    1       -1.290   1.681   0.017  0.00  0.00    +0.250 C 
BRANCH  11  13
ATOM     12  C   LIG    1       -2.062   0.544  -2.069  0.00  0.00    +0.020 C 
ATOM     13  C   LIG    1       -2.376   0.792  -0.592  0.00  0.00    +0.030 C 
ENDBRANCH  11  13
BRANCH  11  14
ATOM     14  C   LIG    1       -1.667   2.032   1.458  0.00  0.00    +0.160 C 
BRANCH  14  15
ATOM     15  O   LIG    1       -1.900   0.830   2.196  0.00  0.00    -0.570 OA
ATOM     16  H   LIG    1       -2.144   0.977   3.120  0.00  0.00    +0.380 HD
ENDBRANCH  14  15
ENDBRANCH  11  14
ENDBRANCH   7  11
ENDBRANCH   1   9
BRANCH   4  17
ATOM     17  N   LIG    1        6.066  -1.096  -0.059  0.00  0.00    -0.730 N 
ATOM     18  H   LIG    1        6.899  -0.600  -0.064  0.00  0.00    +0.410 HD
BRANCH  17  19
ATOM     19  C   LIG    1        6.086  -2.561  -0.066  0.00  0.00    +0.290 C 
BRANCH  19  20
ATOM     20  C   LIG    1        7.513  -3.044  -0.081  0.00  0.00    +0.510 C 
ATOM     21  N   LIG    1        7.778  -4.365  -0.089  0.00  0.00    -0.610 N 
ATOM     22  C   LIG    1        6.689  -5.356  -0.084  0.00  0.00    +0.260 C 
ATOM     23  C   LIG    1        6.943  -6.359  -1.215  0.00  0.00    +0.220 C 
ATOM     24  O   LIG    1        8.271  -6.875  -1.096  0.00  0.00    -0.370 OA
ATOM     25  C   LIG    1        9.297  -5.889  -1.234  0.00  0.00    +0.130 C 
ATOM     26  C   LIG    1       10.668  -6.562  -1.152  0.00  0.00    +0.070 C 
ATOM     27  C   LIG    1        9.163  -4.861  -0.110  0.00  0.00    +0.260 C 
ATOM     28  O   LIG    1        8.424  -2.243  -0.085  0.00  0.00    -0.530 OA
ENDBRANCH  19  20
ENDBRANCH  17  19
ENDBRANCH   4  17
TORSDOF 8
