REMARK  Name = ZINCbw0000000Hfs.0
REMARK                            x       y       z     vdW  Elec       q    Type
REMARK                         _______ _______ _______ _____ _____    ______ ____
ROOT
ATOM      1  C   LIG    1       -1.970   2.436   3.449  0.00  0.00    +0.360 A 
ATOM      2  N   LIG    1       -0.668   2.239   3.488  0.00  0.00    -0.500 NA
ATOM      3  C   LIG    1       -0.013   1.812   2.418  0.00  0.00    +0.230 A 
ATOM      4  C   LIG    1       -0.718   1.572   1.248  0.00  0.00    -0.170 A 
ATOM      5  C   LIG    1       -2.087   1.796   1.245  0.00  0.00    +0.230 A 
ATOM      6 CL   LIG    1       -3.021   1.519  -0.192  0.00  0.00    +0.010 Cl
ATOM      7  C   LIG    1       -0.013   1.086   0.008  0.00  0.00    +0.150 C 
ATOM      8 CL   LIG    1        1.702   1.555   2.481  0.00  0.00    +0.010 Cl
ATOM      9  N   LIG    1       -2.673   2.218   2.356  0.00  0.00    -0.500 NA
ENDROOT
BRANCH   1  11
ATOM     10  C   LIG    1       -2.696   4.452   4.697  0.00  0.00    +0.040 C 
ATOM     11  C   LIG    1       -2.676   2.922   4.689  0.00  0.00    +0.140 C 
ENDBRANCH   1  11
TORSDOF 1
