REMARK  Name = ZINCpe000000YvBb.0
REMARK                            x       y       z     vdW  Elec       q    Type
REMARK                         _______ _______ _______ _____ _____    ______ ____
ROOT
ATOM      1  C   LIG    1       -5.451   4.290   3.210  0.00  0.00    +0.560 C 
ATOM      2  N   LIG    1       -4.319   4.173   3.932  0.00  0.00    -0.600 N 
ATOM      3  C   LIG    1       -4.081   5.037   5.096  0.00  0.00    +0.290 C 
ATOM      4  C   LIG    1       -3.765   4.156   6.309  0.00  0.00    +0.030 C 
ATOM      5  C   LIG    1       -2.599   3.225   5.967  0.00  0.00    +0.060 C 
ATOM      6  C   LIG    1       -2.993   2.317   4.800  0.00  0.00    -0.470 C 
ATOM      7  C   LIG    1       -3.301   3.178   3.571  0.00  0.00    +0.310 C 
ATOM      8  O   LIG    1       -6.325   5.055   3.570  0.00  0.00    -0.520 OA
ENDROOT
BRANCH   1  12
ATOM      9  C   LIG    1       -5.966   1.987  -0.328  0.00  0.00    +0.000 A 
ATOM     10  C   LIG    1       -7.052   2.217   0.520  0.00  0.00    +0.070 A 
ATOM     11  C   LIG    1       -6.885   2.963   1.665  0.00  0.00    +0.090 A 
ATOM     12  C   LIG    1       -5.630   3.489   1.980  0.00  0.00    -0.110 A 
ATOM     13  C   LIG    1       -4.546   3.263   1.130  0.00  0.00    +0.040 A 
ATOM     14  C   LIG    1       -4.711   2.513  -0.013  0.00  0.00    +0.060 A 
BRANCH   9  16
ATOM     15  N   LIG    1       -6.276   0.597  -2.464  0.00  0.00    -0.400 NA
ATOM     16  C   LIG    1       -6.139   1.212  -1.519  0.00  0.00    +0.240 C 
ENDBRANCH   9  16
ENDBRANCH   1  12
BRANCH   6  17
ATOM     17  S   LIG    1       -1.625   1.188   4.422  0.00  0.00    +2.610 S 
ATOM     18  O   LIG    1       -0.482   1.915   3.993  0.00  0.00    -0.940 OA
ATOM     19  O   LIG    1       -1.520   0.180   5.418  0.00  0.00    -0.940 OA
BRANCH  17  20
ATOM     20  N   LIG    1       -2.123   0.374   3.068  0.00  0.00    -1.000 NA
ATOM     21  C   LIG    1       -2.879  -0.883   3.177  0.00  0.00    +0.260 C 
ATOM     22  C   LIG    1       -2.206  -1.931   2.284  0.00  0.00    +0.220 C 
ATOM     23  O   LIG    1       -2.046  -1.397   0.968  0.00  0.00    -0.370 OA
ATOM     24  C   LIG    1       -1.198  -0.248   0.901  0.00  0.00    +0.220 C 
ATOM     25  C   LIG    1       -1.821   0.887   1.722  0.00  0.00    +0.260 C 
ENDBRANCH  17  20
ENDBRANCH   6  17
TORSDOF 4
