REMARK  Name = ZINCrD000000Arec.0
REMARK                            x       y       z     vdW  Elec       q    Type
REMARK                         _______ _______ _______ _____ _____    ______ ____
ROOT
ATOM      1  O   LIG    1       -0.016   1.356   0.009  0.00  0.00    -0.290 OA
ENDROOT
BRANCH   1   2
ATOM      2  C   LIG    1        0.002  -0.004   0.002  0.00  0.00    +0.110 A 
ATOM      3  C   LIG    1       -1.187  -0.712   0.010  0.00  0.00    +0.050 A 
ATOM      4  C   LIG    1       -1.161  -2.103   0.002  0.00  0.00    -0.080 A 
ATOM      5  C   LIG    1        0.062  -2.787  -0.013  0.00  0.00    +0.050 A 
ATOM      6  O   LIG    1       -0.189  -4.115  -0.018  0.00  0.00    -0.200 OA
ATOM      7  C   LIG    1       -1.516  -4.369  -0.006  0.00  0.00    +0.090 A 
ATOM      8  C   LIG    1       -2.242  -5.554  -0.004  0.00  0.00    +0.020 A 
ATOM      9  C   LIG    1       -3.620  -5.521   0.009  0.00  0.00    +0.060 A 
ATOM     10  C   LIG    1       -4.296  -4.311   0.021  0.00  0.00    -0.010 A 
ATOM     11  C   LIG    1       -3.594  -3.125   0.021  0.00  0.00    +0.070 A 
ATOM     12  C   LIG    1        1.247  -2.061  -0.021  0.00  0.00    +0.070 A 
ATOM     13  C   LIG    1       -2.203  -3.147   0.007  0.00  0.00    -0.130 A 
ATOM     14  C   LIG    1        1.215  -0.682  -0.019  0.00  0.00    -0.030 A 
ENDBRANCH   1   2
BRANCH   1  15
ATOM     15  C   LIG    1        1.248   2.022   0.001  0.00  0.00    +0.240 C 
BRANCH  15  17
ATOM     16  O   LIG    1       -0.097   3.961   0.024  0.00  0.00    -0.510 OA
ATOM     17  C   LIG    1        1.030   3.513   0.011  0.00  0.00    +0.520 C 
ATOM     18  N   LIG    1        2.088   4.348   0.005  0.00  0.00    -0.610 N 
ATOM     19  C   LIG    1        3.459   3.820  -0.004  0.00  0.00    +0.290 C 
ATOM     20  C   LIG    1        4.238   4.436   1.155  0.00  0.00    +0.040 C 
ATOM     21  C   LIG    1        4.147   5.961   1.075  0.00  0.00    +0.260 C 
ATOM     22  O   LIG    1        4.905   6.546   2.141  0.00  0.00    -0.380 OA
ATOM     23  C   LIG    1        5.918   7.377   1.540  0.00  0.00    +0.200 C 
ATOM     24  C   LIG    1        5.348   7.658   0.127  0.00  0.00    +0.200 C 
ATOM     25  C   LIG    1        2.686   6.401   1.181  0.00  0.00    +0.030 C 
ATOM     26  O   LIG    1        4.689   6.406  -0.179  0.00  0.00    -0.370 OA
ATOM     27  C   LIG    1        1.891   5.804   0.015  0.00  0.00    +0.300 C 
ENDBRANCH  15  17
ENDBRANCH   1  15
TORSDOF 3
