REMARK  Name = ZINCpk000000mZvj.0
REMARK                            x       y       z     vdW  Elec       q    Type
REMARK                         _______ _______ _______ _____ _____    ______ ____
ROOT
ATOM      1  S   LIG    1       -6.732   4.006   4.598  0.00  0.00    +2.690 S 
ATOM      2  O   LIG    1       -6.181   3.927   5.905  0.00  0.00    -0.940 OA
ATOM      3  O   LIG    1       -8.129   3.961   4.339  0.00  0.00    -0.940 OA
ENDROOT
BRANCH   1   4
ATOM      4  C   LIG    1       -6.145   5.513   3.900  0.00  0.00    -0.700 A 
ATOM      5  C   LIG    1       -4.985   6.091   4.380  0.00  0.00    +0.190 A 
ATOM      6  C   LIG    1       -4.522   7.272   3.830  0.00  0.00    +0.000 A 
ATOM      7  C   LIG    1       -5.223   7.879   2.806  0.00  0.00    +0.190 A 
ATOM      8  C   LIG    1       -6.386   7.303   2.329  0.00  0.00    -0.700 A 
ATOM      9  C   LIG    1       -6.847   6.121   2.876  0.00  0.00    +0.240 A 
BRANCH   8  10
ATOM     10  S   LIG    1       -7.281   8.077   1.023  0.00  0.00    +2.700 S 
ATOM     11  O   LIG    1       -8.043   7.054   0.397  0.00  0.00    -0.950 OA
ATOM     12  O   LIG    1       -6.348   8.889   0.323  0.00  0.00    -0.960 OA
BRANCH  10  13
ATOM     13  N   LIG    1       -8.370   9.111   1.721  0.00  0.00    -1.250 NA
ATOM     14  H   LIG    1       -8.736   8.912   2.597  0.00  0.00    +0.420 HD
ATOM     15  H   LIG    1       -8.643   9.916   1.253  0.00  0.00    +0.420 HD
ENDBRANCH  10  13
ENDBRANCH   8  10
ENDBRANCH   1   4
BRANCH   1  16
ATOM     16  N   LIG    1       -6.056   2.768   3.731  0.00  0.00    -1.050 N 
ATOM     17  H   LIG    1       -6.624   2.138   3.260  0.00  0.00    +0.430 HD
BRANCH  16  22
ATOM     18  C   LIG    1       -2.678   2.048   2.463  0.00  0.00    +0.170 A 
ATOM     19  C   LIG    1       -1.910   2.363   3.576  0.00  0.00    +0.010 A 
ATOM     20  C   LIG    1       -2.519   2.809   4.734  0.00  0.00    +0.070 A 
ATOM     21  C   LIG    1       -3.893   2.944   4.787  0.00  0.00    -0.030 A 
ATOM     22  C   LIG    1       -4.667   2.631   3.676  0.00  0.00    +0.170 A 
ATOM     23  C   LIG    1       -4.058   2.187   2.511  0.00  0.00    -0.130 A 
ATOM     24  C   LIG    1       -4.893   1.852   1.302  0.00  0.00    +0.100 C 
BRANCH  18  27
ATOM     25  C   LIG    1       -0.073   1.333  -0.158  0.00  0.00    +0.110 C 
ATOM     26  C   LIG    1       -0.777   1.920   1.038  0.00  0.00    +0.510 C 
ATOM     27  N   LIG    1       -2.060   1.596   1.291  0.00  0.00    -0.670 N 
ATOM     28  H   LIG    1       -2.556   1.050   0.661  0.00  0.00    +0.410 HD
ATOM     29  O   LIG    1       -0.188   2.684   1.773  0.00  0.00    -0.520 OA
ENDBRANCH  18  27
ENDBRANCH  16  22
ENDBRANCH   1  16
TORSDOF 6
