REMARK  Name = ZINCrD000000BR4w.0
REMARK                            x       y       z     vdW  Elec       q    Type
REMARK                         _______ _______ _______ _____ _____    ______ ____
ROOT
ATOM      1  O   LIG    1       -1.113  -2.337  -2.913  0.00  0.00    -0.580 OA
ATOM      2  C   LIG    1       -0.244  -2.785  -2.191  0.00  0.00    +0.710 C 
ATOM      3  N   LIG    1        0.448  -1.962  -1.378  0.00  0.00    -0.630 N 
ATOM      4  C   LIG    1        1.424  -2.494  -0.414  0.00  0.00    +0.250 C 
ATOM      5  C   LIG    1        1.120  -1.893   0.963  0.00  0.00    +0.220 C 
ATOM      6  O   LIG    1        1.050  -0.469   0.850  0.00  0.00    -0.370 OA
ATOM      7  C   LIG    1        0.003  -0.001  -0.003  0.00  0.00    +0.190 C 
ATOM      8  C   LIG    1        0.249  -0.505  -1.429  0.00  0.00    +0.300 C 
ATOM      9  N   LIG    1        0.028  -4.105  -2.203  0.00  0.00    -0.740 N 
ATOM     10  H   LIG    1        0.670  -4.474  -1.576  0.00  0.00    +0.390 HD
ENDROOT
BRANCH   9  11
ATOM     11  C   LIG    1       -0.646  -4.983  -3.163  0.00  0.00    +0.250 C 
ATOM     12  C   LIG    1        0.118  -4.974  -4.490  0.00  0.00    -0.020 C 
ATOM     13  C   LIG    1       -0.549  -5.953  -5.460  0.00  0.00    +0.220 C 
ATOM     14  O   LIG    1       -0.574  -7.257  -4.877  0.00  0.00    -0.360 OA
ATOM     15  C   LIG    1       -1.313  -7.337  -3.656  0.00  0.00    +0.130 C 
ATOM     16  C   LIG    1       -2.759  -6.907  -3.905  0.00  0.00    -0.010 C 
ATOM     17  C   LIG    1       -3.396  -7.833  -4.944  0.00  0.00    +0.010 C 
ATOM     18  C   LIG    1       -3.374  -9.272  -4.425  0.00  0.00    +0.000 C 
ATOM     19  C   LIG    1       -1.927  -9.703  -4.178  0.00  0.00    +0.010 C 
ATOM     20  C   LIG    1       -1.290  -8.777  -3.139  0.00  0.00    +0.050 C 
ATOM     21  C   LIG    1       -0.678  -6.413  -2.614  0.00  0.00    +0.010 C 
ENDBRANCH   9  11
BRANCH   7  22
ATOM     22  C   LIG    1       -0.014   1.506   0.003  0.00  0.00    -0.070 A 
ATOM     23  C   LIG    1        1.175   2.211  -0.003  0.00  0.00    +0.030 A 
ATOM     24  C   LIG    1        1.163   3.593   0.001  0.00  0.00    +0.030 A 
ATOM     25  C   LIG    1       -0.038   4.274   0.011  0.00  0.00    -0.010 A 
ATOM     26  C   LIG    1       -1.234   3.570   0.017  0.00  0.00    +0.110 A 
ATOM     27  C   LIG    1       -1.219   2.183   0.008  0.00  0.00    +0.000 A 
BRANCH  26  28
ATOM     28  O   LIG    1       -2.417   4.238   0.026  0.00  0.00    -0.500 OA
ATOM     29  H   LIG    1       -2.766   4.433  -0.854  0.00  0.00    +0.390 HD
ENDBRANCH  26  28
ENDBRANCH   7  22
TORSDOF 3
