REMARK  Name = ZINCpe00000MJKpS.0
REMARK                            x       y       z     vdW  Elec       q    Type
REMARK                         _______ _______ _______ _____ _____    ______ ____
ROOT
ATOM      1  C   LIG    1        7.218   1.171  -0.062  0.00  0.00    -0.010 C 
ATOM      2  C   LIG    1        7.213   0.386  -1.379  0.00  0.00    +0.050 C 
ATOM      3  C   LIG    1        8.281  -0.707  -1.296  0.00  0.00    +0.080 C 
ATOM      4  C   LIG    1        9.576  -0.122  -0.809  0.00  0.00    +0.520 C 
ATOM      5  N   LIG    1        9.666   1.057  -0.192  0.00  0.00    -0.590 N 
ATOM      6  C   LIG    1       10.985   1.488   0.276  0.00  0.00    +0.290 C 
ATOM      7  O   LIG    1       10.595  -0.756  -0.986  0.00  0.00    -0.540 OA
ATOM      8  C   LIG    1        8.534   1.943   0.046  0.00  0.00    +0.340 C 
ENDROOT
BRANCH   8   9
ATOM      9  C   LIG    1        8.649   2.539   1.425  0.00  0.00    +0.180 A 
ATOM     10  N   LIG    1        8.936   1.883   2.516  0.00  0.00    -0.470 NA
ATOM     11  C   LIG    1        8.953   2.734   3.553  0.00  0.00    +0.140 A 
ATOM     12  C   LIG    1        8.666   3.964   3.087  0.00  0.00    +0.140 A 
ATOM     13  N   LIG    1        8.479   3.842   1.736  0.00  0.00    -0.450 N 
ATOM     14  C   LIG    1        8.151   4.923   0.803  0.00  0.00    +0.320 C 
ENDBRANCH   8   9
BRANCH   1  15
ATOM     15  C   LIG    1        6.044   2.153  -0.045  0.00  0.00    +0.280 C 
BRANCH  15  17
ATOM     16  C   LIG    1        3.609   2.067  -0.022  0.00  0.00    +0.580 C 
ATOM     17  N   LIG    1        4.784   1.406  -0.037  0.00  0.00    -0.710 N 
ATOM     18  H   LIG    1        4.794   0.436  -0.042  0.00  0.00    +0.410 HD
ATOM     19  O   LIG    1        3.596   3.282  -0.015  0.00  0.00    -0.530 OA
BRANCH  16  24
ATOM     20  C   LIG    1       -1.294  -0.773   0.010  0.00  0.00    +0.160 C 
ATOM     21  C   LIG    1        0.002  -0.004   0.002  0.00  0.00    +0.110 A 
ATOM     22  C   LIG    1        1.210  -0.685  -0.013  0.00  0.00    +0.230 A 
ATOM     23  N   LIG    1        2.346  -0.017  -0.020  0.00  0.00    -0.410 NA
ATOM     24  C   LIG    1        2.334   1.313  -0.013  0.00  0.00    +0.010 A 
ATOM     25  C   LIG    1        1.118   1.994   0.002  0.00  0.00    +0.300 A 
ATOM     26  N   LIG    1       -0.016   1.317   0.009  0.00  0.00    -0.440 NA
ENDBRANCH  16  24
ENDBRANCH  15  17
ENDBRANCH   1  15
TORSDOF 4
