REMARK  Name = ZINCtV00001bB3TG.0
REMARK                            x       y       z     vdW  Elec       q    Type
REMARK                         _______ _______ _______ _____ _____    ______ ____
ROOT
ATOM      1  N   LIG    1       -3.759   6.513   0.070  0.00  0.00    -0.580 N 
ATOM      2  H   LIG    1       -4.594   6.020   0.075  0.00  0.00    +0.390 HD
ATOM      3  C   LIG    1       -3.772   7.861   0.077  0.00  0.00    +0.540 C 
ATOM      4  O   LIG    1       -2.727   8.477   0.070  0.00  0.00    -0.500 OA
ENDROOT
BRANCH   1   7
ATOM      5  C   LIG    1       -3.825   3.760   0.057  0.00  0.00    +0.090 C 
ATOM      6  C   LIG    1       -2.527   4.526   0.049  0.00  0.00    +0.130 C 
ATOM      7  N   LIG    1       -2.539   5.824   0.055  0.00  0.00    -0.220 NA
BRANCH   6   8
ATOM      8  C   LIG    1       -1.243   3.801   0.033  0.00  0.00    -0.030 A 
ATOM      9  C   LIG    1       -0.038   4.508   0.025  0.00  0.00    +0.090 A 
ATOM     10  C   LIG    1        1.160   3.824   0.011  0.00  0.00    +0.050 A 
ATOM     11  C   LIG    1        1.170   2.440   0.004  0.00  0.00    -0.020 A 
ATOM     12  C   LIG    1       -0.021   1.732   0.012  0.00  0.00    -0.030 A 
ATOM     13 CL   LIG    1        0.002  -0.004   0.002  0.00  0.00    -0.040 Cl
ATOM     14 CL   LIG    1        2.682   1.587  -0.015  0.00  0.00    -0.040 Cl
ATOM     15  C   LIG    1       -1.226   2.404   0.021  0.00  0.00    +0.080 A 
ENDBRANCH   6   8
ENDBRANCH   1   7
BRANCH   3  16
ATOM     16  C   LIG    1       -5.084   8.601   0.093  0.00  0.00    +0.060 C 
BRANCH  16  17
ATOM     17  C   LIG    1       -4.818  10.108   0.098  0.00  0.00    +0.330 C 
BRANCH  17  18
ATOM     18  N   LIG    1       -6.094  10.829   0.113  0.00  0.00    -0.510 N 
ATOM     19  C   LIG    1       -6.790  11.229  -1.013  0.00  0.00    +0.140 A 
ATOM     20  C   LIG    1       -7.960  11.884  -0.601  0.00  0.00    -0.100 A 
ATOM     21  C   LIG    1       -7.946  11.876   0.873  0.00  0.00    -0.100 A 
ATOM     22  C   LIG    1       -8.818  12.369   1.842  0.00  0.00    +0.070 A 
ATOM     23  C   LIG    1       -8.522  12.202   3.177  0.00  0.00    -0.020 A 
ATOM     24  C   LIG    1       -7.361  11.546   3.559  0.00  0.00    +0.050 A 
ATOM     25  C   LIG    1       -6.491  11.053   2.611  0.00  0.00    -0.020 A 
ATOM     26  C   LIG    1       -8.849  12.387  -1.548  0.00  0.00    +0.070 A 
ATOM     27  C   LIG    1       -8.571  12.246  -2.891  0.00  0.00    -0.020 A 
ATOM     28  C   LIG    1       -7.417  11.595  -3.300  0.00  0.00    +0.050 A 
ATOM     29  C   LIG    1       -6.531  11.089  -2.374  0.00  0.00    -0.020 A 
ATOM     30  C   LIG    1       -6.772  11.212   1.257  0.00  0.00    +0.140 A 
ENDBRANCH  17  18
ENDBRANCH  16  17
ENDBRANCH   3  16
TORSDOF 5
