REMARK  Name = ZINCpe00000VVGD4.0
REMARK                            x       y       z     vdW  Elec       q    Type
REMARK                         _______ _______ _______ _____ _____    ______ ____
ROOT
ATOM      1  C   LIG    1       -1.412  -0.526   0.013  0.00  0.00    +0.370 C 
ATOM      2  O   LIG    1       -2.297   0.118  -0.498  0.00  0.00    -0.380 OA
ENDROOT
BRANCH   1   3
ATOM      3  C   LIG    1       -1.721  -1.850   0.661  0.00  0.00    +0.060 C 
BRANCH   3   4
ATOM      4  C   LIG    1       -3.218  -2.143   0.534  0.00  0.00    +0.030 C 
BRANCH   4   5
ATOM      5  C   LIG    1       -3.532  -3.488   1.192  0.00  0.00    +0.320 C 
BRANCH   5  10
ATOM      6  C   LIG    1       -8.357  -3.537   2.381  0.00  0.00    +0.340 C 
ATOM      7  N   LIG    1       -7.125  -3.778   1.625  0.00  0.00    -0.630 N 
ATOM      8  C   LIG    1       -7.006  -4.484   0.337  0.00  0.00    +0.300 C 
ATOM      9  C   LIG    1       -5.521  -4.431   0.038  0.00  0.00    +0.520 C 
ATOM     10  N   LIG    1       -4.965  -3.768   1.071  0.00  0.00    -0.580 N 
ATOM     11  O   LIG    1       -4.953  -4.890  -0.930  0.00  0.00    -0.470 OA
ATOM     12  C   LIG    1       -5.881  -3.403   1.974  0.00  0.00    +0.700 C 
ATOM     13  O   LIG    1       -5.620  -2.796   2.994  0.00  0.00    -0.540 OA
ENDBRANCH   5  10
ENDBRANCH   4   5
ENDBRANCH   3   4
ENDBRANCH   1   3
BRANCH   1  14
ATOM     14  C   LIG    1        0.002  -0.004   0.002  0.00  0.00    +0.110 C 
BRANCH  14  15
ATOM     15  C   LIG    1       -0.018   1.503   0.010  0.00  0.00    +0.530 C 
ATOM     16  N   LIG    1        1.139   2.192   0.003  0.00  0.00    -0.720 N 
ATOM     17  H   LIG    1        1.986   1.719  -0.008  0.00  0.00    +0.400 HD
ATOM     18  O   LIG    1       -1.077   2.095   0.018  0.00  0.00    -0.490 OA
BRANCH  16  19
ATOM     19  C   LIG    1        1.120   3.657   0.011  0.00  0.00    +0.240 C 
ATOM     20  C   LIG    1        0.973   4.173  -1.422  0.00  0.00    +0.000 C 
ATOM     21  C   LIG    1        0.953   5.703  -1.413  0.00  0.00    +0.020 C 
ATOM     22  C   LIG    1        2.259   6.228  -0.814  0.00  0.00    +0.010 C 
ATOM     23  C   LIG    1        2.405   5.712   0.619  0.00  0.00    +0.020 C 
ATOM     24  C   LIG    1        2.426   4.182   0.611  0.00  0.00    +0.010 C 
ENDBRANCH  16  19
ENDBRANCH  14  15
BRANCH  14  25
ATOM     25  C   LIG    1        0.691  -0.479  -1.209  0.00  0.00    +0.200 C 
ATOM     26  N   LIG    1        1.223  -0.845  -2.144  0.00  0.00    -0.380 NA
ENDBRANCH  14  25
ENDBRANCH   1  14
TORSDOF 8
