REMARK  Name = ZINCnE000001O7mG.0
REMARK                            x       y       z     vdW  Elec       q    Type
REMARK                         _______ _______ _______ _____ _____    ______ ____
ROOT
ATOM      1  C   LIG    1       -1.627  -3.947  -0.217  0.00  0.00    +0.510 A 
ATOM      2  N   LIG    1       -1.414  -4.598   0.917  0.00  0.00    -0.550 NA
ATOM      3  C   LIG    1       -1.569  -5.911   0.990  0.00  0.00    +0.350 A 
ATOM      4  C   LIG    1       -1.958  -6.609  -0.139  0.00  0.00    -0.110 A 
ATOM      5  C   LIG    1       -2.176  -5.896  -1.321  0.00  0.00    +0.240 A 
ATOM      6  N   LIG    1       -2.006  -4.576  -1.319  0.00  0.00    -0.530 NA
ENDROOT
BRANCH   1  10
ATOM      7  C   LIG    1       -2.396   0.006   0.708  0.00  0.00    +0.030 C 
ATOM      8  C   LIG    1       -1.002  -0.535   1.029  0.00  0.00    +0.000 C 
ATOM      9  C   LIG    1       -1.041  -2.064   1.064  0.00  0.00    +0.210 C 
ATOM     10  N   LIG    1       -1.455  -2.574  -0.250  0.00  0.00    -0.450 N 
ATOM     11  C   LIG    1       -0.497  -2.189  -1.294  0.00  0.00    +0.200 C 
ATOM     12  C   LIG    1       -0.441  -0.663  -1.399  0.00  0.00    +0.050 C 
ATOM     13  C   LIG    1       -0.015  -0.079  -0.050  0.00  0.00    -0.090 C 
BRANCH  13  14
ATOM     14  C   LIG    1       -0.016   1.426  -0.129  0.00  0.00    +0.500 C 
ATOM     15  O   LIG    1       -0.833   1.998  -0.830  0.00  0.00    -0.690 OA
ATOM     16  O   LIG    1        0.804   2.070   0.503  0.00  0.00    -0.710 OA
ENDBRANCH  13  14
ENDBRANCH   1  10
BRANCH   5  17
ATOM     17  C   LIG    1       -2.594  -6.599  -2.558  0.00  0.00    -0.040 A 
ATOM     18  C   LIG    1       -2.769  -7.982  -2.551  0.00  0.00    +0.050 A 
ATOM     19  C   LIG    1       -3.164  -8.631  -3.704  0.00  0.00    +0.040 A 
ATOM     20  C   LIG    1       -3.376  -7.912  -4.867  0.00  0.00    -0.080 A 
ATOM     21  C   LIG    1       -3.198  -6.539  -4.881  0.00  0.00    +0.040 A 
ATOM     22 BR   LIG    1       -3.910  -8.808  -6.444  0.00  0.00    -0.050 Br
ATOM     23  C   LIG    1       -2.809  -5.880  -3.733  0.00  0.00    +0.090 A 
ENDBRANCH   5  17
TORSDOF 3
