REMARK  Name = ZINCpe000000Z5zq.0
REMARK                            x       y       z     vdW  Elec       q    Type
REMARK                         _______ _______ _______ _____ _____    ______ ____
ROOT
ATOM      1  C   LIG    1       -0.016   1.314   0.009  0.00  0.00    +0.010 A 
ATOM      2  N   LIG    1        0.002  -0.004   0.002  0.00  0.00    -0.260 NA
ATOM      3  N   LIG    1        1.214  -0.430  -0.012  0.00  0.00    -0.240 N 
ATOM      4  C   LIG    1        2.077   0.620  -0.014  0.00  0.00    +0.180 A 
ATOM      5  C   LIG    1        1.331   1.749  -0.001  0.00  0.00    +0.020 A 
ENDROOT
BRANCH   3   6
ATOM      6  C   LIG    1        1.591  -1.779  -0.022  0.00  0.00    +0.150 A 
ATOM      7  C   LIG    1        2.932  -2.127   0.068  0.00  0.00    +0.080 A 
ATOM      8  C   LIG    1        3.301  -3.458   0.058  0.00  0.00    +0.070 A 
ATOM      9  C   LIG    1        2.336  -4.444  -0.043  0.00  0.00    +0.100 A 
ATOM     10  C   LIG    1        1.000  -4.100  -0.133  0.00  0.00    -0.020 A 
ATOM     11  C   LIG    1        0.624  -2.771  -0.117  0.00  0.00    +0.120 A 
BRANCH  10  12
ATOM     12  N   LIG    1       -0.030  -5.158  -0.240  0.00  0.00    +0.020 N 
ATOM     13  O   LIG    1       -1.208  -4.856  -0.320  0.00  0.00    -0.150 OA
ATOM     14  O   LIG    1        0.300  -6.330  -0.249  0.00  0.00    -0.140 OA
ENDBRANCH  10  12
ENDBRANCH   3   6
BRANCH   1  16
ATOM     15  O   LIG    1       -1.095   3.385   0.025  0.00  0.00    -0.520 OA
ATOM     16  C   LIG    1       -1.216   2.175   0.020  0.00  0.00    +0.610 C 
ATOM     17  N   LIG    1       -2.443   1.620   0.024  0.00  0.00    -0.720 N 
ATOM     18  H   LIG    1       -2.539   0.655   0.019  0.00  0.00    +0.410 HD
BRANCH  17  19
ATOM     19  C   LIG    1       -3.634   2.474   0.034  0.00  0.00    +0.270 C 
BRANCH  19  20
ATOM     20  C   LIG    1       -4.889   1.599   0.036  0.00  0.00    +0.170 C 
BRANCH  20  21
ATOM     21  N   LIG    1       -6.082   2.456   0.047  0.00  0.00    -0.530 NA
ATOM     22  C   LIG    1       -6.183   3.204   1.308  0.00  0.00    +0.150 C 
ATOM     23  C   LIG    1       -7.404   4.125   1.253  0.00  0.00    +0.220 C 
ATOM     24  O   LIG    1       -8.573   3.344   0.992  0.00  0.00    -0.390 OA
ATOM     25  C   LIG    1       -8.510   2.603  -0.230  0.00  0.00    +0.220 C 
ATOM     26  C   LIG    1       -7.300   1.666  -0.189  0.00  0.00    +0.160 C 
ENDBRANCH  20  21
ENDBRANCH  19  20
ENDBRANCH  17  19
ENDBRANCH   1  16
TORSDOF 6
