REMARK  Name = ZINCqH0000006T6b.0
REMARK                            x       y       z     vdW  Elec       q    Type
REMARK                         _______ _______ _______ _____ _____    ______ ____
ROOT
ATOM      1  N   LIG    1       -3.546   1.622   0.047  0.00  0.00    -0.660 N 
ATOM      2  H   LIG    1       -3.483   2.588  -0.021  0.00  0.00    +0.410 HD
ATOM      3  C   LIG    1       -2.426   0.873   0.052  0.00  0.00    +0.560 C 
ATOM      4  O   LIG    1       -2.506  -0.341   0.033  0.00  0.00    -0.520 OA
ENDROOT
BRANCH   1   8
ATOM      5  C   LIG    1       -7.286  -0.211   0.325  0.00  0.00    +0.170 A 
ATOM      6  C   LIG    1       -7.137   0.939  -0.434  0.00  0.00    -0.120 A 
ATOM      7  C   LIG    1       -5.898   1.553  -0.523  0.00  0.00    +0.150 A 
ATOM      8  C   LIG    1       -4.802   1.006   0.141  0.00  0.00    +0.100 A 
ATOM      9  C   LIG    1       -4.956  -0.145   0.899  0.00  0.00    +0.120 A 
ATOM     10  C   LIG    1       -6.195  -0.752   0.992  0.00  0.00    -0.090 A 
ATOM     11 CL   LIG    1       -6.386  -2.193   1.941  0.00  0.00    -0.050 Cl
BRANCH   5  13
ATOM     12  C   LIG    1       -9.583  -0.200  -0.293  0.00  0.00    +0.250 C 
ATOM     13  O   LIG    1       -8.504  -0.810   0.418  0.00  0.00    -0.300 OA
ENDBRANCH   5  13
BRANCH   7  14
ATOM     14  O   LIG    1       -5.751   2.685  -1.262  0.00  0.00    -0.310 OA
ATOM     15  C   LIG    1       -6.917   3.190  -1.915  0.00  0.00    +0.260 C 
ENDBRANCH   7  14
ENDBRANCH   1   8
BRANCH   3  16
ATOM     16  C   LIG    1       -1.102   1.524   0.080  0.00  0.00    -0.170 A 
ATOM     17  C   LIG    1        0.060   0.748   0.084  0.00  0.00    +0.120 A 
ATOM     18  C   LIG    1        1.294   1.359   0.105  0.00  0.00    -0.040 A 
ATOM     19  C   LIG    1        1.384   2.748   0.127  0.00  0.00    +0.200 A 
ATOM     20  C   LIG    1        0.229   3.523   0.128  0.00  0.00    -0.010 A 
ATOM     21  C   LIG    1       -1.008   2.918   0.107  0.00  0.00    +0.080 A 
BRANCH  19  22
ATOM     22  N   LIG    1        2.635   3.363   0.148  0.00  0.00    -0.560 N 
ATOM     23  C   LIG    1        3.909   2.645   0.269  0.00  0.00    +0.270 C 
ATOM     24  C   LIG    1        4.946   3.713   0.682  0.00  0.00    +0.060 C 
ATOM     25  C   LIG    1        4.307   5.006   0.124  0.00  0.00    +0.070 C 
ATOM     26  C   LIG    1        2.829   4.690   0.053  0.00  0.00    +0.520 C 
ATOM     27  O   LIG    1        1.947   5.514  -0.069  0.00  0.00    -0.500 OA
ENDBRANCH  19  22
ENDBRANCH   3  16
TORSDOF 5
