REMARK  Name = ZINCpe00000yuSVx.1
REMARK                            x       y       z     vdW  Elec       q    Type
REMARK                         _______ _______ _______ _____ _____    ______ ____
ROOT
ATOM      1  N   LIG    1        1.356   2.033   0.000  0.00  0.00    -0.730 N 
ATOM      2  H   LIG    1        2.102   1.413  -0.010  0.00  0.00    +0.400 HD
ATOM      3  C   LIG    1        1.584   3.361   0.005  0.00  0.00    +0.590 C 
ATOM      4  O   LIG    1        0.649   4.139   0.018  0.00  0.00    -0.540 OA
ENDROOT
BRANCH   3   5
ATOM      5  C   LIG    1        2.962   3.870  -0.005  0.00  0.00    -0.220 A 
ATOM      6  C   LIG    1        4.106   3.128  -0.021  0.00  0.00    +0.290 A 
ATOM      7  N   LIG    1        5.185   3.948  -0.026  0.00  0.00    -0.570 N 
ATOM      8  H   LIG    1        6.107   3.648  -0.037  0.00  0.00    +0.430 HD
ATOM      9  C   LIG    1        4.788   5.267  -0.015  0.00  0.00    +0.110 A 
ATOM     10  C   LIG    1        5.490   6.471  -0.015  0.00  0.00    +0.020 A 
ATOM     11  C   LIG    1        4.819   7.658  -0.017  0.00  0.00    +0.090 A 
ATOM     12  C   LIG    1        3.418   7.686  -0.006  0.00  0.00    -0.050 A 
ATOM     13  C   LIG    1        2.698   6.493  -0.002  0.00  0.00    +0.130 A 
ATOM     14  C   LIG    1        3.382   5.284  -0.008  0.00  0.00    -0.070 A 
BRANCH  12  15
ATOM     15  C   LIG    1        2.726   8.940   0.000  0.00  0.00    +0.260 C 
ATOM     16  N   LIG    1        2.178   9.934   0.006  0.00  0.00    -0.420 NA
ENDBRANCH  12  15
ENDBRANCH   3   5
BRANCH   1  17
ATOM     17  C   LIG    1       -0.019   1.526   0.010  0.00  0.00    +0.290 C 
BRANCH  17  20
ATOM     18  C   LIG    1       -1.341  -0.728  -0.108  0.00  0.00    +0.240 C 
ATOM     19  C   LIG    1       -0.580  -0.725   1.220  0.00  0.00    +0.030 C 
ATOM     20  C   LIG    1        0.002  -0.004   0.002  0.00  0.00    -0.060 C 
BRANCH  18  22
ATOM     21  C   LIG    1       -3.659  -0.396  -0.781  0.00  0.00    +0.520 C 
ATOM     22  N   LIG    1       -2.549   0.096  -0.197  0.00  0.00    -0.710 N 
ATOM     23  H   LIG    1       -2.550   0.996   0.165  0.00  0.00    +0.400 HD
ATOM     24  O   LIG    1       -3.658  -1.521  -1.234  0.00  0.00    -0.520 OA
BRANCH  21  25
ATOM     25  C   LIG    1       -4.901   0.453  -0.873  0.00  0.00    +0.210 C 
BRANCH  25  27
ATOM     26  C   LIG    1       -7.253   0.391  -1.447  0.00  0.00    +0.190 C 
ATOM     27  N   LIG    1       -5.963  -0.305  -1.548  0.00  0.00    -0.530 NA
ATOM     28  C   LIG    1       -5.614  -0.566  -2.951  0.00  0.00    +0.200 C 
ENDBRANCH  25  27
ENDBRANCH  21  25
ENDBRANCH  18  22
ENDBRANCH  17  20
ENDBRANCH   1  17
TORSDOF 7
