REMARK  Name = ZINCpk000000pE4O.0
REMARK                            x       y       z     vdW  Elec       q    Type
REMARK                         _______ _______ _______ _____ _____    ______ ____
ROOT
ATOM      1  N   LIG    1        4.200   2.110  -1.059  0.00  0.00    -0.730 N 
ATOM      2  H   LIG    1        3.887   3.006  -0.860  0.00  0.00    +0.410 HD
ATOM      3  C   LIG    1        3.411   1.048  -0.803  0.00  0.00    +0.700 C 
ATOM      4  N   LIG    1        2.152   1.235  -0.360  0.00  0.00    -0.610 N 
ATOM      5  C   LIG    1        1.738   2.582  -0.069  0.00  0.00    +0.270 C 
ATOM      6  C   LIG    1        0.994   3.182  -1.245  0.00  0.00    +0.070 C 
ATOM      7  C   LIG    1       -0.252   2.378  -1.595  0.00  0.00    -0.070 A 
ATOM      8  C   LIG    1       -1.307   3.275  -1.883  0.00  0.00    -0.010 A 
ATOM      9  C   LIG    1       -2.559   2.834  -2.226  0.00  0.00    +0.000 A 
ATOM     10  C   LIG    1       -2.788   1.472  -2.303  0.00  0.00    +0.000 A 
ATOM     11  C   LIG    1       -1.757   0.613  -2.027  0.00  0.00    -0.010 A 
ATOM     12  C   LIG    1       -0.470   1.079  -1.667  0.00  0.00    -0.060 A 
ATOM     13  C   LIG    1        0.439  -0.120  -1.429  0.00  0.00    +0.070 C 
ATOM     14  C   LIG    1        1.316   0.074  -0.210  0.00  0.00    +0.300 C 
ATOM     15  O   LIG    1        3.835  -0.079  -0.972  0.00  0.00    -0.580 OA
ENDROOT
BRANCH   1  16
ATOM     16  C   LIG    1        5.530   1.911  -1.639  0.00  0.00    +0.260 C 
BRANCH  16  17
ATOM     17  C   LIG    1        5.948   3.156  -2.378  0.00  0.00    +0.520 C 
ATOM     18  N   LIG    1        6.962   3.106  -3.265  0.00  0.00    -0.610 N 
ATOM     19  C   LIG    1        7.614   1.830  -3.599  0.00  0.00    +0.260 C 
ATOM     20  C   LIG    1        7.653   1.698  -5.130  0.00  0.00    +0.220 C 
ATOM     21  O   LIG    1        8.242   2.876  -5.686  0.00  0.00    -0.380 OA
ATOM     22  C   LIG    1        7.504   4.074  -5.434  0.00  0.00    +0.220 C 
ATOM     23  C   LIG    1        7.453   4.327  -3.923  0.00  0.00    +0.260 C 
ATOM     24  O   LIG    1        5.371   4.204  -2.175  0.00  0.00    -0.530 OA
ENDBRANCH  16  17
BRANCH  16  26
ATOM     25  C   LIG    1        6.186   0.286   0.142  0.00  0.00    +0.030 C 
ATOM     26  C   LIG    1        6.535   1.619  -0.523  0.00  0.00    +0.010 C 
ENDBRANCH  16  26
ENDBRANCH   1  16
TORSDOF 3
