REMARK  Name = ZINCnE00000rhocQ.0
REMARK                            x       y       z     vdW  Elec       q    Type
REMARK                         _______ _______ _______ _____ _____    ______ ____
ROOT
ATOM      1  C   LIG    1       -0.019   1.526   0.010  0.00  0.00    -0.080 C 
ATOM      2  C   LIG    1       -0.642   2.066  -1.296  0.00  0.00    -0.010 C 
ATOM      3  C   LIG    1        0.495   2.889  -1.942  0.00  0.00    +0.180 C 
ATOM      4  O   LIG    1        1.353   3.259  -0.841  0.00  0.00    -0.380 OA
ATOM      5  C   LIG    1        1.421   2.087  -0.000  0.00  0.00    +0.210 C 
ENDROOT
BRANCH   1   6
ATOM      6  C   LIG    1       -0.787   2.043   1.228  0.00  0.00    +0.200 C 
BRANCH   6  11
ATOM      7  C   LIG    1        1.463   3.240   5.011  0.00  0.00    +0.090 A 
ATOM      8  N   LIG    1        1.147   4.247   4.268  0.00  0.00    -0.300 NA
ATOM      9  N   LIG    1        0.465   3.762   3.143  0.00  0.00    -0.540 NA
ATOM     10  C   LIG    1        0.406   2.400   3.282  0.00  0.00    +0.440 A 
ATOM     11  N   LIG    1       -0.147   1.555   2.453  0.00  0.00    -0.680 NA
ATOM     12  O   LIG    1        1.022   2.099   4.444  0.00  0.00    -0.290 OA
BRANCH   7  14
ATOM     13  C   LIG    1        2.529   4.791   6.626  0.00  0.00    +0.050 C 
ATOM     14  C   LIG    1        2.207   3.327   6.319  0.00  0.00    +0.040 C 
ATOM     15  C   LIG    1        3.509   2.529   6.219  0.00  0.00    +0.030 C 
ATOM     16  C   LIG    1        1.339   2.749   7.438  0.00  0.00    +0.030 C 
ENDBRANCH   7  14
ENDBRANCH   6  11
ENDBRANCH   1   6
BRANCH   1  17
ATOM     17  C   LIG    1        0.002  -0.004   0.002  0.00  0.00    +0.060 C 
BRANCH  17  18
ATOM     18  C   LIG    1        0.700  -0.504   1.241  0.00  0.00    -0.060 A 
ATOM     19  C   LIG    1        2.065  -0.721   1.225  0.00  0.00    -0.020 A 
ATOM     20  C   LIG    1        2.705  -1.175   2.363  0.00  0.00    -0.050 A 
ATOM     21  C   LIG    1        1.979  -1.421   3.513  0.00  0.00    -0.020 A 
ATOM     22  C   LIG    1        0.614  -1.209   3.527  0.00  0.00    -0.040 A 
ATOM     23  C   LIG    1       -0.026  -0.750   2.391  0.00  0.00    +0.130 A 
ENDBRANCH  17  18
ENDBRANCH   1  17
TORSDOF 5
