REMARK  Name = ZINCtV00000vtKEl.0
REMARK                            x       y       z     vdW  Elec       q    Type
REMARK                         _______ _______ _______ _____ _____    ______ ____
ROOT
ATOM      1  C   LIG    1        3.599   5.982  -0.215  0.00  0.00    -0.220 A 
ATOM      2  C   LIG    1        3.733   7.352  -0.320  0.00  0.00    +0.050 A 
ATOM      3  N   LIG    1        5.049   7.622  -0.407  0.00  0.00    -0.280 N 
ATOM      4  N   LIG    1        5.753   6.413  -0.357  0.00  0.00    -0.240 NA
ATOM      5  C   LIG    1        4.901   5.432  -0.238  0.00  0.00    +0.300 A 
ENDROOT
BRANCH   3   6
ATOM      6  C   LIG    1        5.617   8.897  -0.528  0.00  0.00    +0.120 A 
ATOM      7  C   LIG    1        4.968   9.881  -1.261  0.00  0.00    +0.040 A 
ATOM      8  C   LIG    1        5.529  11.138  -1.375  0.00  0.00    +0.060 A 
ATOM      9  C   LIG    1        6.741  11.415  -0.767  0.00  0.00    -0.020 A 
ATOM     10  C   LIG    1        7.392  10.434  -0.039  0.00  0.00    +0.060 A 
ATOM     11 CL   LIG    1        7.446  12.994  -0.918  0.00  0.00    -0.050 Cl
ATOM     12  C   LIG    1        6.833   9.177   0.082  0.00  0.00    +0.070 A 
ENDBRANCH   3   6
BRANCH   1  15
ATOM     13  N   LIG    1        2.355   3.889  -0.001  0.00  0.00    -0.660 N 
ATOM     14  H   LIG    1        3.201   3.419   0.066  0.00  0.00    +0.410 HD
ATOM     15  C   LIG    1        2.335   5.233  -0.095  0.00  0.00    +0.590 C 
ATOM     16  O   LIG    1        1.275   5.828  -0.082  0.00  0.00    -0.500 OA
BRANCH  13  20
ATOM     17  C   LIG    1       -1.217   1.746   0.001  0.00  0.00    -0.080 A 
ATOM     18  C   LIG    1       -0.140   1.292   0.741  0.00  0.00    +0.030 A 
ATOM     19  C   LIG    1        1.046   2.000   0.741  0.00  0.00    -0.010 A 
ATOM     20  C   LIG    1        1.155   3.170   0.002  0.00  0.00    +0.140 A 
ATOM     21  C   LIG    1        0.070   3.625  -0.736  0.00  0.00    +0.020 A 
ATOM     22  C   LIG    1       -1.113   2.913  -0.732  0.00  0.00    +0.030 A 
BRANCH  17  24
ATOM     23  C   LIG    1       -3.051   0.876   1.426  0.00  0.00    +0.040 C 
ATOM     24  C   LIG    1       -2.508   0.968  -0.002  0.00  0.00    -0.030 C 
ATOM     25  C   LIG    1       -2.254  -0.441  -0.542  0.00  0.00    +0.040 C 
ATOM     26  C   LIG    1       -3.530   1.679  -0.892  0.00  0.00    +0.030 C 
ENDBRANCH  17  24
ENDBRANCH  13  20
ENDBRANCH   1  15
BRANCH   2  27
ATOM     27  C   LIG    1        2.613   8.360  -0.334  0.00  0.00    +0.530 C 
ATOM     28  F   LIG    1        3.062   9.564   0.219  0.00  0.00    -0.170 F 
ATOM     29  F   LIG    1        1.539   7.873   0.419  0.00  0.00    -0.130 F 
ATOM     30  F   LIG    1        2.198   8.577  -1.652  0.00  0.00    -0.160 F 
ENDBRANCH   2  27
TORSDOF 5
