REMARK  Name = ZINCpk00000y6xKi.1
REMARK                            x       y       z     vdW  Elec       q    Type
REMARK                         _______ _______ _______ _____ _____    ______ ____
ROOT
ATOM      1  C   LIG    1        3.196   4.308  -0.778  0.00  0.00    +0.600 C 
ATOM      2  N   LIG    1        3.143   3.042  -1.237  0.00  0.00    -0.600 N 
ATOM      3  C   LIG    1        4.336   2.423  -1.818  0.00  0.00    +0.300 C 
ATOM      4  O   LIG    1        2.235   4.790  -0.209  0.00  0.00    -0.510 OA
ENDROOT
BRANCH   1  10
ATOM      5  C   LIG    1        9.791   7.118  -2.541  0.00  0.00    +0.110 C 
ATOM      6  C   LIG    1        8.411   6.967  -1.954  0.00  0.00    -0.070 A 
ATOM      7  C   LIG    1        7.694   5.835  -2.178  0.00  0.00    +0.070 A 
ATOM      8  C   LIG    1        6.404   5.711  -1.619  0.00  0.00    +0.230 A 
ATOM      9  N   LIG    1        5.507   4.740  -1.669  0.00  0.00    -0.460 NA
ATOM     10  C   LIG    1        4.420   5.111  -0.966  0.00  0.00    +0.010 A 
ATOM     11  C   LIG    1        4.650   6.355  -0.451  0.00  0.00    +0.170 A 
ATOM     12  N   LIG    1        5.893   6.734  -0.860  0.00  0.00    -0.370 N 
ATOM     13  C   LIG    1        6.627   7.866  -0.643  0.00  0.00    +0.230 A 
ATOM     14  C   LIG    1        7.861   7.997  -1.171  0.00  0.00    +0.020 A 
ENDBRANCH   1  10
BRANCH   2  15
ATOM     15  C   LIG    1        1.891   2.286  -1.155  0.00  0.00    +0.310 C 
BRANCH  15  16
ATOM     16  C   LIG    1        1.835   1.534   0.176  0.00  0.00    +0.150 C 
ATOM     17  O   LIG    1        1.729   2.469   1.262  0.00  0.00    -0.340 OA
ATOM     18  C   LIG    1        0.913   1.846   2.277  0.00  0.00    +0.210 C 
ATOM     19  C   LIG    1       -0.196   1.133   1.462  0.00  0.00    +0.040 C 
ATOM     20  C   LIG    1        0.583   0.637   0.219  0.00  0.00    +0.080 C 
BRANCH  20  21
ATOM     21  C   LIG    1       -0.240   0.819  -1.030  0.00  0.00    +0.230 A 
ATOM     22  N   LIG    1       -0.749   1.949  -1.446  0.00  0.00    -0.300 NA
ATOM     23  N   LIG    1       -1.433   1.670  -2.641  0.00  0.00    -0.480 N 
ATOM     24  H   LIG    1       -1.916   2.303  -3.195  0.00  0.00    +0.440 HD
ATOM     25  C   LIG    1       -1.289   0.352  -2.861  0.00  0.00    +0.480 A 
ATOM     26  N   LIG    1       -0.571  -0.146  -1.887  0.00  0.00    -0.540 NA
ENDBRANCH  20  21
ENDBRANCH  15  16
ENDBRANCH   2  15
TORSDOF 4
