REMARK  Name = ZINCpk00000y6xKi.0
REMARK                            x       y       z     vdW  Elec       q    Type
REMARK                         _______ _______ _______ _____ _____    ______ ____
ROOT
ATOM      1  C   LIG    1       -0.017   1.690   2.369  0.00  0.00    +0.600 C 
ATOM      2  N   LIG    1       -0.697   1.566   1.212  0.00  0.00    -0.600 N 
ATOM      3  C   LIG    1       -0.005   1.124  -0.002  0.00  0.00    +0.290 C 
ATOM      4  O   LIG    1       -0.605   1.987   3.391  0.00  0.00    -0.520 OA
ENDROOT
BRANCH   1  10
ATOM      5  C   LIG    1        7.120   0.407   0.985  0.00  0.00    +0.120 C 
ATOM      6  C   LIG    1        5.834   0.695   1.716  0.00  0.00    -0.060 A 
ATOM      7  C   LIG    1        4.667   0.798   1.028  0.00  0.00    +0.060 A 
ATOM      8  C   LIG    1        3.472   1.068   1.730  0.00  0.00    +0.230 A 
ATOM      9  N   LIG    1        2.221   1.212   1.327  0.00  0.00    -0.470 NA
ATOM     10  C   LIG    1        1.442   1.465   2.395  0.00  0.00    +0.010 A 
ATOM     11  C   LIG    1        2.233   1.470   3.507  0.00  0.00    +0.170 A 
ATOM     12  N   LIG    1        3.507   1.222   3.094  0.00  0.00    -0.370 N 
ATOM     13  C   LIG    1        4.689   1.115   3.771  0.00  0.00    +0.230 A 
ATOM     14  C   LIG    1        5.838   0.858   3.112  0.00  0.00    +0.020 A 
ENDBRANCH   1  10
BRANCH   2  15
ATOM     15  C   LIG    1       -2.129   1.873   1.168  0.00  0.00    +0.300 C 
BRANCH  15  16
ATOM     16  C   LIG    1       -2.932   0.608   1.478  0.00  0.00    +0.160 C 
ATOM     17  O   LIG    1       -2.705   0.207   2.840  0.00  0.00    -0.350 OA
ATOM     18  C   LIG    1       -3.940  -0.366   3.322  0.00  0.00    +0.210 C 
ATOM     19  C   LIG    1       -5.027   0.562   2.722  0.00  0.00    +0.010 C 
ATOM     20  C   LIG    1       -4.439   0.893   1.329  0.00  0.00    +0.090 C 
BRANCH  20  21
ATOM     21  C   LIG    1       -4.670   2.343   0.991  0.00  0.00    +0.190 A 
ATOM     22  N   LIG    1       -4.815   2.845  -0.206  0.00  0.00    -0.290 NA
ATOM     23  N   LIG    1       -4.998   4.115  -0.123  0.00  0.00    -0.290 NA
ATOM     24  C   LIG    1       -4.968   4.483   1.128  0.00  0.00    +0.380 A 
ATOM     25  N   LIG    1       -4.758   3.369   1.871  0.00  0.00    -0.580 N 
ATOM     26  H   LIG    1       -4.687   3.317   2.837  0.00  0.00    +0.430 HD
ENDBRANCH  20  21
ENDBRANCH  15  16
ENDBRANCH   2  15
TORSDOF 4
