REMARK  Name = ZINCqj00000rAtwz.0
REMARK                            x       y       z     vdW  Elec       q    Type
REMARK                         _______ _______ _______ _____ _____    ______ ____
ROOT
ATOM      1  N   LIG    1       -4.900   0.565  -1.289  0.00  0.00    -0.490 N 
ATOM      2  H   LIG    1       -4.314  -0.049  -1.834  0.00  0.00    +0.420 HD
ATOM      3  H   LIG    1       -4.960   1.464  -1.743  0.00  0.00    +0.430 HD
ENDROOT
BRANCH   1   6
ATOM      4  C   LIG    1       -3.419   2.650   0.052  0.00  0.00    +0.160 C 
ATOM      5  C   LIG    1       -4.680   2.071   0.717  0.00  0.00    +0.090 C 
ATOM      6  C   LIG    1       -4.322   0.731   0.052  0.00  0.00    +0.160 C 
ATOM      7  C   LIG    1       -2.869   1.219   0.039  0.00  0.00    -0.100 C 
ATOM      8  C   LIG    1       -2.115   0.865  -1.242  0.00  0.00    +0.070 C 
ATOM      9  C   LIG    1       -0.717   1.489  -1.185  0.00  0.00    +0.290 C 
ATOM     10  N   LIG    1       -0.012   1.005   0.008  0.00  0.00    -0.510 N 
ATOM     11  C   LIG    1       -0.694   1.476   1.219  0.00  0.00    +0.270 C 
ATOM     12  H   LIG    1        0.936   1.352   0.000  0.00  0.00    +0.440 HD
ATOM     13  H   LIG    1        0.002  -0.004   0.002  0.00  0.00    +0.430 HD
ATOM     14  C   LIG    1       -2.088   0.851   1.300  0.00  0.00    +0.120 C 
BRANCH   4  16
ATOM     15  C   LIG    1       -3.498   4.606  -1.331  0.00  0.00    +0.260 C 
ATOM     16  O   LIG    1       -3.651   3.187  -1.252  0.00  0.00    -0.390 OA
ENDBRANCH   4  16
ENDBRANCH   1   6
BRANCH   1  17
ATOM     17  C   LIG    1       -6.244  -0.016  -1.175  0.00  0.00    +0.330 C 
BRANCH  17  18
ATOM     18  C   LIG    1       -6.837  -0.185  -2.550  0.00  0.00    -0.160 A 
ATOM     19  C   LIG    1       -7.583   0.834  -3.111  0.00  0.00    +0.050 A 
ATOM     20  C   LIG    1       -8.123   0.680  -4.375  0.00  0.00    +0.050 A 
ATOM     21  C   LIG    1       -7.924  -0.497  -5.072  0.00  0.00    -0.050 A 
ATOM     22  C   LIG    1       -7.183  -1.518  -4.508  0.00  0.00    +0.020 A 
ATOM     23  C   LIG    1       -6.639  -1.362  -3.247  0.00  0.00    +0.040 A 
BRANCH  21  24
ATOM     24  C   LIG    1       -8.516  -0.666  -6.448  0.00  0.00    +0.250 C 
BRANCH  24  25
ATOM     25  N   LIG    1       -9.860  -1.248  -6.335  0.00  0.00    -0.540 NA
ATOM     26  C   LIG    1       -9.797  -2.621  -5.816  0.00  0.00    +0.200 C 
ATOM     27  C   LIG    1      -11.217  -3.169  -5.657  0.00  0.00    +0.280 C 
ATOM     28  N   LIG    1      -11.898  -3.150  -6.958  0.00  0.00    -0.510 N 
ATOM     29  C   LIG    1      -11.975  -1.768  -7.452  0.00  0.00    +0.280 C 
ATOM     30  H   LIG    1      -11.381  -3.714  -7.616  0.00  0.00    +0.430 HD
ATOM     31  H   LIG    1      -12.830  -3.522  -6.855  0.00  0.00    +0.440 HD
ATOM     32  C   LIG    1      -10.561  -1.210  -7.626  0.00  0.00    +0.220 C 
ENDBRANCH  24  25
ENDBRANCH  21  24
ENDBRANCH  17  18
ENDBRANCH   1  17
TORSDOF 6
