REMARK  Name = ZINCpk00000e8Wlf.2
REMARK                            x       y       z     vdW  Elec       q    Type
REMARK                         _______ _______ _______ _____ _____    ______ ____
ROOT
ATOM      1  C   LIG    1       -0.969   1.728   2.160  0.00  0.00    +0.180 C 
ATOM      2  C   LIG    1        0.439   1.869   2.792  0.00  0.00    +0.230 C 
ATOM      3  N   LIG    1        1.284   2.285   1.649  0.00  0.00    -0.620 N 
ATOM      4  C   LIG    1        0.808   1.508   0.489  0.00  0.00    +0.260 C 
ATOM      5  C   LIG    1        2.283   3.189   1.665  0.00  0.00    +0.590 C 
ATOM      6  O   LIG    1        2.502   3.836   2.671  0.00  0.00    -0.530 OA
ATOM      7  C   LIG    1       -0.662   1.139   0.764  0.00  0.00    +0.000 C 
ATOM      8  C   LIG    1       -1.573   1.767  -0.293  0.00  0.00    +0.040 C 
ENDROOT
BRANCH   1  15
ATOM      9  C   LIG    1       -5.876  -1.191   3.669  0.00  0.00    +0.080 C 
ATOM     10  C   LIG    1       -4.548  -1.635   3.111  0.00  0.00    +0.510 C 
ATOM     11  N   LIG    1       -3.404  -1.271   3.723  0.00  0.00    -0.600 N 
ATOM     12  C   LIG    1       -3.488  -0.561   4.980  0.00  0.00    +0.280 C 
ATOM     13  C   LIG    1       -3.515   0.965   4.713  0.00  0.00    +0.020 C 
ATOM     14  C   LIG    1       -2.199   1.407   4.215  0.00  0.00    +0.170 C 
ATOM     15  N   LIG    1       -1.801   0.804   2.943  0.00  0.00    -0.510 NA
ATOM     16  C   LIG    1       -1.114  -0.450   3.165  0.00  0.00    +0.170 C 
ATOM     17  C   LIG    1       -2.119  -1.614   3.079  0.00  0.00    +0.270 C 
ATOM     18  O   LIG    1       -4.510  -2.320   2.111  0.00  0.00    -0.550 OA
ENDBRANCH   1  15
BRANCH   5  19
ATOM     19  C   LIG    1        3.112   3.394   0.462  0.00  0.00    -0.170 A 
ATOM     20  C   LIG    1        3.262   2.366  -0.471  0.00  0.00    +0.060 A 
ATOM     21  C   LIG    1        4.037   2.564  -1.594  0.00  0.00    -0.010 A 
ATOM     22  C   LIG    1        4.669   3.779  -1.801  0.00  0.00    +0.050 A 
ATOM     23  C   LIG    1        4.530   4.804  -0.886  0.00  0.00    -0.020 A 
ATOM     24  C   LIG    1        3.749   4.624   0.246  0.00  0.00    +0.170 A 
BRANCH  24  25
ATOM     25  O   LIG    1        3.608   5.631   1.143  0.00  0.00    -0.490 OA
ATOM     26  H   LIG    1        4.276   5.633   1.842  0.00  0.00    +0.400 HD
ENDBRANCH  24  25
ENDBRANCH   5  19
TORSDOF 3
