REMARK  Name = ZINCpk00000xIgK8.0
REMARK                            x       y       z     vdW  Elec       q    Type
REMARK                         _______ _______ _______ _____ _____    ______ ____
ROOT
ATOM      1  S   LIG    1        0.702   4.489   4.589  0.00  0.00    -0.100 S 
ENDROOT
BRANCH   1   2
ATOM      2  C   LIG    1        0.215   3.190   3.420  0.00  0.00    +0.070 C 
BRANCH   2   8
ATOM      3  C   LIG    1       -0.747   3.124  -1.240  0.00  0.00    +0.150 C 
ATOM      4  C   LIG    1       -1.474   3.642   0.004  0.00  0.00    +0.270 C 
ATOM      5  N   LIG    1       -0.858   3.043   1.196  0.00  0.00    -0.600 N 
ATOM      6  C   LIG    1       -0.731   1.581   1.267  0.00  0.00    +0.260 C 
ATOM      7  C   LIG    1       -0.013   1.086   0.008  0.00  0.00    +0.030 C 
ATOM      8  C   LIG    1       -0.416   3.820   2.205  0.00  0.00    +0.540 C 
ATOM      9  O   LIG    1       -0.525   5.026   2.134  0.00  0.00    -0.520 OA
ATOM     10  C   LIG    1       -0.754   1.593  -1.231  0.00  0.00    -0.010 C 
ATOM     11  C   LIG    1       -0.059   1.073  -2.490  0.00  0.00    +0.020 C 
BRANCH   3  13
ATOM     12  C   LIG    1        0.783   4.849  -1.894  0.00  0.00    +0.200 C 
ATOM     13  O   LIG    1        0.602   3.595  -1.235  0.00  0.00    -0.370 OA
ENDBRANCH   3  13
ENDBRANCH   2   8
ENDBRANCH   1   2
BRANCH   1  14
ATOM     14  C   LIG    1        1.428   3.550   5.962  0.00  0.00    +0.070 C 
BRANCH  14  15
ATOM     15  C   LIG    1        1.889   4.504   7.034  0.00  0.00    +0.540 C 
ATOM     16  N   LIG    1        2.465   4.029   8.156  0.00  0.00    -0.610 N 
ATOM     17  C   LIG    1        2.649   2.584   8.349  0.00  0.00    +0.270 C 
ATOM     18  C   LIG    1        4.122   2.313   8.669  0.00  0.00    +0.030 C 
ATOM     19  C   LIG    1        4.545   3.167   9.868  0.00  0.00    -0.010 C 
ATOM     20  C   LIG    1        4.391   4.649   9.520  0.00  0.00    +0.150 C 
ATOM     21  C   LIG    1        6.007   2.873  10.212  0.00  0.00    +0.040 C 
ATOM     22  C   LIG    1        2.925   4.947   9.207  0.00  0.00    +0.270 C 
ATOM     23  O   LIG    1        1.743   5.699   6.886  0.00  0.00    -0.510 OA
BRANCH  20  24
ATOM     24  O   LIG    1        4.815   5.445  10.628  0.00  0.00    -0.380 OA
ATOM     25  C   LIG    1        5.356   6.715  10.258  0.00  0.00    +0.200 C 
ENDBRANCH  20  24
ENDBRANCH  14  15
ENDBRANCH   1  14
TORSDOF 6
