REMARK  Name = ZINCpe000000UWt1.0
REMARK                            x       y       z     vdW  Elec       q    Type
REMARK                         _______ _______ _______ _____ _____    ______ ____
ROOT
ATOM      1  C   LIG    1        1.362   7.592   2.628  0.00  0.00    +0.180 C 
ATOM      2  C   LIG    1       -0.084   8.137   2.675  0.00  0.00    +0.090 C 
ATOM      3  C   LIG    1       -0.870   6.961   3.220  0.00  0.00    -0.130 A 
ATOM      4  C   LIG    1       -2.132   6.880   3.768  0.00  0.00    +0.030 A 
ATOM      5  C   LIG    1       -2.622   5.661   4.203  0.00  0.00    +0.010 A 
ATOM      6  C   LIG    1       -1.843   4.525   4.088  0.00  0.00    +0.020 A 
ATOM      7  C   LIG    1       -0.580   4.601   3.538  0.00  0.00    +0.040 A 
ATOM      8  C   LIG    1       -0.080   5.824   3.095  0.00  0.00    +0.080 A 
ATOM      9  N   LIG    1        1.153   6.133   2.508  0.00  0.00    -0.450 N 
ENDROOT
BRANCH   1  13
ATOM     10  C   LIG    1        3.998   9.266   0.415  0.00  0.00    +0.280 C 
ATOM     11  N   LIG    1        3.284   8.746   1.583  0.00  0.00    -0.720 N 
ATOM     12  H   LIG    1        3.666   8.846   2.469  0.00  0.00    +0.410 HD
ATOM     13  C   LIG    1        2.097   8.127   1.427  0.00  0.00    +0.520 C 
ATOM     14  O   LIG    1        1.619   8.002   0.319  0.00  0.00    -0.530 OA
ENDBRANCH   1  13
BRANCH   9  15
ATOM     15  C   LIG    1        1.188   5.710   1.102  0.00  0.00    +0.240 C 
BRANCH  15  16
ATOM     16  C   LIG    1        1.321   4.210   1.031  0.00  0.00    +0.520 C 
ATOM     17  N   LIG    1        1.241   3.582  -0.158  0.00  0.00    -0.610 N 
ATOM     18  O   LIG    1        1.501   3.569   2.045  0.00  0.00    -0.500 OA
BRANCH  17  19
ATOM     19  C   LIG    1        1.024   4.357  -1.383  0.00  0.00    +0.310 C 
BRANCH  19  20
ATOM     20  C   LIG    1       -0.477   4.491  -1.642  0.00  0.00    +0.170 C 
BRANCH  20  21
ATOM     21  C   LIG    1       -0.695   5.270  -2.872  0.00  0.00    +0.200 C 
ATOM     22  N   LIG    1       -0.863   5.870  -3.821  0.00  0.00    -0.420 NA
ENDBRANCH  20  21
ENDBRANCH  19  20
ENDBRANCH  17  19
BRANCH  17  23
ATOM     23  C   LIG    1        1.371   2.124  -0.227  0.00  0.00    +0.310 C 
BRANCH  23  24
ATOM     24  C   LIG    1       -0.010   1.482  -0.084  0.00  0.00    +0.170 C 
BRANCH  24  25
ATOM     25  C   LIG    1        0.120   0.017  -0.153  0.00  0.00    +0.200 C 
ATOM     26  N   LIG    1        0.221  -1.113  -0.206  0.00  0.00    -0.420 NA
ENDBRANCH  24  25
ENDBRANCH  23  24
ENDBRANCH  17  23
ENDBRANCH  15  16
ENDBRANCH   9  15
TORSDOF 9
