REMARK  Name = ZINCBI0000000hwi.1
REMARK                            x       y       z     vdW  Elec       q    Type
REMARK                         _______ _______ _______ _____ _____    ______ ____
ROOT
ATOM      1  N   LIG    1        7.701   2.090  -3.035  0.00  0.00    -0.500 N 
ATOM      2  C   LIG    1        6.567   1.476  -2.511  0.00  0.00    +0.590 C 
ATOM      3  C   LIG    1        6.707   0.069  -2.079  0.00  0.00    -0.290 C 
ATOM      4  C   LIG    1        7.719  -0.691  -2.659  0.00  0.00    +0.330 C 
ATOM      5  C   LIG    1        8.580  -0.088  -3.587  0.00  0.00    -0.350 A 
ATOM      6  C   LIG    1        9.500  -0.863  -4.340  0.00  0.00    +0.560 A 
ATOM      7  O   LIG    1        9.584  -2.066  -4.172  0.00  0.00    -0.460 OA
ATOM      8  N   LIG    1       10.281  -0.235  -5.247  0.00  0.00    -0.430 N 
ATOM      9  C   LIG    1       11.165  -0.968  -5.983  0.00  0.00    +0.320 A 
ATOM     10  C   LIG    1       11.955  -0.376  -6.907  0.00  0.00    +0.030 A 
ATOM     11  C   LIG    1       11.873   1.007  -7.119  0.00  0.00    +0.190 A 
ATOM     12  C   LIG    1       10.995   1.749  -6.386  0.00  0.00    +0.040 A 
ATOM     13  C   LIG    1       10.184   1.117  -5.426  0.00  0.00    +0.450 A 
ATOM     14  N   LIG    1        9.335   1.856  -4.710  0.00  0.00    -0.560 NA
ATOM     15  C   LIG    1        8.546   1.311  -3.798  0.00  0.00    +0.500 A 
ENDROOT
BRANCH   3  16
ATOM     16  C   LIG    1        5.806  -0.509  -1.076  0.00  0.00    +0.590 C 
ATOM     17  N   LIG    1        5.890  -1.819  -0.770  0.00  0.00    -0.710 N 
ATOM     18  H   LIG    1        6.484  -2.397  -1.273  0.00  0.00    +0.400 HD
ATOM     19  O   LIG    1        4.982   0.194  -0.521  0.00  0.00    -0.540 OA
BRANCH  17  20
ATOM     20  C   LIG    1        5.082  -2.369   0.322  0.00  0.00    +0.290 C 
ATOM     21  C   LIG    1        3.692  -2.731  -0.204  0.00  0.00    +0.050 C 
BRANCH  20  22
ATOM     22  C   LIG    1        5.751  -3.605   0.867  0.00  0.00    -0.100 A 
ATOM     23  C   LIG    1        5.765  -3.838   2.229  0.00  0.00    +0.030 A 
ATOM     24  C   LIG    1        6.378  -4.972   2.730  0.00  0.00    +0.020 A 
ATOM     25  C   LIG    1        6.975  -5.873   1.868  0.00  0.00    +0.020 A 
ATOM     26  C   LIG    1        6.960  -5.639   0.505  0.00  0.00    +0.020 A 
ATOM     27  C   LIG    1        6.349  -4.505   0.005  0.00  0.00    +0.000 A 
ENDBRANCH  20  22
ENDBRANCH  17  20
ENDBRANCH   3  16
BRANCH   2  28
ATOM     28  N   LIG    1        5.430   2.114  -2.402  0.00  0.00    -0.700 NA
ATOM     29  H   LIG    1        5.382   3.061  -2.610  0.00  0.00    +0.430 HD
ATOM     30  H   LIG    1        4.634   1.641  -2.112  0.00  0.00    +0.460 HD
ENDBRANCH   2  28
BRANCH   1  31
ATOM     31  C   LIG    1        7.984   3.507  -2.792  0.00  0.00    +0.330 C 
BRANCH  31  32
ATOM     32  C   LIG    1        7.338   4.352  -3.891  0.00  0.00    +0.080 C 
BRANCH  32  36
ATOM     33  C   LIG    1        8.163   8.485  -3.182  0.00  0.00    +0.140 A 
ATOM     34  C   LIG    1        9.030   7.725  -3.953  0.00  0.00    -0.010 A 
ATOM     35  C   LIG    1        8.762   6.389  -4.181  0.00  0.00    +0.070 A 
ATOM     36  C   LIG    1        7.629   5.809  -3.641  0.00  0.00    -0.140 A 
ATOM     37  C   LIG    1        6.759   6.565  -2.876  0.00  0.00    +0.050 A 
ATOM     38  C   LIG    1        7.027   7.900  -2.641  0.00  0.00    -0.080 A 
BRANCH  33  40
ATOM     39  C   LIG    1        7.488  10.519  -2.153  0.00  0.00    +0.250 C 
ATOM     40  O   LIG    1        8.425   9.799  -2.957  0.00  0.00    -0.310 OA
ENDBRANCH  33  40
ENDBRANCH  32  36
ENDBRANCH  31  32
ENDBRANCH   1  31
TORSDOF 8
