REMARK  Name = ZINCrD0000075ouK.0
REMARK                            x       y       z     vdW  Elec       q    Type
REMARK                         _______ _______ _______ _____ _____    ______ ____
ROOT
ATOM      1  C   LIG    1       -5.681   0.616   1.502  0.00  0.00    +0.110 C 
ENDROOT
BRANCH   1   3
ATOM      2  O   LIG    1       -5.376   0.607   3.838  0.00  0.00    -0.510 OA
ATOM      3  C   LIG    1       -6.170   0.601   2.928  0.00  0.00    +0.470 C 
BRANCH   3   4
ATOM      4  O   LIG    1       -7.487   0.582   3.185  0.00  0.00    -0.350 OA
BRANCH   4   5
ATOM      5  C   LIG    1       -7.885   0.569   4.582  0.00  0.00    +0.260 C 
BRANCH   5   6
ATOM      6  C   LIG    1       -9.412   0.547   4.676  0.00  0.00    +0.230 C 
BRANCH   6   7
ATOM      7  O   LIG    1       -9.906  -0.677   4.130  0.00  0.00    -0.300 OA
BRANCH   7   8
ATOM      8  C   LIG    1      -11.253  -0.857   4.138  0.00  0.00    +0.140 A 
ATOM      9  C   LIG    1      -12.082   0.125   4.659  0.00  0.00    -0.060 A 
ATOM     10  C   LIG    1      -13.452  -0.060   4.665  0.00  0.00    +0.060 A 
ATOM     11  C   LIG    1      -13.996  -1.223   4.153  0.00  0.00    -0.020 A 
ATOM     12  C   LIG    1      -13.172  -2.204   3.632  0.00  0.00    +0.070 A 
ATOM     13  C   LIG    1      -11.803  -2.022   3.618  0.00  0.00    -0.070 A 
ATOM     14 CL   LIG    1      -10.769  -3.250   2.957  0.00  0.00    -0.050 Cl
ENDBRANCH   7   8
ENDBRANCH   6   7
ENDBRANCH   5   6
ENDBRANCH   4   5
ENDBRANCH   3   4
ENDBRANCH   1   3
BRANCH   1  15
ATOM     15  C   LIG    1       -4.151   0.636   1.488  0.00  0.00    +0.030 C 
BRANCH  15  16
ATOM     16  C   LIG    1       -3.655   0.651   0.040  0.00  0.00    +0.310 C 
BRANCH  16  17
ATOM     17  N   LIG    1       -2.190   0.671   0.027  0.00  0.00    -0.580 N 
ATOM     18  C   LIG    1       -1.444   1.790   0.031  0.00  0.00    +0.580 C 
ATOM     19  C   LIG    1       -0.017   1.406   0.010  0.00  0.00    -0.140 A 
ATOM     20  C   LIG    1        1.175   2.111   0.002  0.00  0.00    +0.100 A 
ATOM     21  C   LIG    1        2.380   1.424  -0.013  0.00  0.00    +0.050 A 
ATOM     22  C   LIG    1        2.399   0.043  -0.021  0.00  0.00    +0.050 A 
ATOM     23  C   LIG    1        1.213  -0.676  -0.013  0.00  0.00    +0.100 A 
ATOM     24  C   LIG    1        0.002  -0.004   0.002  0.00  0.00    -0.140 A 
ATOM     25  O   LIG    1       -1.871   2.927   0.044  0.00  0.00    -0.460 OA
ATOM     26  C   LIG    1       -1.414  -0.428   0.013  0.00  0.00    +0.580 C 
ATOM     27  O   LIG    1       -1.810  -1.576   0.011  0.00  0.00    -0.460 OA
ENDBRANCH  16  17
ENDBRANCH  15  16
ENDBRANCH   1  15
TORSDOF 9
