REMARK  Name = ZINCqH000003911n.0
REMARK                            x       y       z     vdW  Elec       q    Type
REMARK                         _______ _______ _______ _____ _____    ______ ____
ROOT
ATOM      1  C   LIG    1        3.499   7.858   3.247  0.00  0.00    +0.220 C 
ATOM      2  C   LIG    1        2.103   7.849   2.620  0.00  0.00    +0.190 C 
ATOM      3  N   LIG    1        1.752   6.474   2.235  0.00  0.00    -0.550 NA
ATOM      4  C   LIG    1        2.735   5.933   1.284  0.00  0.00    +0.170 C 
ATOM      5  C   LIG    1        4.125   5.960   1.925  0.00  0.00    +0.240 C 
ATOM      6  O   LIG    1        4.435   7.299   2.321  0.00  0.00    -0.370 OA
ENDROOT
BRANCH   1  11
ATOM      7  F   LIG    1        4.986  13.143   4.461  0.00  0.00    -0.140 F 
ATOM      8  C   LIG    1        4.629  11.873   4.170  0.00  0.00    +0.100 A 
ATOM      9  C   LIG    1        4.150  11.042   5.168  0.00  0.00    -0.010 A 
ATOM     10  C   LIG    1        3.785   9.743   4.868  0.00  0.00    +0.070 A 
ATOM     11  C   LIG    1        3.897   9.274   3.572  0.00  0.00    -0.100 A 
ATOM     12  C   LIG    1        4.380  10.102   2.576  0.00  0.00    +0.080 A 
ATOM     13  C   LIG    1        4.741  11.403   2.872  0.00  0.00    -0.020 A 
ENDBRANCH   1  11
BRANCH   3  14
ATOM     14  C   LIG    1        0.394   6.413   1.679  0.00  0.00    +0.530 C 
BRANCH  14  15
ATOM     15  N   LIG    1       -0.145   5.062   1.853  0.00  0.00    -0.360 N 
ATOM     16  N   LIG    1       -0.611   4.501   3.050  0.00  0.00    -0.260 NA
ATOM     17  C   LIG    1       -1.005   3.293   2.802  0.00  0.00    +0.310 A 
ATOM     18  N   LIG    1       -0.816   3.030   1.468  0.00  0.00    -0.460 N 
ATOM     19  C   LIG    1       -0.279   4.125   0.892  0.00  0.00    +0.460 A 
ATOM     20  S   LIG    1        0.149   4.295  -0.757  0.00  0.00    -0.580 S 
BRANCH  18  21
ATOM     21  C   LIG    1       -1.136   1.773   0.788  0.00  0.00    +0.190 C 
ATOM     22  C   LIG    1       -0.029   1.117  -0.041  0.00  0.00    +0.060 C 
ATOM     23  C   LIG    1       -1.209   1.795  -0.741  0.00  0.00    +0.080 C 
ENDBRANCH  18  21
BRANCH  17  24
ATOM     24  C   LIG    1       -1.580   2.334   3.812  0.00  0.00    +0.030 C 
ATOM     25  C   LIG    1       -2.611   2.882   4.801  0.00  0.00    +0.070 C 
ATOM     26  C   LIG    1       -1.197   2.540   5.279  0.00  0.00    +0.080 C 
ENDBRANCH  17  24
ENDBRANCH  14  15
ENDBRANCH   3  14
TORSDOF 5
