REMARK  Name = ZINCtV00001bB3CA.0
REMARK                            x       y       z     vdW  Elec       q    Type
REMARK                         _______ _______ _______ _____ _____    ______ ____
ROOT
ATOM      1  C   LIG    1       -2.576   1.125   0.025  0.00  0.00    +0.350 C 
ENDROOT
BRANCH   1   2
ATOM      2  C   LIG    1       -2.937   0.869   1.466  0.00  0.00    -0.090 A 
ATOM      3  C   LIG    1       -3.689   1.795   2.164  0.00  0.00    +0.020 A 
ATOM      4  C   LIG    1       -4.023   1.563   3.486  0.00  0.00    +0.020 A 
ATOM      5  C   LIG    1       -3.606   0.404   4.112  0.00  0.00    +0.000 A 
ATOM      6  C   LIG    1       -2.851  -0.527   3.413  0.00  0.00    +0.080 A 
ATOM      7  C   LIG    1       -2.522  -0.294   2.085  0.00  0.00    +0.050 A 
BRANCH   6   8
ATOM      8  O   LIG    1       -2.439  -1.668   4.026  0.00  0.00    -0.250 OA
BRANCH   8   9
ATOM      9  C   LIG    1       -3.384  -2.579   4.378  0.00  0.00    +0.140 A 
ATOM     10  C   LIG    1       -4.706  -2.390   4.003  0.00  0.00    -0.050 A 
ATOM     11  C   LIG    1       -5.664  -3.321   4.357  0.00  0.00    +0.070 A 
ATOM     12  C   LIG    1       -5.308  -4.435   5.094  0.00  0.00    +0.000 A 
ATOM     13  C   LIG    1       -3.990  -4.623   5.475  0.00  0.00    +0.000 A 
ATOM     14 CL   LIG    1       -3.547  -6.024   6.400  0.00  0.00    -0.060 Cl
ATOM     15  C   LIG    1       -3.028  -3.698   5.118  0.00  0.00    +0.000 A 
ENDBRANCH   8   9
ENDBRANCH   6   8
ENDBRANCH   1   2
BRANCH   1  16
ATOM     16  N   LIG    1       -1.300   1.843  -0.038  0.00  0.00    -0.600 N 
ATOM     17  C   LIG    1       -0.143   1.157  -0.104  0.00  0.00    +0.550 C 
ATOM     18  O   LIG    1       -0.156  -0.059  -0.112  0.00  0.00    -0.540 OA
BRANCH  17  19
ATOM     19  C   LIG    1        1.137   1.878  -0.174  0.00  0.00    -0.090 C 
ATOM     20  C   LIG    1        2.280   1.201  -0.245  0.00  0.00    +0.140 C 
ENDBRANCH  17  19
BRANCH  16  21
ATOM     21  C   LIG    1       -1.284   3.308  -0.029  0.00  0.00    +0.270 C 
BRANCH  21  25
ATOM     22  C   LIG    1       -0.270   5.460  -3.644  0.00  0.00    +0.110 C 
ATOM     23  C   LIG    1       -1.534   5.874  -2.889  0.00  0.00    +0.030 C 
ATOM     24  C   LIG    1       -1.463   5.354  -1.451  0.00  0.00    +0.030 C 
ATOM     25  C   LIG    1       -1.355   3.828  -1.466  0.00  0.00    -0.030 C 
ATOM     26  C   LIG    1       -0.090   3.414  -2.221  0.00  0.00    +0.020 C 
ATOM     27  C   LIG    1       -0.162   3.934  -3.658  0.00  0.00    +0.030 C 
BRANCH  22  29
ATOM     28  C   LIG    1       -0.393   6.359  -6.130  0.00  0.00    +0.010 C 
ATOM     29  C   LIG    1       -0.338   5.960  -5.027  0.00  0.00    -0.190 C 
ENDBRANCH  22  29
ENDBRANCH  21  25
ENDBRANCH  16  21
ENDBRANCH   1  16
TORSDOF 8
