REMARK  Name = ZINCpe000000YKfC.0
REMARK                            x       y       z     vdW  Elec       q    Type
REMARK                         _______ _______ _______ _____ _____    ______ ____
ROOT
ATOM      1  N   LIG    1       -3.084   3.890   1.409  0.00  0.00    -0.720 N 
ATOM      2  H   LIG    1       -2.590   3.466   2.129  0.00  0.00    +0.400 HD
ATOM      3  C   LIG    1       -4.259   4.498   1.666  0.00  0.00    +0.560 C 
ATOM      4  O   LIG    1       -4.878   5.029   0.764  0.00  0.00    -0.510 OA
ENDROOT
BRANCH   3   5
ATOM      5  C   LIG    1       -4.796   4.519   3.043  0.00  0.00    -0.110 A 
ATOM      6  C   LIG    1       -4.087   3.911   4.080  0.00  0.00    +0.040 A 
ATOM      7  C   LIG    1       -4.590   3.932   5.365  0.00  0.00    +0.060 A 
ATOM      8  C   LIG    1       -5.795   4.555   5.630  0.00  0.00    +0.030 A 
ATOM      9  C   LIG    1       -6.509   5.164   4.604  0.00  0.00    +0.150 A 
ATOM     10  C   LIG    1       -6.009   5.153   3.312  0.00  0.00    +0.100 A 
BRANCH   9  11
ATOM     11  N   LIG    1       -7.731   5.794   4.878  0.00  0.00    -0.340 N 
ATOM     12  C   LIG    1       -8.294   5.974   6.089  0.00  0.00    +0.480 A 
ATOM     13  N   LIG    1       -9.428   6.602   5.919  0.00  0.00    -0.530 NA
ATOM     14  C   LIG    1       -9.624   6.840   4.623  0.00  0.00    +0.440 A 
ATOM     15  N   LIG    1       -8.609   6.370   3.946  0.00  0.00    -0.310 NA
ENDBRANCH   9  11
ENDBRANCH   3   5
BRANCH   1  16
ATOM     16  C   LIG    1       -2.553   3.869   0.044  0.00  0.00    +0.330 C 
BRANCH  16  22
ATOM     17  C   LIG    1       -1.219   1.750   0.017  0.00  0.00    -0.670 A 
ATOM     18  C   LIG    1       -0.013   1.076   0.008  0.00  0.00    +0.130 A 
ATOM     19  C   LIG    1        1.175   1.783   0.000  0.00  0.00    +0.010 A 
ATOM     20  C   LIG    1        1.157   3.165   0.008  0.00  0.00    +0.080 A 
ATOM     21  C   LIG    1       -0.050   3.840   0.023  0.00  0.00    +0.020 A 
ATOM     22  C   LIG    1       -1.238   3.133   0.029  0.00  0.00    -0.010 A 
BRANCH  17  23
ATOM     23  S   LIG    1       -2.733   0.849   0.020  0.00  0.00    +2.700 S 
ATOM     24  O   LIG    1       -2.380  -0.527   0.045  0.00  0.00    -0.960 OA
ATOM     25  O   LIG    1       -3.544   1.425  -0.995  0.00  0.00    -0.950 OA
BRANCH  23  26
ATOM     26  N   LIG    1       -3.489   1.165   1.458  0.00  0.00    -1.240 NA
ATOM     27  H   LIG    1       -2.964   1.362   2.250  0.00  0.00    +0.410 HD
ATOM     28  H   LIG    1       -4.458   1.152   1.510  0.00  0.00    +0.420 HD
ENDBRANCH  23  26
ENDBRANCH  17  23
ENDBRANCH  16  22
ENDBRANCH   1  16
TORSDOF 6
