REMARK  Name = ZINCrg000000saEY.0
REMARK                            x       y       z     vdW  Elec       q    Type
REMARK                         _______ _______ _______ _____ _____    ______ ____
ROOT
ATOM      1  N   LIG    1        0.471   6.536  -0.147  0.00  0.00    -0.670 N 
ATOM      2  H   LIG    1       -0.492   6.424  -0.147  0.00  0.00    +0.420 HD
ATOM      3  C   LIG    1        1.006   7.770  -0.236  0.00  0.00    +0.510 C 
ATOM      4  O   LIG    1        2.208   7.917  -0.157  0.00  0.00    -0.500 OA
ENDROOT
BRANCH   1   9
ATOM      5  C   LIG    1        3.865   2.001   0.236  0.00  0.00    +0.110 C 
ATOM      6  C   LIG    1        2.964   3.204   0.133  0.00  0.00    -0.060 A 
ATOM      7  C   LIG    1        3.328   4.393   0.736  0.00  0.00    +0.050 A 
ATOM      8  C   LIG    1        2.503   5.498   0.644  0.00  0.00    +0.060 A 
ATOM      9  C   LIG    1        1.306   5.417  -0.055  0.00  0.00    +0.160 A 
ATOM     10  C   LIG    1        0.941   4.226  -0.667  0.00  0.00    +0.010 A 
ATOM     11  C   LIG    1        1.768   3.117  -0.568  0.00  0.00    +0.130 A 
BRANCH  11  12
ATOM     12  N   LIG    1        1.399   1.909  -1.180  0.00  0.00    -0.330 N 
ATOM     13  C   LIG    1        0.212   1.271  -1.086  0.00  0.00    +0.470 A 
ATOM     14  N   LIG    1        0.296   0.187  -1.811  0.00  0.00    -0.330 NA
ATOM     15  N   LIG    1        1.456   0.095  -2.356  0.00  0.00    -0.040 NA
ATOM     16  N   LIG    1        2.186   1.104  -2.022  0.00  0.00    -0.070 NA
ENDBRANCH  11  12
ENDBRANCH   1   9
BRANCH   3  17
ATOM     17  C   LIG    1        0.112   8.966  -0.434  0.00  0.00    +0.340 C 
BRANCH  17  18
ATOM     18  N   LIG    1        0.929  10.181  -0.499  0.00  0.00    -0.560 N 
ATOM     19  C   LIG    1        1.422  10.665  -1.647  0.00  0.00    +0.530 C 
ATOM     20  C   LIG    1        2.150  11.973  -1.357  0.00  0.00    +0.030 C 
ATOM     21  C   LIG    1        1.410  13.085  -2.073  0.00  0.00    +0.040 C 
ATOM     22  C   LIG    1        1.461  14.409  -1.340  0.00  0.00    +0.030 C 
ATOM     23  C   LIG    1        0.885  14.212   0.069  0.00  0.00    +0.020 C 
ATOM     24  C   LIG    1        1.854  13.323   0.843  0.00  0.00    +0.060 C 
ATOM     25  C   LIG    1        2.148  12.030   0.154  0.00  0.00    +0.000 C 
ATOM     26  O   LIG    1        1.309  10.148  -2.738  0.00  0.00    -0.470 OA
ATOM     27  C   LIG    1        1.242  10.907   0.587  0.00  0.00    +0.540 C 
ATOM     28  O   LIG    1        0.862  10.695   1.719  0.00  0.00    -0.470 OA
ENDBRANCH  17  18
ENDBRANCH   3  17
TORSDOF 4
