REMARK  Name = ZINCrg000000rRzF.0
REMARK                            x       y       z     vdW  Elec       q    Type
REMARK                         _______ _______ _______ _____ _____    ______ ____
ROOT
ATOM      1  N   LIG    1       -2.008   0.457   3.311  0.00  0.00    -0.720 N 
ATOM      2  H   LIG    1       -2.529   1.269   3.407  0.00  0.00    +0.410 HD
ATOM      3  C   LIG    1       -1.535   0.100   2.100  0.00  0.00    +0.530 C 
ATOM      4  O   LIG    1       -0.883  -0.916   1.979  0.00  0.00    -0.530 OA
ENDROOT
BRANCH   3   5
ATOM      5  C   LIG    1       -1.815   0.963   0.897  0.00  0.00    +0.000 C 
ATOM      6  C   LIG    1       -3.320   0.940   0.534  0.00  0.00    +0.090 C 
ATOM      7  C   LIG    1       -3.338   0.965  -0.978  0.00  0.00    +0.530 C 
ATOM      8  N   LIG    1       -2.126   0.643  -1.460  0.00  0.00    -0.580 N 
ATOM      9  O   LIG    1       -4.306   1.236  -1.657  0.00  0.00    -0.510 OA
ATOM     10  C   LIG    1       -1.178   0.362  -0.375  0.00  0.00    +0.310 C 
BRANCH   8  11
ATOM     11  C   LIG    1       -1.808   0.583  -2.822  0.00  0.00    +0.170 A 
ATOM     12  C   LIG    1       -1.961  -0.607  -3.520  0.00  0.00    +0.040 A 
ATOM     13  C   LIG    1       -1.651  -0.662  -4.865  0.00  0.00    +0.040 A 
ATOM     14  C   LIG    1       -1.178   0.464  -5.514  0.00  0.00    +0.030 A 
ATOM     15  C   LIG    1       -1.019   1.650  -4.821  0.00  0.00    +0.050 A 
ATOM     16  C   LIG    1       -1.332   1.713  -3.476  0.00  0.00    -0.090 A 
ATOM     17 BR   LIG    1       -1.113   3.334  -2.528  0.00  0.00    -0.040 Br
ENDBRANCH   8  11
ENDBRANCH   3   5
BRANCH   1  18
ATOM     18  C   LIG    1       -1.735  -0.383   4.480  0.00  0.00    +0.240 C 
BRANCH  18  20
ATOM     19  C   LIG    1       -3.892   0.349   5.508  0.00  0.00    +0.080 C 
ATOM     20  C   LIG    1       -2.380   0.243   5.718  0.00  0.00    +0.130 C 
BRANCH  20  21
ATOM     21  O   LIG    1       -1.837   1.548   5.931  0.00  0.00    -0.550 OA
ATOM     22  H   LIG    1       -0.880   1.557   6.072  0.00  0.00    +0.380 HD
ENDBRANCH  20  21
BRANCH  20  23
ATOM     23  C   LIG    1       -2.096  -0.633   6.940  0.00  0.00    +0.160 C 
BRANCH  23  24
ATOM     24  N   LIG    1       -2.828  -0.108   8.100  0.00  0.00    -0.530 NA
ATOM     25  C   LIG    1       -2.196   1.116   8.612  0.00  0.00    +0.160 C 
ATOM     26  C   LIG    1       -3.022   1.661   9.780  0.00  0.00    +0.220 C 
ATOM     27  O   LIG    1       -3.140   0.651  10.786  0.00  0.00    -0.390 OA
ATOM     28  C   LIG    1       -3.752  -0.556  10.322  0.00  0.00    +0.220 C 
ATOM     29  C   LIG    1       -2.933  -1.123   9.159  0.00  0.00    +0.140 C 
ENDBRANCH  23  24
ENDBRANCH  20  23
ENDBRANCH  18  20
ENDBRANCH   1  18
TORSDOF 7
