REMARK  Name = ZINCrD000000Ch6u.1
REMARK                            x       y       z     vdW  Elec       q    Type
REMARK                         _______ _______ _______ _____ _____    ______ ____
ROOT
ATOM      1  C   LIG    1        0.053   1.141   2.399  0.00  0.00    +0.160 C 
ATOM      2  C   LIG    1        1.523   1.613   2.318  0.00  0.00    +0.100 C 
ATOM      3  C   LIG    1        1.468   2.950   3.090  0.00  0.00    +0.290 C 
ATOM      4  N   LIG    1        0.326   2.826   4.005  0.00  0.00    -0.540 N 
ATOM      5  C   LIG    1       -0.488   1.822   3.637  0.00  0.00    +0.500 C 
ATOM      6  O   LIG    1       -1.508   1.508   4.213  0.00  0.00    -0.460 OA
ENDROOT
BRANCH   1  11
ATOM      7  C   LIG    1       -2.905   1.754   0.173  0.00  0.00    +0.010 C 
ATOM      8  C   LIG    1       -2.370   1.102  -1.105  0.00  0.00    +0.050 C 
ATOM      9  C   LIG    1       -0.872   1.397  -1.229  0.00  0.00    +0.060 C 
ATOM     10  C   LIG    1       -0.154   0.892   0.024  0.00  0.00    +0.250 C 
ATOM     11  N   LIG    1       -0.692   1.571   1.209  0.00  0.00    -0.370 N 
ATOM     12  H   LIG    1       -0.595   2.569   1.096  0.00  0.00    +0.430 HD
ATOM     13  C   LIG    1       -2.111   1.235   1.374  0.00  0.00    +0.250 C 
BRANCH   7  14
ATOM     14  C   LIG    1       -2.751   3.273   0.075  0.00  0.00    +0.020 C 
BRANCH  14  15
ATOM     15  C   LIG    1       -3.639   3.804  -1.051  0.00  0.00    -0.060 C 
BRANCH  15  17
ATOM     16  O   LIG    1       -2.739   5.888  -0.386  0.00  0.00    -0.700 OA
ATOM     17  C   LIG    1       -3.488   5.300  -1.147  0.00  0.00    +0.490 C 
ATOM     18  O   LIG    1       -4.114   5.924  -1.987  0.00  0.00    -0.690 OA
ENDBRANCH  15  17
ENDBRANCH  14  15
ENDBRANCH   7  14
ENDBRANCH   1  11
BRANCH   4  19
ATOM     19  C   LIG    1        0.113   3.649   5.116  0.00  0.00    +0.180 A 
ATOM     20  C   LIG    1       -0.938   3.386   5.985  0.00  0.00    +0.010 A 
ATOM     21  C   LIG    1       -1.143   4.197   7.085  0.00  0.00    +0.110 A 
ATOM     22  C   LIG    1       -0.310   5.276   7.314  0.00  0.00    -0.190 A 
ATOM     23  C   LIG    1        0.734   5.545   6.447  0.00  0.00    +0.110 A 
ATOM     24  C   LIG    1        0.947   4.734   5.349  0.00  0.00    -0.010 A 
BRANCH  22  25
ATOM     25  C   LIG    1       -0.540   6.163   8.511  0.00  0.00    +0.510 C 
ATOM     26  F   LIG    1        0.680   6.697   8.937  0.00  0.00    -0.180 F 
ATOM     27  F   LIG    1       -1.108   5.411   9.545  0.00  0.00    -0.180 F 
ATOM     28  F   LIG    1       -1.407   7.203   8.160  0.00  0.00    -0.170 F 
ENDBRANCH  22  25
ENDBRANCH   4  19
TORSDOF 6
