REMARK  Name = ZINCrD000000Ch6u.0
REMARK                            x       y       z     vdW  Elec       q    Type
REMARK                         _______ _______ _______ _____ _____    ______ ____
ROOT
ATOM      1  C   LIG    1        4.313  -4.451   0.265  0.00  0.00    +0.170 C 
ATOM      2  C   LIG    1        4.908  -3.922   1.591  0.00  0.00    +0.090 C 
ATOM      3  C   LIG    1        5.772  -5.119   2.048  0.00  0.00    +0.310 C 
ATOM      4  N   LIG    1        5.162  -6.301   1.428  0.00  0.00    -0.540 N 
ATOM      5  C   LIG    1        4.343  -5.956   0.419  0.00  0.00    +0.510 C 
ATOM      6  O   LIG    1        3.718  -6.737  -0.266  0.00  0.00    -0.470 OA
ENDROOT
BRANCH   1  11
ATOM      7  C   LIG    1        1.471  -2.014   0.011  0.00  0.00    -0.020 C 
ATOM      8  C   LIG    1        0.844  -2.527  -1.289  0.00  0.00    +0.040 C 
ATOM      9  C   LIG    1        0.935  -4.055  -1.320  0.00  0.00    +0.050 C 
ATOM     10  C   LIG    1        2.399  -4.477  -1.177  0.00  0.00    +0.260 C 
ATOM     11  N   LIG    1        2.933  -3.979   0.097  0.00  0.00    -0.370 N 
ATOM     12  H   LIG    1        2.366  -4.325   0.856  0.00  0.00    +0.420 HD
ATOM     13  C   LIG    1        2.915  -2.511   0.104  0.00  0.00    +0.250 C 
BRANCH   7  14
ATOM     14  C   LIG    1        1.455  -0.484   0.017  0.00  0.00    +0.060 C 
BRANCH  14  15
ATOM     15  C   LIG    1        0.008   0.011   0.049  0.00  0.00    -0.070 C 
BRANCH  15  17
ATOM     16  O   LIG    1        1.042   2.138   0.035  0.00  0.00    -0.700 OA
ATOM     17  C   LIG    1       -0.007   1.518   0.054  0.00  0.00    +0.490 C 
ATOM     18  O   LIG    1       -1.069   2.117   0.073  0.00  0.00    -0.700 OA
ENDBRANCH  15  17
ENDBRANCH  14  15
ENDBRANCH   7  14
ENDBRANCH   1  11
BRANCH   4  19
ATOM     19  C   LIG    1        5.404  -7.618   1.833  0.00  0.00    +0.180 A 
ATOM     20  C   LIG    1        4.869  -8.678   1.112  0.00  0.00    +0.020 A 
ATOM     21  C   LIG    1        5.113  -9.977   1.512  0.00  0.00    +0.110 A 
ATOM     22  C   LIG    1        5.880 -10.223   2.635  0.00  0.00    -0.190 A 
ATOM     23  C   LIG    1        6.411  -9.171   3.358  0.00  0.00    +0.110 A 
ATOM     24  C   LIG    1        6.175  -7.869   2.961  0.00  0.00    -0.010 A 
BRANCH  22  25
ATOM     25  C   LIG    1        6.139 -11.642   3.072  0.00  0.00    +0.510 C 
ATOM     26  F   LIG    1        7.381 -11.713   3.713  0.00  0.00    -0.170 F 
ATOM     27  F   LIG    1        6.144 -12.482   1.953  0.00  0.00    -0.170 F 
ATOM     28  F   LIG    1        5.134 -12.048   3.957  0.00  0.00    -0.170 F 
ENDBRANCH  22  25
ENDBRANCH   4  19
TORSDOF 6
