REMARK  Name = ZINCpk00000KfLSh.0
REMARK                            x       y       z     vdW  Elec       q    Type
REMARK                         _______ _______ _______ _____ _____    ______ ____
ROOT
ATOM      1  C   LIG    1       -0.920  -6.285  -2.559  0.00  0.00    +0.240 A 
ATOM      2  N   LIG    1       -1.498  -5.112  -2.726  0.00  0.00    -0.430 NA
ATOM      3  C   LIG    1       -0.696  -4.222  -2.104  0.00  0.00    +0.150 A 
ATOM      4  N   LIG    1        0.313  -4.888  -1.607  0.00  0.00    -0.340 NA
ATOM      5  O   LIG    1        0.200  -6.070  -1.852  0.00  0.00    +0.100 OA
ENDROOT
BRANCH   3   6
ATOM      6  C   LIG    1       -0.915  -2.757  -2.009  0.00  0.00    +0.610 C 
ATOM      7  N   LIG    1       -0.114  -2.005  -1.228  0.00  0.00    -0.590 N 
ATOM      8  C   LIG    1        0.881  -2.635  -0.350  0.00  0.00    +0.280 C 
ATOM      9  C   LIG    1        0.675  -2.120   1.078  0.00  0.00    +0.030 C 
ATOM     10  C   LIG    1        0.718  -0.590   1.075  0.00  0.00    +0.020 C 
ATOM     11  C   LIG    1       -0.413  -0.048   0.199  0.00  0.00    +0.220 C 
ATOM     12  C   LIG    1       -0.219  -0.539  -1.239  0.00  0.00    +0.280 C 
ATOM     13  O   LIG    1       -1.817  -2.236  -2.634  0.00  0.00    -0.490 OA
BRANCH  11  14
ATOM     14  N   LIG    1       -0.390   1.417   0.222  0.00  0.00    -0.730 N 
ATOM     15  H   LIG    1        0.435   1.886   0.419  0.00  0.00    +0.400 HD
ATOM     16  C   LIG    1       -1.516   2.112  -0.035  0.00  0.00    +0.510 C 
ATOM     17  O   LIG    1       -2.547   1.526  -0.286  0.00  0.00    -0.540 OA
ATOM     18  C   LIG    1       -1.492   3.619  -0.011  0.00  0.00    +0.100 C 
ENDBRANCH  11  14
ENDBRANCH   3   6
BRANCH   1  23
ATOM     19  C   LIG    1       -1.153  -9.970  -3.271  0.00  0.00    +0.130 A 
ATOM     20  C   LIG    1       -2.338 -10.028  -3.993  0.00  0.00    -0.040 A 
ATOM     21  C   LIG    1       -3.057  -8.874  -4.246  0.00  0.00    +0.060 A 
ATOM     22  C   LIG    1       -2.604  -7.658  -3.779  0.00  0.00    +0.040 A 
ATOM     23  C   LIG    1       -1.411  -7.588  -3.057  0.00  0.00    +0.000 A 
ATOM     24  C   LIG    1       -0.687  -8.753  -2.802  0.00  0.00    +0.040 A 
BRANCH  19  26
ATOM     25  C   LIG    1       -0.990 -12.326  -3.538  0.00  0.00    +0.240 C 
ATOM     26  O   LIG    1       -0.451 -11.107  -3.025  0.00  0.00    -0.310 OA
ENDBRANCH  19  26
ENDBRANCH   1  23
TORSDOF 4
