REMARK  Name = ZINCpe000000WY7W.0
REMARK                            x       y       z     vdW  Elec       q    Type
REMARK                         _______ _______ _______ _____ _____    ______ ____
ROOT
ATOM      1  C   LIG    1       -0.018   1.503   0.010  0.00  0.00    +0.210 C 
ENDROOT
BRANCH   1  12
ATOM      2  C   LIG    1       -4.278  -2.532  -2.222  0.00  0.00    +0.010 C 
ATOM      3  C   LIG    1       -3.409  -2.026  -1.069  0.00  0.00    -0.010 C 
ATOM      4  C   LIG    1       -3.302  -0.501  -1.140  0.00  0.00    +0.020 C 
ATOM      5  C   LIG    1       -2.448   0.006   0.025  0.00  0.00    +0.250 C 
ATOM      6  N   LIG    1       -1.156  -0.694   0.009  0.00  0.00    -0.610 N 
ATOM      7  C   LIG    1       -1.156  -2.166  -0.005  0.00  0.00    +0.250 C 
ATOM      8  C   LIG    1       -1.768  -2.667   1.306  0.00  0.00    +0.000 C 
ATOM      9  C   LIG    1       -1.842  -4.194   1.290  0.00  0.00    +0.010 C 
ATOM     10  C   LIG    1       -2.722  -4.646   0.122  0.00  0.00    +0.010 C 
ATOM     11  C   LIG    1       -2.106  -4.162  -1.180  0.00  0.00    +0.010 C 
ATOM     12  C   LIG    1        0.002  -0.004   0.002  0.00  0.00    +0.520 C 
ATOM     13  O   LIG    1        1.060  -0.596  -0.011  0.00  0.00    -0.510 OA
ATOM     14  C   LIG    1       -2.012  -2.639  -1.177  0.00  0.00    -0.020 C 
ENDBRANCH   1  12
BRANCH   1  15
ATOM     15  N   LIG    1        1.360   2.011  -0.000  0.00  0.00    -0.470 NA
ATOM     16  C   LIG    1        1.384   3.474  -0.233  0.00  0.00    +0.280 C 
ATOM     17  C   LIG    1        2.555   3.993   0.570  0.00  0.00    +0.170 A 
ATOM     18  C   LIG    1        2.906   3.058   1.480  0.00  0.00    -0.270 A 
ATOM     19  C   LIG    1        3.986   3.316   2.355  0.00  0.00    +0.570 A 
ATOM     20  N   LIG    1        4.644   4.490   2.264  0.00  0.00    -0.650 N 
ATOM     21  H   LIG    1        5.386   4.675   2.861  0.00  0.00    +0.440 HD
ATOM     22  C   LIG    1        4.275   5.405   1.349  0.00  0.00    +0.710 A 
ATOM     23  O   LIG    1        4.878   6.458   1.278  0.00  0.00    -0.530 OA
ATOM     24  O   LIG    1        4.319   2.487   3.183  0.00  0.00    -0.500 OA
ATOM     25  N   LIG    1        3.248   5.171   0.511  0.00  0.00    -0.620 N 
ATOM     26  H   LIG    1        2.998   5.844  -0.142  0.00  0.00    +0.440 HD
ATOM     27  C   LIG    1        1.989   1.866   1.333  0.00  0.00    +0.280 C 
ENDBRANCH   1  15
TORSDOF 2
