REMARK  Name = ZINCpe00000R9Ipc.0
REMARK                            x       y       z     vdW  Elec       q    Type
REMARK                         _______ _______ _______ _____ _____    ______ ____
ROOT
ATOM      1  C   UNK A  1       -1.190  -0.968  -2.503  0.00  0.00    +0.260 C 
ATOM      2  N   UNK A  1        0.252  -0.914  -2.302  0.00  0.00    -0.710 N 
ATOM      3  H   UNK A  1        0.832  -1.208  -3.022  0.00  0.00    +0.410 HD
ATOM      4  C   PHE A  2        0.810  -0.478  -1.169  0.00  0.00    +0.520 C 
ATOM      5  CA  PHE A  2        0.002  -0.004   0.002  0.00  0.00    +0.260 C 
ATOM      6  N   PHE A  2       -1.366  -0.499  -0.065  0.00  0.00    -0.710 N 
ATOM      7  H   PHE A  2       -1.896  -0.510   0.748  0.00  0.00    +0.410 HD
ATOM      8  O   PHE A  2        2.020  -0.464  -1.083  0.00  0.00    -0.520 OA
ATOM      9  C   UNK A  1       -1.923  -0.941  -1.196  0.00  0.00    +0.520 C 
ATOM     10  O   UNK A  1       -3.070  -1.335  -1.165  0.00  0.00    -0.520 OA
ENDROOT
BRANCH   1  11
ATOM     11  C   UNK A  1       -1.623   0.233  -3.346  0.00  0.00    +0.170 C 
BRANCH  11  15
ATOM     12  C   UNK A  1        0.383   0.336  -6.397  0.00  0.00    -0.060 A 
ATOM     13  C   UNK A  1       -0.696  -0.362  -6.861  0.00  0.00    +0.070 A 
ATOM     14  C   UNK A  1       -1.584  -0.496  -5.783  0.00  0.00    -0.040 A 
ATOM     15  C   UNK A  1       -1.019   0.124  -4.723  0.00  0.00    +0.030 A 
ATOM     16  O   UNK A  1        0.167   0.621  -5.096  0.00  0.00    -0.140 OA
BRANCH  12  17
ATOM     17  C   UNK A  1        1.567   0.707  -7.175  0.00  0.00    +0.550 C 
ATOM     18  O   UNK A  1        1.649   0.392  -8.346  0.00  0.00    -0.480 OA
BRANCH  17  20
ATOM     19  C   UNK A  1        3.710   1.734  -7.422  0.00  0.00    +0.290 C 
ATOM     20  O   UNK A  1        2.567   1.400  -6.591  0.00  0.00    -0.350 OA
ENDBRANCH  17  20
ENDBRANCH  12  17
ENDBRANCH  11  15
ENDBRANCH   1  11
BRANCH   5  21
ATOM     21  CB  PHE A  2       -0.019   1.526   0.010  0.00  0.00    +0.090 C 
BRANCH  21  22
ATOM     22  CG  PHE A  2       -0.724   2.012   1.250  0.00  0.00    -0.090 A 
ATOM     23  CD2 PHE A  2       -2.089   2.229   1.229  0.00  0.00    +0.010 A 
ATOM     24  CE2 PHE A  2       -2.737   2.671   2.367  0.00  0.00    +0.000 A 
ATOM     25  CZ  PHE A  2       -2.018   2.904   3.525  0.00  0.00    +0.000 A 
ATOM     26  CE1 PHE A  2       -0.652   2.691   3.545  0.00  0.00    +0.000 A 
ATOM     27  CD1 PHE A  2       -0.005   2.246   2.408  0.00  0.00    +0.020 A 
ENDBRANCH  21  22
ENDBRANCH   5  21
TORSDOF 6
