REMARK  Name = ZINCrH00000tj17V.1
REMARK                            x       y       z     vdW  Elec       q    Type
REMARK                         _______ _______ _______ _____ _____    ______ ____
ROOT
ATOM      1  N   LIG    1        2.760  -5.903   1.964  0.00  0.00    -0.600 N 
ATOM      2  C   LIG    1        2.815  -4.634   1.514  0.00  0.00    +0.520 C 
ATOM      3  O   LIG    1        3.881  -4.058   1.451  0.00  0.00    -0.520 OA
ATOM      4  C   LIG    1        1.489  -6.631   1.949  0.00  0.00    +0.290 C 
ENDROOT
BRANCH   2   5
ATOM      5  C   LIG    1        1.552  -3.930   1.088  0.00  0.00    +0.140 C 
ATOM      6  C   LIG    1        0.656  -3.709   2.308  0.00  0.00    +0.070 C 
BRANCH   5   7
ATOM      7  N   LIG    1        1.893  -2.633   0.489  0.00  0.00    -0.660 NA
ATOM      8  H   LIG    1        2.790  -2.671   0.030  0.00  0.00    +0.360 HD
BRANCH   7   9
ATOM      9  C   LIG    1        0.844  -2.191  -0.440  0.00  0.00    +0.210 C 
ATOM     10  C   LIG    1        1.085  -2.815  -1.816  0.00  0.00    +0.010 C 
BRANCH   9  11
ATOM     11  C   LIG    1        0.878  -0.689  -0.557  0.00  0.00    -0.060 A 
ATOM     12  C   LIG    1       -0.304   0.027  -0.615  0.00  0.00    +0.030 A 
ATOM     13  C   LIG    1       -0.273   1.404  -0.723  0.00  0.00    +0.020 A 
ATOM     14  C   LIG    1        0.940   2.068  -0.772  0.00  0.00    -0.040 A 
ATOM     15  C   LIG    1        2.122   1.351  -0.714  0.00  0.00    +0.020 A 
ATOM     16 CL   LIG    1        0.979   3.798  -0.908  0.00  0.00    -0.070 Cl
ATOM     17  C   LIG    1        2.091  -0.026  -0.607  0.00  0.00    +0.050 A 
ENDBRANCH   9  11
ENDBRANCH   7   9
ENDBRANCH   5   7
ENDBRANCH   2   5
BRANCH   1  18
ATOM     18  C   LIG    1        3.972  -6.554   2.470  0.00  0.00    +0.330 C 
BRANCH  18  21
ATOM     19  N   LIG    1        5.144  -6.806   4.633  0.00  0.00    -0.670 N 
ATOM     20  H   LIG    1        5.855  -7.267   4.161  0.00  0.00    +0.410 HD
ATOM     21  C   LIG    1        4.098  -6.300   3.950  0.00  0.00    +0.500 C 
ATOM     22  O   LIG    1        3.259  -5.641   4.526  0.00  0.00    -0.510 OA
BRANCH  19  27
ATOM     23  C   LIG    1        5.386  -6.246  10.273  0.00  0.00    +0.100 C 
ATOM     24  C   LIG    1        5.322  -6.395   8.775  0.00  0.00    -0.100 A 
ATOM     25  C   LIG    1        4.097  -6.534   8.148  0.00  0.00    +0.030 A 
ATOM     26  C   LIG    1        4.035  -6.671   6.775  0.00  0.00    +0.010 A 
ATOM     27  C   LIG    1        5.203  -6.668   6.024  0.00  0.00    +0.140 A 
ATOM     28  C   LIG    1        6.432  -6.532   6.658  0.00  0.00    -0.010 A 
ATOM     29  C   LIG    1        6.487  -6.391   8.031  0.00  0.00    +0.030 A 
ENDBRANCH  19  27
ENDBRANCH  18  21
ENDBRANCH   1  18
TORSDOF 7
