REMARK  Name = ZINCpe000000Xm1v.0
REMARK                            x       y       z     vdW  Elec       q    Type
REMARK                         _______ _______ _______ _____ _____    ______ ____
ROOT
ATOM      1  C   LIG    1       -5.375   3.190  -0.391  0.00  0.00    +0.540 C 
ATOM      2  N   LIG    1       -6.295   2.384  -0.957  0.00  0.00    -0.720 N 
ATOM      3  H   LIG    1       -6.066   1.467  -1.178  0.00  0.00    +0.410 HD
ATOM      4  O   LIG    1       -5.661   4.336  -0.115  0.00  0.00    -0.520 OA
ENDROOT
BRANCH   1   6
ATOM      5  C   LIG    1       -4.016   1.851   1.192  0.00  0.00    +0.080 C 
ATOM      6  C   LIG    1       -3.992   2.668  -0.101  0.00  0.00    +0.000 C 
BRANCH   6   7
ATOM      7  S   LIG    1       -2.846   4.062   0.086  0.00  0.00    -0.050 S 
BRANCH   7   8
ATOM      8  C   LIG    1       -1.275   3.272   0.197  0.00  0.00    -0.090 A 
ATOM      9  C   LIG    1       -0.592   2.916  -0.960  0.00  0.00    +0.090 A 
ATOM     10  C   LIG    1        0.637   2.292  -0.869  0.00  0.00    +0.100 A 
ATOM     11  C   LIG    1        1.192   2.032   0.371  0.00  0.00    -0.020 A 
ATOM     12  C   LIG    1        0.517   2.389   1.524  0.00  0.00    +0.100 A 
ATOM     13  C   LIG    1       -0.714   3.009   1.440  0.00  0.00    +0.090 A 
BRANCH  11  14
ATOM     14  N   LIG    1        2.512   1.369   0.464  0.00  0.00    +0.020 N 
ATOM     15  O   LIG    1        3.003   1.139   1.555  0.00  0.00    -0.150 OA
ATOM     16  O   LIG    1        3.108   1.053  -0.550  0.00  0.00    -0.150 OA
ENDBRANCH  11  14
ENDBRANCH   7   8
ENDBRANCH   6   7
ENDBRANCH   1   6
BRANCH   2  17
ATOM     17  C   LIG    1       -7.640   2.891  -1.239  0.00  0.00    +0.250 C 
BRANCH  17  18
ATOM     18  C   LIG    1       -8.480   1.783  -1.876  0.00  0.00    +0.210 C 
BRANCH  18  19
ATOM     19  O   LIG    1       -8.665   0.724  -0.935  0.00  0.00    -0.540 OA
ATOM     20  H   LIG    1       -9.117   0.994  -0.123  0.00  0.00    +0.380 HD
ENDBRANCH  18  19
BRANCH  18  21
ATOM     21  C   LIG    1       -9.843   2.346  -2.284  0.00  0.00    +0.160 C 
BRANCH  21  22
ATOM     22  N   LIG    1      -10.650   1.282  -2.896  0.00  0.00    -0.530 NA
ATOM     23  C   LIG    1      -10.064   0.844  -4.171  0.00  0.00    +0.140 C 
ATOM     24  C   LIG    1      -10.900  -0.303  -4.744  0.00  0.00    +0.220 C 
ATOM     25  O   LIG    1      -12.255   0.129  -4.891  0.00  0.00    -0.390 OA
ATOM     26  C   LIG    1      -12.858   0.562  -3.668  0.00  0.00    +0.220 C 
ATOM     27  C   LIG    1      -12.041   1.718  -3.085  0.00  0.00    +0.150 C 
ENDBRANCH  21  22
ENDBRANCH  18  21
ENDBRANCH  17  18
ENDBRANCH   2  17
TORSDOF 9
