REMARK  Name = ZINCtV000002yISG.0
REMARK                            x       y       z     vdW  Elec       q    Type
REMARK                         _______ _______ _______ _____ _____    ______ ____
ROOT
ATOM      1  S   LIG    1       -2.838   8.464   0.461  0.00  0.00    +0.090 S 
ENDROOT
BRANCH   1   2
ATOM      2  C   LIG    1       -2.530  10.197   0.365  0.00  0.00    +0.190 A 
ATOM      3  C   LIG    1       -3.524  11.127   0.760  0.00  0.00    -0.160 A 
ATOM      4  C   LIG    1       -4.865  10.908   1.286  0.00  0.00    -0.030 A 
ATOM      5  C   LIG    1       -5.537  12.025   1.564  0.00  0.00    -0.010 A 
ATOM      6  S   LIG    1       -4.578  13.449   1.210  0.00  0.00    +0.190 S 
ATOM      7  C   LIG    1       -3.214  12.484   0.664  0.00  0.00    +0.100 A 
ATOM      8  N   LIG    1       -2.010  12.845   0.200  0.00  0.00    -0.490 NA
ATOM      9  C   LIG    1       -1.124  11.946  -0.158  0.00  0.00    +0.540 A 
ATOM     10  N   LIG    1       -1.367  10.650  -0.082  0.00  0.00    -0.530 NA
BRANCH   4  11
ATOM     11  C   LIG    1       -5.437   9.556   1.491  0.00  0.00    -0.040 A 
ATOM     12  C   LIG    1       -5.390   8.614   0.464  0.00  0.00    +0.040 A 
ATOM     13  C   LIG    1       -5.919   7.355   0.662  0.00  0.00    +0.030 A 
ATOM     14  C   LIG    1       -6.505   7.030   1.873  0.00  0.00    +0.010 A 
ATOM     15  C   LIG    1       -6.559   7.963   2.893  0.00  0.00    +0.010 A 
ATOM     16  C   LIG    1       -6.028   9.223   2.709  0.00  0.00    +0.020 A 
ENDBRANCH   4  11
ENDBRANCH   1   2
BRANCH   1  17
ATOM     17  C   LIG    1       -1.262   7.830  -0.162  0.00  0.00    -0.030 C 
ATOM     18  C   LIG    1       -1.091   8.239  -1.627  0.00  0.00    +0.090 C 
BRANCH  17  21
ATOM     19  N   LIG    1       -0.075   5.668   0.031  0.00  0.00    -0.670 N 
ATOM     20  H   LIG    1        0.756   6.164   0.103  0.00  0.00    +0.410 HD
ATOM     21  C   LIG    1       -1.248   6.327  -0.056  0.00  0.00    +0.540 C 
ATOM     22  O   LIG    1       -2.292   5.710  -0.049  0.00  0.00    -0.500 OA
BRANCH  19  26
ATOM     23  C   LIG    1       -0.018   1.503  -0.005  0.00  0.00    -0.090 A 
ATOM     24  C   LIG    1        0.915   2.199   0.741  0.00  0.00    +0.030 A 
ATOM     25  C   LIG    1        0.902   3.580   0.751  0.00  0.00    -0.010 A 
ATOM     26  C   LIG    1       -0.055   4.269   0.019  0.00  0.00    +0.140 A 
ATOM     27  C   LIG    1       -0.994   3.567  -0.725  0.00  0.00    +0.010 A 
ATOM     28  C   LIG    1       -0.973   2.186  -0.735  0.00  0.00    +0.030 A 
BRANCH  23  30
ATOM     29  C   LIG    1        0.895  -0.492  -1.161  0.00  0.00    +0.030 C 
ATOM     30  C   LIG    1        0.003  -0.004  -0.018  0.00  0.00    +0.050 C 
ENDBRANCH  23  30
ENDBRANCH  19  26
ENDBRANCH  17  21
ENDBRANCH   1  17
TORSDOF 6
