REMARK  Name = ZINCqH0000005Dgo.0
REMARK                            x       y       z     vdW  Elec       q    Type
REMARK                         _______ _______ _______ _____ _____    ______ ____
ROOT
ATOM      1  N   LIG    1       -0.454   0.927  -0.082  0.00  0.00    -0.700 N 
ATOM      2  H   LIG    1       -0.819   0.036  -0.201  0.00  0.00    +0.410 HD
ATOM      3  C   LIG    1       -1.260   2.003  -0.171  0.00  0.00    +0.550 C 
ATOM      4  O   LIG    1       -0.823   3.110   0.062  0.00  0.00    -0.520 OA
ENDROOT
BRANCH   3   5
ATOM      5  C   LIG    1       -2.706   1.831  -0.561  0.00  0.00    -0.060 C 
ATOM      6  C   LIG    1       -3.583   3.049  -0.228  0.00  0.00    +0.070 C 
ATOM      7  C   LIG    1       -3.822   2.399   1.148  0.00  0.00    +0.030 C 
ATOM      8  C   LIG    1       -3.534   1.048   0.471  0.00  0.00    +0.050 C 
BRANCH   5   9
ATOM      9  C   LIG    1       -2.875   1.333  -1.974  0.00  0.00    -0.120 A 
ATOM     10  C   LIG    1       -2.372   2.062  -3.040  0.00  0.00    +0.100 A 
ATOM     11  C   LIG    1       -2.547   1.564  -4.322  0.00  0.00    +0.000 A 
ATOM     12  C   LIG    1       -3.223   0.369  -4.494  0.00  0.00    +0.170 A 
ATOM     13  N   LIG    1       -3.693  -0.295  -3.455  0.00  0.00    -0.470 NA
ATOM     14 CL   LIG    1       -3.455  -0.263  -6.094  0.00  0.00    -0.030 Cl
ATOM     15  C   LIG    1       -3.540   0.147  -2.222  0.00  0.00    +0.300 A 
ENDBRANCH   5   9
ENDBRANCH   3   5
BRANCH   1  16
ATOM     16  C   LIG    1        0.975   1.103   0.190  0.00  0.00    +0.290 C 
BRANCH  16  17
ATOM     17  C   LIG    1        1.195   1.204   1.677  0.00  0.00    +0.450 C 
ATOM     18  O   LIG    1        0.255   1.136   2.433  0.00  0.00    -0.490 OA
BRANCH  17  20
ATOM     19  C   LIG    1        2.572   1.459   3.605  0.00  0.00    +0.260 C 
ATOM     20  O   LIG    1        2.435   1.370   2.163  0.00  0.00    -0.360 OA
ENDBRANCH  17  20
ENDBRANCH  16  17
BRANCH  16  21
ATOM     21  C   LIG    1        1.750  -0.096  -0.360  0.00  0.00    +0.060 C 
BRANCH  21  22
ATOM     22  C   LIG    1        1.537  -0.191  -1.872  0.00  0.00    -0.010 C 
ATOM     23  C   LIG    1        2.245  -1.436  -2.410  0.00  0.00    +0.020 C 
ATOM     24  C   LIG    1        2.032  -1.531  -3.922  0.00  0.00    +0.000 C 
ATOM     25  C   LIG    1        2.609  -0.285  -4.598  0.00  0.00    +0.000 C 
ATOM     26  C   LIG    1        1.901   0.961  -4.060  0.00  0.00    +0.000 C 
ATOM     27  C   LIG    1        2.114   1.056  -2.548  0.00  0.00    +0.010 C 
ENDBRANCH  21  22
ENDBRANCH  16  21
ENDBRANCH   1  16
TORSDOF 7
