REMARK  Name = ZINCpk00000ebBh4.0
REMARK                            x       y       z     vdW  Elec       q    Type
REMARK                         _______ _______ _______ _____ _____    ______ ____
ROOT
ATOM      1  O   LIG    1        5.052   4.659  -0.317  0.00  0.00    -0.570 OA
ATOM      2  C   LIG    1        4.069   3.959  -0.165  0.00  0.00    +0.710 C 
ATOM      3  N   LIG    1        2.840   4.512  -0.182  0.00  0.00    -0.570 N 
ATOM      4  C   LIG    1        2.564   5.949  -0.108  0.00  0.00    +0.280 C 
ATOM      5  C   LIG    1        1.032   6.069  -0.164  0.00  0.00    +0.090 C 
ATOM      6  C   LIG    1        0.542   4.643  -0.269  0.00  0.00    -0.140 A 
ATOM      7  C   LIG    1       -0.737   4.128  -0.353  0.00  0.00    +0.060 A 
ATOM      8  C   LIG    1       -0.932   2.763  -0.448  0.00  0.00    -0.020 A 
ATOM      9  C   LIG    1        0.158   1.911  -0.448  0.00  0.00    +0.050 A 
ATOM     10  C   LIG    1        1.436   2.420  -0.364  0.00  0.00    -0.040 A 
ATOM     11  C   LIG    1        1.641   3.798  -0.274  0.00  0.00    +0.150 A 
ATOM     12  N   LIG    1        4.208   2.632   0.022  0.00  0.00    -0.730 N 
ATOM     13  H   LIG    1        3.424   2.074   0.143  0.00  0.00    +0.410 HD
ENDROOT
BRANCH  12  14
ATOM     14  C   LIG    1        5.545   2.031   0.041  0.00  0.00    +0.300 C 
BRANCH  14  15
ATOM     15  C   LIG    1        5.418   0.510   0.142  0.00  0.00    +0.180 C 
BRANCH  15  16
ATOM     16  N   LIG    1        4.622   0.009  -0.987  0.00  0.00    -0.530 NA
ATOM     17  C   LIG    1        4.326  -1.422  -0.828  0.00  0.00    +0.150 C 
ATOM     18  C   LIG    1        3.447  -1.888  -1.992  0.00  0.00    +0.220 C 
ATOM     19  O   LIG    1        4.111  -1.605  -3.227  0.00  0.00    -0.380 OA
ATOM     20  C   LIG    1        4.414  -0.220  -3.414  0.00  0.00    +0.220 C 
ATOM     21  C   LIG    1        5.303   0.262  -2.265  0.00  0.00    +0.150 C 
ENDBRANCH  15  16
BRANCH  15  22
ATOM     22  C   LIG    1        6.811  -0.121   0.103  0.00  0.00    -0.060 C 
ATOM     23  C   LIG    1        7.621   0.274   1.362  0.00  0.00    +0.010 C 
ATOM     24  C   LIG    1        9.032   0.530   0.774  0.00  0.00    +0.210 C 
ATOM     25  O   LIG    1        8.758   1.145  -0.504  0.00  0.00    -0.370 OA
ATOM     26  C   LIG    1        7.631   0.453  -1.069  0.00  0.00    +0.190 C 
ENDBRANCH  15  22
ENDBRANCH  14  15
ENDBRANCH  12  14
TORSDOF 4
