REMARK  Name = ZINCrD0000072ul0.0
REMARK                            x       y       z     vdW  Elec       q    Type
REMARK                         _______ _______ _______ _____ _____    ______ ____
ROOT
ATOM      1  N   LIG    1        8.242   3.475  -1.945  0.00  0.00    -0.670 N 
ATOM      2  H   LIG    1        8.121   3.226  -1.015  0.00  0.00    +0.410 HD
ATOM      3  C   LIG    1        7.205   3.399  -2.803  0.00  0.00    +0.560 C 
ATOM      4  O   LIG    1        7.333   3.790  -3.947  0.00  0.00    -0.520 OA
ENDROOT
BRANCH   1   9
ATOM      5  C   LIG    1       10.810   5.325  -3.815  0.00  0.00    -0.050 A 
ATOM      6  C   LIG    1       11.964   4.778  -3.285  0.00  0.00    +0.000 A 
ATOM      7  C   LIG    1       11.885   3.799  -2.312  0.00  0.00    +0.030 A 
ATOM      8  C   LIG    1       10.653   3.369  -1.861  0.00  0.00    -0.010 A 
ATOM      9  C   LIG    1        9.491   3.912  -2.395  0.00  0.00    +0.140 A 
ATOM     10  C   LIG    1        9.574   4.895  -3.373  0.00  0.00    +0.040 A 
BRANCH   5  11
ATOM     11  C   LIG    1       10.900   6.391  -4.876  0.00  0.00    +0.120 C 
BRANCH  11  14
ATOM     12  C   LIG    1       11.066  10.179  -4.344  0.00  0.00    +0.290 C 
ATOM     13  N   LIG    1       11.024   8.860  -4.980  0.00  0.00    -0.630 N 
ATOM     14  C   LIG    1       10.943   7.748  -4.222  0.00  0.00    +0.510 C 
ATOM     15  O   LIG    1       10.903   7.840  -3.013  0.00  0.00    -0.530 OA
ATOM     16  C   LIG    1       11.072   8.749  -6.440  0.00  0.00    +0.270 C 
ENDBRANCH  11  14
ENDBRANCH   5  11
ENDBRANCH   1   9
BRANCH   3  17
ATOM     17  C   LIG    1        5.914   2.841  -2.353  0.00  0.00    -0.140 A 
ATOM     18  C   LIG    1        4.839   2.763  -3.243  0.00  0.00    +0.090 A 
ATOM     19  C   LIG    1        3.636   2.243  -2.823  0.00  0.00    +0.010 A 
ATOM     20  C   LIG    1        3.489   1.794  -1.508  0.00  0.00    -0.020 A 
ATOM     21  C   LIG    1        4.562   1.878  -0.617  0.00  0.00    +0.020 A 
ATOM     22  C   LIG    1        5.767   2.393  -1.038  0.00  0.00    +0.050 A 
BRANCH  20  23
ATOM     23  C   LIG    1        2.197   1.238  -1.058  0.00  0.00    -0.090 C 
ATOM     24  C   LIG    1        1.765   0.117  -1.600  0.00  0.00    -0.050 C 
ATOM     25  C   LIG    1        0.460  -0.519  -1.212  0.00  0.00    +0.270 C 
ATOM     26  O   LIG    1       -0.012   0.037   0.017  0.00  0.00    -0.380 OA
ATOM     27  C   LIG    1       -0.026   1.470   0.016  0.00  0.00    +0.220 C 
ATOM     28  C   LIG    1        1.421   1.969   0.003  0.00  0.00    +0.070 C 
ENDBRANCH  20  23
ENDBRANCH   3  17
TORSDOF 5
