REMARK  Name = ZINCrH000004rEIY.2
REMARK                            x       y       z     vdW  Elec       q    Type
REMARK                         _______ _______ _______ _____ _____    ______ ____
ROOT
ATOM      1  C   LIG    1       -1.745   2.702  -4.019  0.00  0.00    +0.510 C 
ATOM      2  N   LIG    1       -1.719   3.955  -3.524  0.00  0.00    -0.730 N 
ATOM      3  H   LIG    1       -1.784   4.715  -4.124  0.00  0.00    +0.400 HD
ATOM      4  O   LIG    1       -1.662   1.752  -3.269  0.00  0.00    -0.520 OA
ENDROOT
BRANCH   1   5
ATOM      5  C   LIG    1       -1.876   2.481  -5.504  0.00  0.00    +0.150 C 
BRANCH   5  11
ATOM      6  C   LIG    1       -5.678  -3.255  -5.928  0.00  0.00    +0.090 C 
ATOM      7  C   LIG    1       -4.743  -2.075  -5.869  0.00  0.00    -0.070 A 
ATOM      8  C   LIG    1       -5.237  -0.823  -5.532  0.00  0.00    +0.000 A 
ATOM      9  C   LIG    1       -4.393   0.264  -5.474  0.00  0.00    +0.050 A 
ATOM     10  C   LIG    1       -3.037   0.098  -5.751  0.00  0.00    -0.110 A 
ATOM     11  C   LIG    1       -1.880   1.002  -5.793  0.00  0.00    -0.160 A 
ATOM     12  C   LIG    1       -0.828   0.246  -6.135  0.00  0.00    +0.230 A 
ATOM     13  O   LIG    1       -1.213  -1.030  -6.314  0.00  0.00    -0.190 OA
ATOM     14  C   LIG    1       -2.537  -1.168  -6.098  0.00  0.00    +0.060 A 
ATOM     15  C   LIG    1       -3.404  -2.251  -6.150  0.00  0.00    -0.070 A 
ATOM     16  C   LIG    1       -2.884  -3.618  -6.514  0.00  0.00    +0.100 C 
ENDBRANCH   5  11
ENDBRANCH   1   5
BRANCH   2  17
ATOM     17  C   LIG    1       -1.591   4.170  -2.081  0.00  0.00    +0.270 C 
BRANCH  17  18
ATOM     18  C   LIG    1       -1.587   5.672  -1.787  0.00  0.00    +0.170 C 
BRANCH  18  19
ATOM     19  N   LIG    1       -1.589   5.887  -0.334  0.00  0.00    -0.520 NA
ATOM     20  C   LIG    1       -0.486   5.156   0.309  0.00  0.00    +0.220 C 
ATOM     21  C   LIG    1        0.817   5.516  -0.405  0.00  0.00    +0.040 C 
ATOM     22  C   LIG    1        0.947   7.014  -0.513  0.00  0.00    -0.080 A 
ATOM     23  C   LIG    1        2.192   7.550  -0.806  0.00  0.00    +0.000 A 
ATOM     24  C   LIG    1        2.355   8.916  -0.913  0.00  0.00    +0.000 A 
ATOM     25  C   LIG    1        1.270   9.754  -0.738  0.00  0.00    +0.000 A 
ATOM     26  C   LIG    1        0.029   9.221  -0.449  0.00  0.00    +0.010 A 
ATOM     27  C   LIG    1       -0.135   7.849  -0.335  0.00  0.00    -0.120 A 
ATOM     28  C   LIG    1       -1.506   7.316  -0.014  0.00  0.00    +0.270 C 
ENDBRANCH  18  19
ENDBRANCH  17  18
ENDBRANCH   2  17
TORSDOF 5
