REMARK  Name = ZINCkj000005lsul.0
REMARK                            x       y       z     vdW  Elec       q    Type
REMARK                         _______ _______ _______ _____ _____    ______ ____
ROOT
ATOM      1  S   LIG    1       -0.735   0.001   4.976  0.00  0.00    +2.710 S 
ATOM      2  O   LIG    1        0.553  -0.598   4.938  0.00  0.00    -0.930 OA
ATOM      3  O   LIG    1       -1.911  -0.709   5.342  0.00  0.00    -0.930 OA
ENDROOT
BRANCH   1   4
ATOM      4  C   LIG    1       -0.616   1.369   6.079  0.00  0.00    -0.650 A 
ATOM      5  C   LIG    1        0.613   1.956   6.322  0.00  0.00    +0.110 A 
ATOM      6  C   LIG    1        0.709   3.033   7.183  0.00  0.00    +0.060 A 
ATOM      7  C   LIG    1       -0.421   3.520   7.811  0.00  0.00    +0.020 A 
ATOM      8  C   LIG    1       -1.654   2.930   7.573  0.00  0.00    +0.090 A 
ATOM      9  C   LIG    1       -1.749   1.853   6.704  0.00  0.00    +0.130 A 
BRANCH   8  10
ATOM     10  O   LIG    1       -2.767   3.407   8.189  0.00  0.00    -0.310 OA
BRANCH  10  11
ATOM     11  C   LIG    1       -2.595   4.519   9.070  0.00  0.00    +0.600 C 
ATOM     12  F   LIG    1       -1.717   4.166  10.100  0.00  0.00    -0.160 F 
ATOM     13  F   LIG    1       -3.832   4.878   9.615  0.00  0.00    -0.120 F 
ATOM     14  F   LIG    1       -2.067   5.601   8.358  0.00  0.00    -0.160 F 
ENDBRANCH  10  11
ENDBRANCH   8  10
ENDBRANCH   1   4
BRANCH   1  18
ATOM     15  C   LIG    1       -0.699   1.479   1.216  0.00  0.00    +0.170 C 
ATOM     16  C   LIG    1       -2.103   0.828   1.340  0.00  0.00    +0.070 C 
ATOM     17  C   LIG    1       -2.335   0.879   2.871  0.00  0.00    +0.310 C 
ATOM     18  N   LIG    1       -1.011   0.613   3.462  0.00  0.00    -1.010 NA
ATOM     19  C   LIG    1        0.025   0.983   2.486  0.00  0.00    +0.300 C 
BRANCH  15  20
ATOM     20  N   LIG    1       -0.012   1.005   0.008  0.00  0.00    -0.630 N 
ATOM     21  H   LIG    1       -0.500   1.339  -0.810  0.00  0.00    +0.440 HD
ATOM     22  H   LIG    1        0.935   1.354   0.000  0.00  0.00    +0.440 HD
ATOM     23  H   LIG    1        0.002  -0.004   0.002  0.00  0.00    +0.440 HD
ENDBRANCH  15  20
ENDBRANCH   1  18
TORSDOF 5
