REMARK  Name = ZINCpe00000gNhGR.0
REMARK                            x       y       z     vdW  Elec       q    Type
REMARK                         _______ _______ _______ _____ _____    ______ ____
ROOT
ATOM      1  O   LIG    1        0.996  -0.630  -0.111  0.00  0.00    -0.570 OA
ATOM      2  C   LIG    1       -0.041  -0.004  -0.003  0.00  0.00    +0.710 C 
ATOM      3  N   LIG    1       -1.215  -0.657   0.104  0.00  0.00    -0.720 N 
ATOM      4  H   LIG    1       -2.042  -0.158   0.191  0.00  0.00    +0.400 HD
ATOM      5  N   LIG    1       -0.016   1.344   0.009  0.00  0.00    -0.670 N 
ATOM      6  H   LIG    1       -0.847   1.844   0.023  0.00  0.00    +0.410 HD
ENDROOT
BRANCH   5   7
ATOM      7  C   LIG    1        1.207   2.020  -0.003  0.00  0.00    +0.080 A 
ATOM      8  C   LIG    1        1.365   3.221   0.686  0.00  0.00    +0.300 A 
ATOM      9  N   LIG    1        2.537   3.830   0.655  0.00  0.00    -0.450 NA
ATOM     10  C   LIG    1        3.550   3.317  -0.029  0.00  0.00    +0.340 A 
ATOM     11  N   LIG    1        3.435   2.181  -0.700  0.00  0.00    -0.450 NA
ATOM     12  C   LIG    1        2.296   1.513  -0.711  0.00  0.00    +0.340 A 
BRANCH  10  13
ATOM     13  C   LIG    1        4.849   4.036  -0.042  0.00  0.00    +0.370 A 
ATOM     14  N   LIG    1        5.865   3.522  -0.721  0.00  0.00    -0.480 NA
ATOM     15  C   LIG    1        7.034   4.140  -0.758  0.00  0.00    +0.330 A 
ATOM     16  C   LIG    1        7.191   5.332  -0.066  0.00  0.00    -0.070 A 
ATOM     17  C   LIG    1        6.109   5.838   0.638  0.00  0.00    +0.330 A 
ATOM     18  N   LIG    1        4.966   5.173   0.629  0.00  0.00    -0.480 NA
ENDBRANCH  10  13
ENDBRANCH   5   7
BRANCH   3  19
ATOM     19  CA  LIG    1       -1.242  -2.122   0.091  0.00  0.00    +0.280 C 
BRANCH  19  20
ATOM     20  C   LIG    1       -2.611  -2.603  -0.393  0.00  0.00    +0.000 C 
ATOM     21  C   LIG    1       -2.640  -4.134  -0.412  0.00  0.00    +0.000 C 
ATOM     22  C   LIG    1       -3.984  -4.605  -0.974  0.00  0.00    +0.210 C 
ATOM     23  O   LIG    1       -4.172  -4.057  -2.280  0.00  0.00    -0.380 OA
ATOM     24  C   LIG    1       -4.203  -2.629  -2.316  0.00  0.00    +0.200 C 
ATOM     25  C   LIG    1       -2.867  -2.079  -1.810  0.00  0.00    -0.010 C 
ENDBRANCH  19  20
BRANCH  19  26
ATOM     26  C   LIG    1       -0.987  -2.650   1.504  0.00  0.00    +0.170 C 
BRANCH  26  27
ATOM     27  O   LIG    1       -2.063  -2.260   2.360  0.00  0.00    -0.570 OA
ATOM     28  H   LIG    1       -1.967  -2.561   3.274  0.00  0.00    +0.380 HD
ENDBRANCH  26  27
ENDBRANCH  19  26
ENDBRANCH   3  19
TORSDOF 6
