REMARK  Name = ZINCvU0000000Gle.0
REMARK                            x       y       z     vdW  Elec       q    Type
REMARK                         _______ _______ _______ _____ _____    ______ ____
ROOT
ATOM      1  C   LIG    1       -1.547   2.806   4.815  0.00  0.00    +0.060 C 
ATOM      2  C   LIG    1       -1.090   1.449   4.278  0.00  0.00    +0.270 C 
ATOM      3  C   LIG    1        0.263   1.606   3.639  0.00  0.00    -0.080 A 
ATOM      4  C   LIG    1        1.314   2.040   4.435  0.00  0.00    +0.030 A 
ATOM      5  C   LIG    1        2.583   2.197   3.904  0.00  0.00    +0.050 A 
ATOM      6  C   LIG    1        2.806   1.922   2.560  0.00  0.00    +0.050 A 
ATOM      7  O   LIG    1        4.043   2.071   2.014  0.00  0.00    -0.310 OA
ATOM      8  C   LIG    1        5.144   2.144   2.926  0.00  0.00    +0.220 C 
ATOM      9  C   LIG    1        4.771   3.117   4.053  0.00  0.00    +0.220 C 
ATOM     10  C   LIG    1        1.755   1.491   1.767  0.00  0.00    +0.030 A 
ATOM     11  O   LIG    1        3.599   2.617   4.706  0.00  0.00    -0.310 OA
ATOM     12  C   LIG    1        0.487   1.335   2.304  0.00  0.00    -0.060 A 
ATOM     13  C   LIG    1       -0.624   0.869   1.403  0.00  0.00    -0.030 C 
ATOM     14  C   LIG    1       -1.669   0.101   2.212  0.00  0.00    +0.300 C 
ATOM     15  C   LIG    1       -0.060  -0.025   0.289  0.00  0.00    +0.030 C 
ATOM     16  C   LIG    1       -0.392   0.675  -1.046  0.00  0.00    +0.020 C 
ATOM     17  C   LIG    1       -1.612   1.570  -0.712  0.00  0.00    +0.010 C 
ATOM     18  C   LIG    1       -1.284   2.079   0.715  0.00  0.00    +0.030 C 
ATOM     19  N   LIG    1       -2.084   0.953   3.333  0.00  0.00    -0.600 N 
ATOM     20  C   LIG    1       -3.384   1.276   3.490  0.00  0.00    +0.530 C 
ATOM     21  O   LIG    1       -3.740   1.897   4.468  0.00  0.00    -0.530 OA
ENDROOT
BRANCH  20  22
ATOM     22  C   LIG    1       -4.393   0.866   2.448  0.00  0.00    -0.020 C 
ATOM     23  C   LIG    1       -4.626   1.931   1.363  0.00  0.00    +0.050 C 
ATOM     24  C   LIG    1       -6.118   1.567   1.438  0.00  0.00    +0.040 C 
ATOM     25  C   LIG    1       -5.851   1.098   2.878  0.00  0.00    +0.060 C 
BRANCH  25  26
ATOM     26  C   LIG    1       -6.580  -0.169   3.245  0.00  0.00    -0.070 A 
ATOM     27  C   LIG    1       -6.735  -1.174   2.309  0.00  0.00    +0.000 A 
ATOM     28  C   LIG    1       -7.399  -2.338   2.648  0.00  0.00    +0.000 A 
ATOM     29  C   LIG    1       -7.919  -2.492   3.919  0.00  0.00    +0.000 A 
ATOM     30  C   LIG    1       -7.770  -1.484   4.854  0.00  0.00    +0.000 A 
ATOM     31  C   LIG    1       -7.100  -0.323   4.517  0.00  0.00    +0.010 A 
ENDBRANCH  25  26
ENDBRANCH  20  22
TORSDOF 2
