REMARK  Name = ZINCpk00001AZj79.0
REMARK                            x       y       z     vdW  Elec       q    Type
REMARK                         _______ _______ _______ _____ _____    ______ ____
ROOT
ATOM      1  C   LIG    1       -2.513   0.978   0.019  0.00  0.00    +0.320 C 
ATOM      2  N   LIG    1       -3.434   1.599   0.959  0.00  0.00    -0.710 N 
ATOM      3  H   LIG    1       -3.317   1.425   1.906  0.00  0.00    +0.420 HD
ATOM      4  C   LIG    1       -4.436   2.401   0.576  0.00  0.00    +0.530 C 
ATOM      5  C   LIG    1       -4.696   2.694  -0.873  0.00  0.00    +0.130 C 
ATOM      6  N   LIG    1       -4.059   1.745  -1.779  0.00  0.00    -0.700 N 
ATOM      7  H   LIG    1       -4.364   1.691  -2.699  0.00  0.00    +0.410 HD
ATOM      8  C   LIG    1       -6.179   2.939  -1.189  0.00  0.00    +0.090 C 
ATOM      9  C   LIG    1       -5.917   4.423  -0.878  0.00  0.00    +0.070 C 
ATOM     10  C   LIG    1       -4.448   4.162  -1.252  0.00  0.00    +0.120 C 
ATOM     11  O   LIG    1       -5.150   2.901   1.419  0.00  0.00    -0.480 OA
ATOM     12  C   LIG    1       -3.064   0.947  -1.373  0.00  0.00    +0.530 C 
ATOM     13  O   LIG    1       -2.587   0.164  -2.168  0.00  0.00    -0.510 OA
ENDROOT
BRANCH   1  17
ATOM     14  C   LIG    1        1.155   3.171   0.008  0.00  0.00    +0.150 A 
ATOM     15  C   LIG    1       -0.057   3.844   0.023  0.00  0.00    -0.060 A 
ATOM     16  C   LIG    1       -1.242   3.133   0.031  0.00  0.00    +0.080 A 
ATOM     17  C   LIG    1       -1.220   1.750   0.017  0.00  0.00    -0.140 A 
ATOM     18  C   LIG    1       -0.013   1.076   0.008  0.00  0.00    +0.110 A 
ATOM     19  C   LIG    1        1.175   1.783   0.000  0.00  0.00    -0.070 A 
ATOM     20 CL   LIG    1        2.690   0.936  -0.018  0.00  0.00    -0.050 Cl
BRANCH  14  22
ATOM     21  C   LIG    1        2.224   5.295   0.010  0.00  0.00    +0.250 C 
ATOM     22  O   LIG    1        2.321   3.869   0.001  0.00  0.00    -0.300 OA
ENDBRANCH  14  22
ENDBRANCH   1  17
BRANCH   9  23
ATOM     23  C   LIG    1       -6.631   5.383  -1.831  0.00  0.00    +0.440 C 
ATOM     24  F   LIG    1       -5.974   6.618  -1.828  0.00  0.00    -0.170 F 
ATOM     25  F   LIG    1       -7.954   5.558  -1.413  0.00  0.00    -0.180 F 
ATOM     26  F   LIG    1       -6.618   4.851  -3.125  0.00  0.00    -0.170 F 
ENDBRANCH   9  23
BRANCH   9  27
ATOM     27  O   LIG    1       -6.106   4.761   0.497  0.00  0.00    -0.480 OA
ATOM     28  H   LIG    1       -7.028   4.927   0.739  0.00  0.00    +0.390 HD
ENDBRANCH   9  27
TORSDOF 4
