REMARK  Name = ZINCvU0000000876.0
REMARK                            x       y       z     vdW  Elec       q    Type
REMARK                         _______ _______ _______ _____ _____    ______ ____
ROOT
ATOM      1  C   LIG    1       -1.124   2.236   0.020  0.00  0.00    +0.620 C 
ATOM      2  N   LIG    1       -0.030   1.485  -0.217  0.00  0.00    -0.610 N 
ATOM      3  C   LIG    1        1.322   2.001  -0.498  0.00  0.00    +0.240 C 
ATOM      4  C   LIG    1        2.023   0.867  -1.287  0.00  0.00    +0.040 C 
ATOM      5  C   LIG    1        1.459  -0.396  -0.584  0.00  0.00    +0.050 C 
ATOM      6  C   LIG    1        0.011   0.016  -0.243  0.00  0.00    +0.280 C 
ATOM      7  O   LIG    1       -2.213   1.706   0.135  0.00  0.00    -0.510 OA
ENDROOT
BRANCH   1  11
ATOM      8  C   LIG    1       -0.375   6.068   0.312  0.00  0.00    +0.100 A 
ATOM      9  N   LIG    1       -1.657   5.828   0.346  0.00  0.00    -0.480 NA
ATOM     10  C   LIG    1       -2.035   4.582   0.251  0.00  0.00    +0.170 A 
ATOM     11  C   LIG    1       -1.001   3.692   0.138  0.00  0.00    -0.320 A 
ATOM     12  C   LIG    1       -3.482   4.160   0.269  0.00  0.00    +0.170 C 
ATOM     13  S   LIG    1        0.502   4.610   0.151  0.00  0.00    +0.190 S 
BRANCH   8  17
ATOM     14  C   LIG    1        1.373   9.931   0.561  0.00  0.00    +0.150 A 
ATOM     15  C   LIG    1       -0.008   9.791   0.610  0.00  0.00    -0.010 A 
ATOM     16  C   LIG    1       -0.579   8.540   0.529  0.00  0.00    +0.130 A 
ATOM     17  C   LIG    1        0.233   7.411   0.399  0.00  0.00    -0.080 A 
ATOM     18  C   LIG    1        1.621   7.556   0.357  0.00  0.00    +0.080 A 
ATOM     19  C   LIG    1        2.184   8.811   0.432  0.00  0.00    -0.070 A 
BRANCH  14  21
ATOM     20  C   LIG    1        3.358  11.238   0.585  0.00  0.00    +0.240 C 
ATOM     21  O   LIG    1        1.932  11.166   0.641  0.00  0.00    -0.310 OA
ENDBRANCH  14  21
ENDBRANCH   8  17
ENDBRANCH   1  11
BRANCH   6  22
ATOM     22  C   LIG    1       -0.377  -0.532   1.107  0.00  0.00    -0.090 A 
ATOM     23  C   LIG    1        0.051   0.103   2.257  0.00  0.00    +0.020 A 
ATOM     24  C   LIG    1       -0.307  -0.392   3.498  0.00  0.00    -0.040 A 
ATOM     25  C   LIG    1       -1.086  -1.533   3.589  0.00  0.00    +0.100 A 
ATOM     26  C   LIG    1       -1.512  -2.176   2.430  0.00  0.00    +0.100 A 
ATOM     27  C   LIG    1       -1.155  -1.672   1.191  0.00  0.00    -0.010 A 
BRANCH  26  28
ATOM     28  O   LIG    1       -2.278  -3.297   2.515  0.00  0.00    -0.310 OA
ATOM     29  C   LIG    1       -2.679  -3.903   1.284  0.00  0.00    +0.240 C 
ENDBRANCH  26  28
BRANCH  25  30
ATOM     30  O   LIG    1       -1.435  -2.025   4.808  0.00  0.00    -0.310 OA
ATOM     31  C   LIG    1       -0.962  -1.313   5.954  0.00  0.00    +0.230 C 
ENDBRANCH  25  30
ENDBRANCH   6  22
TORSDOF 6
