REMARK  Name = ZINCpe000000TtlB.0
REMARK                            x       y       z     vdW  Elec       q    Type
REMARK                         _______ _______ _______ _____ _____    ______ ____
ROOT
ATOM      1  N   LIG    1       -0.074   1.201  -0.193  0.00  0.00    -1.010 NA
ATOM      2  C   LIG    1        1.298   1.717  -0.068  0.00  0.00    +0.310 C 
ATOM      3  C   LIG    1        2.057   0.844   0.937  0.00  0.00    +0.180 C 
ATOM      4  N   LIG    1        1.958  -0.564   0.530  0.00  0.00    -0.520 NA
ATOM      5  C   LIG    1        0.565  -1.030   0.555  0.00  0.00    +0.170 C 
ATOM      6  C   LIG    1       -0.255  -0.233  -0.465  0.00  0.00    +0.300 C 
ENDROOT
BRANCH   1   7
ATOM      7  S   LIG    1       -1.379   2.208  -0.040  0.00  0.00    +2.780 S 
ATOM      8  O   LIG    1       -0.906   3.380   0.611  0.00  0.00    -0.970 OA
ATOM      9  O   LIG    1       -2.442   1.413   0.467  0.00  0.00    -0.970 OA
BRANCH   7  10
ATOM     10  N   LIG    1       -1.825   2.668  -1.567  0.00  0.00    -1.010 NA
BRANCH  10  12
ATOM     11  C   LIG    1       -4.197   2.457  -2.126  0.00  0.00    +0.020 C 
ATOM     12  C   LIG    1       -2.797   1.870  -2.317  0.00  0.00    +0.280 C 
ENDBRANCH  10  12
BRANCH  10  13
ATOM     13  C   LIG    1       -1.249   3.874  -2.166  0.00  0.00    +0.280 C 
ATOM     14  C   LIG    1       -0.047   3.489  -3.032  0.00  0.00    +0.020 C 
ENDBRANCH  10  13
ENDBRANCH   7  10
ENDBRANCH   1   7
BRANCH   4  15
ATOM     15  C   LIG    1        2.813  -1.416   1.368  0.00  0.00    +0.200 C 
BRANCH  15  16
ATOM     16  C   LIG    1        4.259  -1.066   1.128  0.00  0.00    +0.510 C 
ATOM     17  N   LIG    1        5.230  -1.723   1.792  0.00  0.00    -0.720 N 
ATOM     18  H   LIG    1        4.999  -2.421   2.425  0.00  0.00    +0.400 HD
ATOM     19  O   LIG    1        4.549  -0.194   0.337  0.00  0.00    -0.520 OA
BRANCH  17  20
ATOM     20  C   LIG    1        6.636  -1.383   1.559  0.00  0.00    +0.240 C 
ATOM     21  C   LIG    1        7.030  -0.202   2.448  0.00  0.00    +0.010 C 
ATOM     22  C   LIG    1        6.834  -0.582   3.917  0.00  0.00    +0.000 C 
ATOM     23  C   LIG    1        7.713  -1.788   4.254  0.00  0.00    +0.000 C 
ATOM     24  C   LIG    1        7.319  -2.970   3.365  0.00  0.00    +0.010 C 
ATOM     25  C   LIG    1        7.515  -2.590   1.896  0.00  0.00    -0.010 C 
ATOM     26  C   LIG    1        7.122  -3.771   1.006  0.00  0.00    +0.020 C 
ENDBRANCH  17  20
ENDBRANCH  15  16
ENDBRANCH   4  15
TORSDOF 7
