REMARK  Name = ZINCrD000003DYcn.0
REMARK                            x       y       z     vdW  Elec       q    Type
REMARK                         _______ _______ _______ _____ _____    ______ ____
ROOT
ATOM      1  C   LIG    1        4.287   1.642  -1.469  0.00  0.00    +0.030 C 
ATOM      2  C   LIG    1        2.805   1.301  -1.306  0.00  0.00    -0.040 C 
ATOM      3  C   LIG    1        2.619  -0.218  -1.373  0.00  0.00    +0.280 C 
ATOM      4  N   LIG    1        1.214  -0.535  -1.086  0.00  0.00    -0.610 N 
ATOM      5  C   LIG    1        0.610  -0.016   0.149  0.00  0.00    +0.280 C 
ATOM      6  C   LIG    1        0.818   1.501   0.199  0.00  0.00    +0.010 C 
ATOM      7  C   LIG    1        0.492  -1.289  -1.939  0.00  0.00    +0.530 C 
ATOM      8  O   LIG    1       -0.633  -1.631  -1.643  0.00  0.00    -0.540 OA
ATOM      9  C   LIG    1        2.309   1.812   0.049  0.00  0.00    +0.240 C 
ENDROOT
BRANCH   7  10
ATOM     10  C   LIG    1        1.083  -1.706  -3.261  0.00  0.00    -0.110 C 
ATOM     11  C   LIG    1        0.381  -2.919  -3.894  0.00  0.00    +0.050 C 
ATOM     12  C   LIG    1        1.778  -3.412  -4.307  0.00  0.00    +0.010 C 
ATOM     13  C   LIG    1        1.270  -0.532  -4.225  0.00  0.00    +0.070 C 
ATOM     14  C   LIG    1        2.329  -2.596  -3.126  0.00  0.00    +0.040 C 
ENDBRANCH   7  10
BRANCH   9  15
ATOM     15  N   LIG    1        2.516   3.260   0.130  0.00  0.00    -0.720 N 
ATOM     16  H   LIG    1        2.560   3.790  -0.681  0.00  0.00    +0.400 HD
ATOM     17  C   LIG    1        2.644   3.857   1.332  0.00  0.00    +0.560 C 
ATOM     18  O   LIG    1        2.588   3.193   2.349  0.00  0.00    -0.530 OA
BRANCH  17  19
ATOM     19  C   LIG    1        2.853   5.319   1.414  0.00  0.00    -0.120 A 
ATOM     20  C   LIG    1        2.984   5.925   2.651  0.00  0.00    +0.130 A 
ATOM     21  C   LIG    1        3.182   7.313   2.724  0.00  0.00    +0.120 A 
ATOM     22  N   LIG    1        3.312   7.927   3.905  0.00  0.00    -0.470 NA
ATOM     23  C   LIG    1        3.498   9.222   3.983  0.00  0.00    +0.290 A 
ATOM     24  C   LIG    1        3.568  10.022   2.844  0.00  0.00    -0.020 A 
ATOM     25  C   LIG    1        3.443   9.459   1.606  0.00  0.00    +0.080 A 
ATOM     26  C   LIG    1        3.244   8.067   1.526  0.00  0.00    -0.090 A 
ATOM     27  C   LIG    1        3.107   7.424   0.284  0.00  0.00    +0.040 A 
ATOM     28  C   LIG    1        2.922   6.079   0.233  0.00  0.00    +0.040 A 
ENDBRANCH  17  19
ENDBRANCH   9  15
TORSDOF 3
