REMARK  Name = ZINCpe00000bKJEU.0
REMARK                            x       y       z     vdW  Elec       q    Type
REMARK                         _______ _______ _______ _____ _____    ______ ____
ROOT
ATOM      1  C   LIG    1       -0.013   1.086   0.008  0.00  0.00    +0.250 C 
ATOM      2  C   LIG    1        1.388   1.721  -0.002  0.00  0.00    +0.020 C 
ATOM      3  C   LIG    1        0.821   2.765  -0.979  0.00  0.00    +0.240 C 
ATOM      4  C   LIG    1       -0.218   1.707  -1.384  0.00  0.00    -0.100 C 
ATOM      5  C   LIG    1       -1.621   2.277  -1.599  0.00  0.00    +0.050 C 
ATOM      6  C   LIG    1        0.241   0.805  -2.531  0.00  0.00    +0.080 C 
ENDROOT
BRANCH   3   7
ATOM      7  N   LIG    1        0.240   3.935  -0.315  0.00  0.00    -0.710 N 
ATOM      8  H   LIG    1       -0.627   3.868   0.114  0.00  0.00    +0.390 HD
ATOM      9  C   LIG    1        0.910   5.104  -0.301  0.00  0.00    +0.520 C 
ATOM     10  O   LIG    1        1.995   5.188  -0.837  0.00  0.00    -0.530 OA
BRANCH   9  11
ATOM     11  C   LIG    1        0.313   6.307   0.382  0.00  0.00    +0.050 C 
BRANCH  11  12
ATOM     12  C   LIG    1        1.269   7.494   0.253  0.00  0.00    +0.250 C 
ATOM     13  C   LIG    1        0.621   8.769   0.837  0.00  0.00    +0.050 C 
ATOM     14  C   LIG    1        1.150   8.755   2.289  0.00  0.00    +0.040 C 
ATOM     15  C   LIG    1        2.432   7.956   2.210  0.00  0.00    +0.510 C 
ATOM     16  O   LIG    1        3.295   7.941   3.062  0.00  0.00    -0.530 OA
ATOM     17  N   LIG    1        2.475   7.264   1.058  0.00  0.00    -0.720 N 
ATOM     18  H   LIG    1        3.208   6.688   0.793  0.00  0.00    +0.420 HD
ENDBRANCH  11  12
ENDBRANCH   9  11
ENDBRANCH   3   7
BRANCH   1  19
ATOM     19  N   LIG    1       -0.900   1.637   1.035  0.00  0.00    -0.680 N 
ATOM     20  H   LIG    1       -1.284   2.521   0.921  0.00  0.00    +0.400 HD
BRANCH  19  25
ATOM     21  C   LIG    1       -2.292   0.727   4.185  0.00  0.00    +0.400 A 
ATOM     22  C   LIG    1       -1.747  -0.544   4.360  0.00  0.00    -0.150 A 
ATOM     23  C   LIG    1       -0.912  -1.044   3.378  0.00  0.00    +0.400 A 
ATOM     24  N   LIG    1       -0.661  -0.310   2.305  0.00  0.00    -0.580 NA
ATOM     25  C   LIG    1       -1.190   0.897   2.168  0.00  0.00    +0.600 A 
ATOM     26  N   LIG    1       -1.994   1.411   3.087  0.00  0.00    -0.630 NA
BRANCH  21  28
ATOM     27  C   LIG    1       -3.633   2.564   4.867  0.00  0.00    +0.260 C 
ATOM     28  O   LIG    1       -3.115   1.256   5.122  0.00  0.00    -0.300 OA
ENDBRANCH  21  28
ENDBRANCH  19  25
ENDBRANCH   1  19
TORSDOF 6
