REMARK  Name = ZINCrH00000No4GF.0
REMARK                            x       y       z     vdW  Elec       q    Type
REMARK                         _______ _______ _______ _____ _____    ______ ____
ROOT
ATOM      1  C   LIG    1        3.371   5.872  -0.800  0.00  0.00    +0.340 C 
ENDROOT
BRANCH   1   2
ATOM      2  C   LIG    1        2.066   5.987  -1.545  0.00  0.00    -0.200 A 
ATOM      3  C   LIG    1        1.212   7.002  -1.444  0.00  0.00    +0.030 A 
ATOM      4  C   LIG    1        0.067   6.905  -2.225  0.00  0.00    -0.150 A 
ATOM      5  C   LIG    1        0.007   5.776  -2.960  0.00  0.00    -0.190 A 
ATOM      6  C   LIG    1       -1.141   5.436  -3.886  0.00  0.00    +0.100 C 
ATOM      7  C   LIG    1       -2.318   6.355  -3.534  0.00  0.00    +0.230 C 
ATOM      8  O   LIG    1       -1.845   7.701  -3.427  0.00  0.00    -0.380 OA
ATOM      9  C   LIG    1       -1.040   7.950  -2.272  0.00  0.00    +0.310 C 
ATOM     10  S   LIG    1        1.435   4.796  -2.674  0.00  0.00    +0.200 S 
ENDBRANCH   1   2
BRANCH   1  15
ATOM     11  C   LIG    1        4.437   3.663   2.807  0.00  0.00    -0.010 C 
ATOM     12  C   LIG    1        3.013   3.346   2.809  0.00  0.00    +0.010 C 
ATOM     13  C   LIG    1        2.504   2.939   1.411  0.00  0.00    +0.040 C 
ATOM     14  C   LIG    1        2.309   4.186   0.592  0.00  0.00    +0.190 C 
ATOM     15  N   LIG    1        3.493   4.524  -0.231  0.00  0.00    -0.530 NA
ATOM     16  C   LIG    1        4.791   4.354   0.458  0.00  0.00    +0.210 C 
ATOM     17  C   LIG    1        4.768   4.851   1.878  0.00  0.00    -0.010 C 
BRANCH  11  19
ATOM     18  C   LIG    1        4.726   2.778   5.125  0.00  0.00    +0.000 C 
ATOM     19  C   LIG    1        4.871   4.011   4.232  0.00  0.00    +0.000 C 
ENDBRANCH  11  19
ENDBRANCH   1  15
BRANCH   1  20
ATOM     20  C   LIG    1        4.514   6.122  -1.749  0.00  0.00    +0.190 A 
ATOM     21  N   LIG    1        4.972   5.296  -2.659  0.00  0.00    -0.270 NA
ATOM     22  N   LIG    1        5.950   5.874  -3.265  0.00  0.00    -0.070 NA
ATOM     23  N   LIG    1        6.134   7.044  -2.762  0.00  0.00    -0.090 NA
ATOM     24  N   LIG    1        5.268   7.234  -1.824  0.00  0.00    -0.280 N 
BRANCH  24  25
ATOM     25  C   LIG    1        5.132   8.435  -0.996  0.00  0.00    +0.200 C 
ATOM     26  C   LIG    1        5.963   9.659  -1.385  0.00  0.00    +0.090 C 
ATOM     27  C   LIG    1        6.334   8.846  -0.144  0.00  0.00    +0.070 C 
ENDBRANCH  24  25
ENDBRANCH   1  20
TORSDOF 5
