REMARK  Name = ZINCpk00000y6xL0.0
REMARK                            x       y       z     vdW  Elec       q    Type
REMARK                         _______ _______ _______ _____ _____    ______ ____
ROOT
ATOM      1  C   LIG    1       -7.254   4.802  -3.472  0.00  0.00    +0.210 C 
ATOM      2  C   LIG    1       -6.997   4.240  -2.069  0.00  0.00    +0.280 C 
ATOM      3  N   LIG    1       -5.676   3.591  -2.064  0.00  0.00    -0.620 N 
ATOM      4  C   LIG    1       -5.378   2.621  -3.130  0.00  0.00    +0.250 C 
ATOM      5  C   LIG    1       -5.716   3.257  -4.478  0.00  0.00    +0.220 C 
ATOM      6  C   LIG    1       -4.764   3.881  -1.115  0.00  0.00    +0.520 C 
ATOM      7  O   LIG    1       -5.027   4.687  -0.248  0.00  0.00    -0.540 OA
ATOM      8  O   LIG    1       -7.051   3.767  -4.438  0.00  0.00    -0.360 OA
ENDROOT
BRANCH   1  13
ATOM      9  C   LIG    1      -10.934   4.937  -3.342  0.00  0.00    +0.560 A 
ATOM     10  N   LIG    1      -11.217   6.177  -3.713  0.00  0.00    -0.560 NA
ATOM     11  C   LIG    1      -10.252   7.027  -4.022  0.00  0.00    +0.370 A 
ATOM     12  C   LIG    1       -8.933   6.608  -3.949  0.00  0.00    -0.130 A 
ATOM     13  C   LIG    1       -8.673   5.303  -3.562  0.00  0.00    +0.220 A 
ATOM     14  N   LIG    1       -9.685   4.503  -3.266  0.00  0.00    -0.550 NA
BRANCH   9  16
ATOM     15  C   LIG    1      -11.676   2.699  -2.613  0.00  0.00    +0.300 C 
ATOM     16  N   LIG    1      -11.969   4.074  -3.026  0.00  0.00    -0.590 N 
ATOM     17  C   LIG    1      -13.357   4.535  -3.103  0.00  0.00    +0.300 C 
ENDBRANCH   9  16
ENDBRANCH   1  13
BRANCH   6  18
ATOM     18  C   LIG    1       -3.418   3.203  -1.131  0.00  0.00    +0.070 C 
BRANCH  18  19
ATOM     19  C   LIG    1       -2.580   3.707   0.045  0.00  0.00    +0.130 C 
BRANCH  19  20
ATOM     20  C   LIG    1       -1.234   3.029   0.029  0.00  0.00    +0.130 A 
ATOM     21  C   LIG    1       -0.084   3.795   0.022  0.00  0.00    -0.030 A 
ATOM     22  C   LIG    1        1.150   3.161   0.008  0.00  0.00    +0.070 A 
ATOM     23  C   LIG    1        1.180   1.775   0.000  0.00  0.00    -0.040 A 
ATOM     24  C   LIG    1       -0.013   1.076   0.008  0.00  0.00    +0.260 A 
ATOM     25  N   LIG    1       -1.167   1.712   0.017  0.00  0.00    -0.480 NA
ENDBRANCH  19  20
ENDBRANCH  18  19
ENDBRANCH   6  18
TORSDOF 5
