REMARK  Name = ZINCqH00000008dp.0
REMARK                            x       y       z     vdW  Elec       q    Type
REMARK                         _______ _______ _______ _____ _____    ______ ____
ROOT
ATOM      1  C   LIG    1       -3.125  -3.509  -2.314  0.00  0.00    -0.150 A 
ATOM      2  C   LIG    1       -1.788  -3.869  -2.134  0.00  0.00    +0.120 A 
ATOM      3  C   LIG    1       -0.786  -3.045  -2.603  0.00  0.00    +0.020 A 
ATOM      4  C   LIG    1       -1.104  -1.866  -3.255  0.00  0.00    +0.070 A 
ATOM      5  C   LIG    1       -2.429  -1.500  -3.432  0.00  0.00    -0.680 A 
ATOM      6 CL   LIG    1        0.163  -0.838  -3.849  0.00  0.00    -0.030 Cl
ATOM      7  C   LIG    1       -3.439  -2.316  -2.968  0.00  0.00    +0.200 A 
ENDROOT
BRANCH   1   9
ATOM      8  N   LIG    1       -4.076  -5.726  -1.898  0.00  0.00    -0.600 N 
ATOM      9  C   LIG    1       -4.203  -4.387  -1.814  0.00  0.00    +0.560 C 
ATOM     10  O   LIG    1       -5.206  -3.901  -1.327  0.00  0.00    -0.520 OA
BRANCH   8  11
ATOM     11  C   LIG    1       -2.891  -6.311  -2.531  0.00  0.00    +0.260 C 
ATOM     12  C   LIG    1       -1.927  -6.805  -1.451  0.00  0.00    +0.040 C 
ENDBRANCH   8  11
BRANCH   8  13
ATOM     13  C   LIG    1       -5.121  -6.597  -1.356  0.00  0.00    +0.330 C 
BRANCH  13  15
ATOM     14  C   LIG    1       -6.050  -7.968  -3.151  0.00  0.00    +0.020 C 
ATOM     15  C   LIG    1       -6.144  -6.880  -2.426  0.00  0.00    -0.140 C 
ATOM     16  C   LIG    1       -7.274  -5.912  -2.663  0.00  0.00    +0.080 C 
ENDBRANCH  13  15
ENDBRANCH   8  13
ENDBRANCH   1   9
BRANCH   5  17
ATOM     17  S   LIG    1       -2.823   0.006  -4.257  0.00  0.00    +2.690 S 
ATOM     18  O   LIG    1       -2.010   0.050  -5.421  0.00  0.00    -0.940 OA
ATOM     19  O   LIG    1       -4.241   0.083  -4.296  0.00  0.00    -0.940 OA
BRANCH  17  20
ATOM     20  N   LIG    1       -2.314   1.245  -3.284  0.00  0.00    -0.990 NA
ATOM     21  C   LIG    1       -1.011   1.886  -3.507  0.00  0.00    +0.290 C 
ATOM     22  C   LIG    1       -0.216   1.857  -2.198  0.00  0.00    +0.010 C 
ATOM     23  C   LIG    1       -1.049   2.499  -1.086  0.00  0.00    +0.030 C 
ATOM     24  C   LIG    1       -2.339   1.699  -0.886  0.00  0.00    -0.040 C 
ATOM     25  C   LIG    1       -3.156   2.323   0.247  0.00  0.00    +0.030 C 
ATOM     26  C   LIG    1       -3.158   1.726  -2.181  0.00  0.00    +0.290 C 
ENDBRANCH  17  20
ENDBRANCH   5  17
TORSDOF 6
