REMARK  Name = ZINCb80000002nUN.0
REMARK                            x       y       z     vdW  Elec       q    Type
REMARK                         _______ _______ _______ _____ _____    ______ ____
ROOT
ATOM      1  C   LIG    1       -4.428  -0.072   3.151  0.00  0.00    +0.200 C 
ATOM      2  C   LIG    1       -4.138   1.065   2.523  0.00  0.00    -0.160 C 
ENDROOT
BRANCH   2   3
ATOM      3  C   LIG    1       -5.183   1.777   1.774  0.00  0.00    +0.510 C 
ATOM      4  O   LIG    1       -6.311   1.328   1.727  0.00  0.00    -0.510 OA
BRANCH   3   5
ATOM      5  O   LIG    1       -4.889   2.929   1.138  0.00  0.00    -0.360 OA
ATOM      6  C   LIG    1       -5.970   3.578   0.418  0.00  0.00    +0.270 C 
ENDBRANCH   3   5
ENDBRANCH   2   3
BRANCH   2   7
ATOM      7  C   LIG    1       -2.740   1.623   2.581  0.00  0.00    +0.170 C 
BRANCH   7   8
ATOM      8  C   LIG    1       -1.970   1.175   1.365  0.00  0.00    +0.460 C 
ATOM      9  O   LIG    1       -2.502   0.475   0.537  0.00  0.00    -0.500 OA
BRANCH   8  10
ATOM     10  O   LIG    1       -0.692   1.554   1.203  0.00  0.00    -0.360 OA
ATOM     11  C   LIG    1       -0.013   1.086   0.008  0.00  0.00    +0.260 C 
ENDBRANCH   8  10
ENDBRANCH   7   8
ENDBRANCH   2   7
TORSDOF 5
