REMARK  Name = ZINCpk00000y6wJY.0
REMARK                            x       y       z     vdW  Elec       q    Type
REMARK                         _______ _______ _______ _____ _____    ______ ____
ROOT
ATOM      1  C   LIG    1        1.349   1.574   0.006  0.00  0.00    +0.140 C 
ATOM      2  C   LIG    1        1.218   3.099   0.019  0.00  0.00    +0.050 C 
ATOM      3  C   LIG    1        0.417   3.533   1.249  0.00  0.00    +0.030 C 
ATOM      4  C   LIG    1        1.160   3.100   2.517  0.00  0.00    +0.260 C 
ATOM      5  N   LIG    1        1.417   1.655   2.444  0.00  0.00    -0.600 N 
ATOM      6  C   LIG    1        1.033   0.838   3.444  0.00  0.00    +0.570 C 
ATOM      7  O   LIG    1        1.156  -0.366   3.327  0.00  0.00    -0.520 OA
ATOM      8  C   LIG    1        2.102   1.119   1.260  0.00  0.00    +0.270 C 
ENDROOT
BRANCH   6   9
ATOM      9  C   LIG    1        0.464   1.404   4.682  0.00  0.00    -0.150 A 
ATOM     10  C   LIG    1        1.163   2.383   5.388  0.00  0.00    +0.070 A 
ATOM     11  C   LIG    1        0.632   2.915   6.544  0.00  0.00    -0.010 A 
ATOM     12  C   LIG    1       -0.596   2.473   7.010  0.00  0.00    +0.080 A 
ATOM     13  C   LIG    1       -1.294   1.507   6.321  0.00  0.00    -0.170 A 
ATOM     14  C   LIG    1       -2.636   0.846   6.573  0.00  0.00    -0.050 C 
ATOM     15  C   LIG    1       -2.526  -0.214   7.671  0.00  0.00    +0.050 C 
ATOM     16  C   LIG    1       -3.700   1.887   6.925  0.00  0.00    +0.050 C 
ATOM     17  C   LIG    1       -2.933   0.194   5.202  0.00  0.00    +0.240 C 
ATOM     18  O   LIG    1       -1.619   0.012   4.646  0.00  0.00    -0.290 OA
ATOM     19  C   LIG    1       -0.782   0.953   5.154  0.00  0.00    +0.160 A 
ENDBRANCH   6   9
BRANCH   1  20
ATOM     20  O   LIG    1        0.047   0.984  -0.009  0.00  0.00    -0.550 OA
ATOM     21  H   LIG    1        0.054   0.017  -0.018  0.00  0.00    +0.390 HD
ENDBRANCH   1  20
BRANCH   1  22
ATOM     22  C   LIG    1        2.121   1.139  -1.241  0.00  0.00    +0.050 C 
BRANCH  22  26
ATOM     23  C   LIG    1        3.024  -2.435  -2.276  0.00  0.00    +0.280 C 
ATOM     24  N   LIG    1        2.898  -0.975  -2.264  0.00  0.00    -0.730 N 
ATOM     25  H   LIG    1        3.280  -0.450  -2.984  0.00  0.00    +0.400 HD
ATOM     26  C   LIG    1        2.251  -0.363  -1.253  0.00  0.00    +0.510 C 
ATOM     27  O   LIG    1        1.772  -1.020  -0.353  0.00  0.00    -0.530 OA
ENDBRANCH  22  26
ENDBRANCH   1  22
TORSDOF 4
