REMARK  Name = ZINCqH0000007BAt.0
REMARK                            x       y       z     vdW  Elec       q    Type
REMARK                         _______ _______ _______ _____ _____    ______ ____
ROOT
ATOM      1  C   LIG    1        5.260   2.356   3.507  0.00  0.00    +0.020 A 
ATOM      2  C   LIG    1        3.998   2.208   3.000  0.00  0.00    -0.010 A 
ATOM      3  C   LIG    1        3.347   1.387   3.944  0.00  0.00    +0.010 A 
ATOM      4  N   LIG    1        4.222   1.123   4.873  0.00  0.00    -0.350 NA
ATOM      5  O   LIG    1        5.288   1.649   4.651  0.00  0.00    +0.120 OA
ENDROOT
BRANCH   1  10
ATOM      6  C   LIG    1        8.644   3.910   2.993  0.00  0.00    +0.130 A 
ATOM      7  C   LIG    1        8.448   4.588   1.797  0.00  0.00    -0.060 A 
ATOM      8  C   LIG    1        7.221   4.540   1.162  0.00  0.00    +0.060 A 
ATOM      9  C   LIG    1        6.183   3.817   1.712  0.00  0.00    +0.000 A 
ATOM     10  C   LIG    1        6.370   3.132   2.914  0.00  0.00    +0.010 A 
ATOM     11  C   LIG    1        7.607   3.186   3.557  0.00  0.00    +0.010 A 
BRANCH   6  13
ATOM     12  C   LIG    1       10.875   4.731   2.978  0.00  0.00    +0.250 C 
ATOM     13  O   LIG    1        9.852   3.961   3.613  0.00  0.00    -0.310 OA
ENDBRANCH   6  13
ENDBRANCH   1  10
BRANCH   3  14
ATOM     14  C   LIG    1        1.921   0.903   3.887  0.00  0.00    +0.350 C 
BRANCH  14  15
ATOM     15  O   LIG    1        1.283   1.421   2.690  0.00  0.00    -0.350 OA
BRANCH  15  16
ATOM     16  C   LIG    1        0.000   1.080   2.488  0.00  0.00    +0.470 C 
ATOM     17  O   LIG    1       -0.570   0.373   3.285  0.00  0.00    -0.490 OA
BRANCH  16  18
ATOM     18  C   LIG    1       -0.729   1.579   1.267  0.00  0.00    -0.000 C 
ATOM     19  C   LIG    1       -0.750   3.109   1.275  0.00  0.00    +0.080 C 
ATOM     20  C   LIG    1       -0.013   1.086   0.008  0.00  0.00    +0.080 C 
BRANCH  18  21
ATOM     21  C   LIG    1       -2.143   1.058   1.278  0.00  0.00    -0.130 A 
ATOM     22  C   LIG    1       -2.996   1.365   2.326  0.00  0.00    +0.090 A 
ATOM     23  C   LIG    1       -4.290   0.868   2.290  0.00  0.00    -0.030 A 
ATOM     24  C   LIG    1       -4.679   0.078   1.225  0.00  0.00    +0.260 A 
ATOM     25  N   LIG    1       -3.838  -0.199   0.248  0.00  0.00    -0.480 NA
ATOM     26  C   LIG    1       -2.603   0.262   0.245  0.00  0.00    +0.270 A 
ENDBRANCH  18  21
ENDBRANCH  16  18
ENDBRANCH  15  16
ENDBRANCH  14  15
ENDBRANCH   3  14
TORSDOF 7
