REMARK  Name = ZINCvU0000000DFU.0
REMARK                            x       y       z     vdW  Elec       q    Type
REMARK                         _______ _______ _______ _____ _____    ______ ____
ROOT
ATOM      1  C   LIG    1       -1.982   2.458   3.521  0.00  0.00    +0.380 C 
ATOM      2  C   LIG    1       -1.559   3.883   3.220  0.00  0.00    -0.400 C 
ATOM      3  C   LIG    1       -1.903   4.862   4.132  0.00  0.00    +0.310 C 
ATOM      4  N   LIG    1       -2.575   4.560   5.234  0.00  0.00    -0.590 NA
ATOM      5  C   LIG    1       -2.978   3.344   5.573  0.00  0.00    +0.610 A 
ATOM      6  N   LIG    1       -3.655   2.901   6.644  0.00  0.00    -0.500 NA
ATOM      7  C   LIG    1       -3.838   1.597   6.564  0.00  0.00    +0.440 A 
ATOM      8  N   LIG    1       -3.271   1.140   5.406  0.00  0.00    -0.460 N 
ATOM      9  H   LIG    1       -3.255   0.224   5.088  0.00  0.00    +0.450 HD
ATOM     10  C   LIG    1       -1.515   6.298   3.876  0.00  0.00    +0.130 C 
ATOM     11  C   LIG    1       -0.216   6.340   3.068  0.00  0.00    -0.050 C 
ATOM     12  C   LIG    1       -0.422   5.582   1.754  0.00  0.00    +0.040 C 
ATOM     13  C   LIG    1        0.156   7.793   2.768  0.00  0.00    +0.040 C 
ATOM     14  C   LIG    1        0.906   5.679   3.871  0.00  0.00    +0.030 C 
ATOM     15  C   LIG    1       -0.851   4.170   2.063  0.00  0.00    +0.420 C 
ATOM     16  O   LIG    1       -0.573   3.274   1.290  0.00  0.00    -0.510 OA
ATOM     17  N   LIG    1       -2.720   2.257   4.773  0.00  0.00    -0.410 N 
ENDROOT
BRANCH   7  18
ATOM     18  C   LIG    1       -4.542   0.767   7.562  0.00  0.00    -0.040 A 
ATOM     19  C   LIG    1       -4.678  -0.608   7.359  0.00  0.00    +0.050 A 
ATOM     20  C   LIG    1       -5.332  -1.379   8.298  0.00  0.00    +0.050 A 
ATOM     21  C   LIG    1       -5.863  -0.792   9.432  0.00  0.00    +0.080 A 
ATOM     22  C   LIG    1       -5.737   0.572   9.637  0.00  0.00    -0.040 A 
ATOM     23 CL   LIG    1       -6.407   1.299  11.065  0.00  0.00    -0.050 Cl
ATOM     24  C   LIG    1       -5.080   1.355   8.710  0.00  0.00    +0.120 A 
ENDBRANCH   7  18
BRANCH   1  30
ATOM     25  C   LIG    1        0.059   1.592   4.693  0.00  0.00    +0.150 A 
ATOM     26  C   LIG    1        1.194   0.796   4.730  0.00  0.00    -0.090 A 
ATOM     27  C   LIG    1        1.526   0.017   3.638  0.00  0.00    +0.050 A 
ATOM     28  C   LIG    1        0.728   0.030   2.510  0.00  0.00    -0.030 A 
ATOM     29  C   LIG    1       -0.404   0.824   2.470  0.00  0.00    +0.100 A 
ATOM     30  C   LIG    1       -0.744   1.599   3.562  0.00  0.00    -0.150 A 
BRANCH  25  32
ATOM     31  C   LIG    1        0.599   2.297   6.899  0.00  0.00    +0.240 C 
ATOM     32  O   LIG    1       -0.270   2.359   5.766  0.00  0.00    -0.310 OA
ENDBRANCH  25  32
ENDBRANCH   1  30
TORSDOF 3
