REMARK  Name = ZINCqH00000508Hm.0
REMARK                            x       y       z     vdW  Elec       q    Type
REMARK                         _______ _______ _______ _____ _____    ______ ____
ROOT
ATOM      1  O   LIG    1       -1.150   8.749   1.015  0.00  0.00    -0.330 OA
ENDROOT
BRANCH   1   2
ATOM      2  C   LIG    1       -0.145   7.878   1.237  0.00  0.00    +0.500 C 
ATOM      3  O   LIG    1        1.008   8.268   1.245  0.00  0.00    -0.510 OA
BRANCH   2   4
ATOM      4  C   LIG    1       -0.431   6.507   1.460  0.00  0.00    -0.060 C 
ATOM      5  C   LIG    1        0.576   5.634   1.682  0.00  0.00    +0.160 C 
BRANCH   5   6
ATOM      6  C   LIG    1        0.279   4.214   1.913  0.00  0.00    -0.080 A 
ATOM      7  C   LIG    1       -1.045   3.763   1.904  0.00  0.00    +0.070 A 
ATOM      8  C   LIG    1       -1.320   2.429   2.116  0.00  0.00    +0.040 A 
ATOM      9  C   LIG    1       -0.287   1.531   2.349  0.00  0.00    +0.050 A 
ATOM     10  O   LIG    1       -0.298   0.188   2.584  0.00  0.00    -0.300 OA
ATOM     11  C   LIG    1        0.993  -0.116   3.145  0.00  0.00    +0.440 C 
ATOM     12  O   LIG    1        1.851   0.905   2.603  0.00  0.00    -0.310 OA
ATOM     13  C   LIG    1        1.037   1.974   2.360  0.00  0.00    +0.030 A 
ATOM     14  C   LIG    1        1.321   3.307   2.144  0.00  0.00    +0.070 A 
ENDBRANCH   5   6
ENDBRANCH   2   4
ENDBRANCH   1   2
BRANCH   1  15
ATOM     15  C   LIG    1       -0.789  10.115   0.798  0.00  0.00    +0.220 C 
BRANCH  15  16
ATOM     16  C   LIG    1       -2.034  10.934   0.569  0.00  0.00    +0.400 C 
ATOM     17  O   LIG    1       -3.122  10.400   0.591  0.00  0.00    -0.420 OA
BRANCH  16  22
ATOM     18  C   LIG    1       -1.619  16.584  -0.403  0.00  0.00    +0.100 C 
ATOM     19  C   LIG    1       -1.728  15.103  -0.148  0.00  0.00    -0.040 A 
ATOM     20  C   LIG    1       -2.958  14.477  -0.243  0.00  0.00    +0.000 A 
ATOM     21  C   LIG    1       -3.066  13.122  -0.011  0.00  0.00    -0.020 A 
ATOM     22  C   LIG    1       -1.927  12.380   0.321  0.00  0.00    -0.180 A 
ATOM     23  C   LIG    1       -0.688  13.021   0.420  0.00  0.00    +0.060 A 
ATOM     24  C   LIG    1       -4.406  12.442  -0.115  0.00  0.00    +0.100 C 
ATOM     25  C   LIG    1       -0.596  14.376   0.180  0.00  0.00    -0.110 A 
ATOM     26  C   LIG    1        0.739  15.068   0.281  0.00  0.00    +0.090 C 
ENDBRANCH  16  22
ENDBRANCH  15  16
ENDBRANCH   1  15
TORSDOF 6
