REMARK  Name = ZINCrH000004tRlQ.0
REMARK                            x       y       z     vdW  Elec       q    Type
REMARK                         _______ _______ _______ _____ _____    ______ ____
ROOT
ATOM      1  C   LIG    1       -3.040  -5.733   0.094  0.00  0.00    +0.160 A 
ATOM      2  C   LIG    1       -4.309  -5.192  -0.076  0.00  0.00    +0.030 A 
ATOM      3  C   LIG    1       -5.422  -6.000   0.017  0.00  0.00    +0.040 A 
ATOM      4  C   LIG    1       -5.274  -7.360   0.292  0.00  0.00    -0.030 A 
ATOM      5  C   LIG    1       -3.998  -7.899   0.467  0.00  0.00    +0.090 A 
ATOM      6  C   LIG    1       -2.889  -7.087   0.368  0.00  0.00    +0.000 A 
ENDROOT
BRANCH   4   7
ATOM      7  C   LIG    1       -6.466  -8.229   0.398  0.00  0.00    +0.220 A 
ATOM      8  N   LIG    1       -6.492  -9.542   0.301  0.00  0.00    -0.280 NA
ATOM      9  N   LIG    1       -7.698  -9.965   0.453  0.00  0.00    -0.290 NA
ATOM     10  C   LIG    1       -8.502  -8.958   0.647  0.00  0.00    +0.190 A 
ATOM     11  C   LIG    1       -9.989  -9.012   0.884  0.00  0.00    +0.150 C 
ATOM     12  C   LIG    1      -10.675  -7.969  -0.004  0.00  0.00    +0.030 C 
ATOM     13  C   LIG    1      -10.733  -6.631   0.727  0.00  0.00    +0.020 C 
ATOM     14  C   LIG    1       -9.504  -6.451   1.616  0.00  0.00    +0.030 C 
ATOM     15  C   LIG    1       -8.238  -6.452   0.753  0.00  0.00    +0.290 C 
ATOM     16  N   LIG    1       -7.752  -7.824   0.609  0.00  0.00    -0.470 N 
ENDBRANCH   4   7
BRANCH   1  19
ATOM     17  O   LIG    1       -2.939  -3.555  -1.430  0.00  0.00    -0.490 OA
ATOM     18  C   LIG    1       -1.956  -3.797  -0.761  0.00  0.00    +0.530 C 
ATOM     19  N   LIG    1       -1.913  -4.912  -0.005  0.00  0.00    -0.660 N 
ATOM     20  H   LIG    1       -1.100  -5.144   0.470  0.00  0.00    +0.420 HD
BRANCH  18  21
ATOM     21  C   LIG    1       -0.784  -2.850  -0.776  0.00  0.00    +0.100 C 
BRANCH  21  22
ATOM     22  S   LIG    1       -1.145  -1.457  -1.880  0.00  0.00    -0.000 S 
BRANCH  22  23
ATOM     23  C   LIG    1        0.314  -0.475  -1.769  0.00  0.00    -0.060 A 
ATOM     24  C   LIG    1        0.433   0.714  -2.489  0.00  0.00    -0.010 A 
ATOM     25  C   LIG    1        1.591   1.454  -2.374  0.00  0.00    +0.280 A 
ATOM     26  N   LIG    1        2.578   1.050  -1.596  0.00  0.00    -0.490 NA
ATOM     27  C   LIG    1        2.503  -0.069  -0.898  0.00  0.00    +0.280 A 
ATOM     28  C   LIG    1        1.380  -0.866  -0.958  0.00  0.00    -0.060 A 
ENDBRANCH  22  23
ENDBRANCH  21  22
ENDBRANCH  18  21
ENDBRANCH   1  19
TORSDOF 5
