REMARK  Name = ZINCpk00000xJ0Vr.0
REMARK                            x       y       z     vdW  Elec       q    Type
REMARK                         _______ _______ _______ _____ _____    ______ ____
ROOT
ATOM      1  O   LIG    1       -0.532   6.551  -1.009  0.00  0.00    -0.540 OA
ATOM      2  C   LIG    1       -0.272   6.359   0.160  0.00  0.00    +0.520 C 
ATOM      3  N   LIG    1       -0.756   7.191   1.103  0.00  0.00    -0.710 N 
ATOM      4  H   LIG    1       -0.548   7.037   2.038  0.00  0.00    +0.410 HD
ENDROOT
BRANCH   3   5
ATOM      5  CA  LIG    1       -1.597   8.327   0.717  0.00  0.00    +0.300 C 
BRANCH   5   6
ATOM      6  C   LIG    1       -1.504   9.402   1.769  0.00  0.00    -0.080 A 
ATOM      7  C   LIG    1       -1.478   9.057   3.108  0.00  0.00    +0.030 A 
ATOM      8  C   LIG    1       -1.392  10.041   4.075  0.00  0.00    +0.030 A 
ATOM      9  C   LIG    1       -1.331  11.371   3.707  0.00  0.00    -0.010 A 
ATOM     10  C   LIG    1       -1.356  11.719   2.364  0.00  0.00    +0.110 A 
ATOM     11  C   LIG    1       -1.438  10.730   1.395  0.00  0.00    -0.010 A 
BRANCH  10  12
ATOM     12  O   LIG    1       -1.296  13.027   1.998  0.00  0.00    -0.500 OA
ATOM     13  H   LIG    1       -0.397  13.356   1.863  0.00  0.00    +0.390 HD
ENDBRANCH  10  12
ENDBRANCH   5   6
BRANCH   5  14
ATOM     14  C   LIG    1       -3.050   7.865   0.587  0.00  0.00    +0.190 C 
BRANCH  14  15
ATOM     15  O   LIG    1       -3.535   7.454   1.867  0.00  0.00    -0.570 OA
ATOM     16  H   LIG    1       -4.452   7.148   1.860  0.00  0.00    +0.380 HD
ENDBRANCH  14  15
ENDBRANCH   5  14
ENDBRANCH   3   5
BRANCH   2  17
ATOM     17  C   LIG    1        0.593   5.191   0.557  0.00  0.00    +0.040 C 
BRANCH  17  18
ATOM     18  C   LIG    1        1.006   4.413  -0.694  0.00  0.00    +0.360 C 
BRANCH  18  19
ATOM     19  N   LIG    1        1.846   3.277  -0.307  0.00  0.00    -0.390 N 
ATOM     20  N   LIG    1        3.244   3.290  -0.190  0.00  0.00    -0.520 N 
ATOM     21  H   LIG    1        3.825   4.050  -0.350  0.00  0.00    +0.430 HD
ATOM     22  C   LIG    1        3.636   2.053   0.186  0.00  0.00    +0.540 A 
ATOM     23  C   LIG    1        2.478   1.259   0.306  0.00  0.00    -0.310 A 
ATOM     24  C   LIG    1        2.396  -0.194   0.703  0.00  0.00    +0.110 C 
ATOM     25  C   LIG    1        0.947  -0.508   1.096  0.00  0.00    +0.020 C 
ATOM     26  C   LIG    1        0.002  -0.004   0.002  0.00  0.00    +0.040 C 
ATOM     27  C   LIG    1       -0.019   1.529   0.010  0.00  0.00    +0.120 C 
ATOM     28  O   LIG    1        4.782   1.691   0.386  0.00  0.00    -0.550 OA
ATOM     29  C   LIG    1        1.407   2.026  -0.001  0.00  0.00    +0.180 A 
ENDBRANCH  18  19
ENDBRANCH  17  18
ENDBRANCH   2  17
TORSDOF 8
