REMARK  Name = ZINCqH0000034w4s.0
REMARK                            x       y       z     vdW  Elec       q    Type
REMARK                         _______ _______ _______ _____ _____    ______ ____
ROOT
ATOM      1  C   LIG    1       -6.015   3.993   1.666  0.00  0.00    +0.560 C 
ATOM      2  N   LIG    1       -6.000   3.580   2.949  0.00  0.00    -0.670 N 
ATOM      3  H   LIG    1       -5.179   3.240   3.339  0.00  0.00    +0.410 HD
ATOM      4  O   LIG    1       -7.061   4.341   1.152  0.00  0.00    -0.490 OA
ENDROOT
BRANCH   2   5
ATOM      5  C   LIG    1       -7.166   3.641   3.717  0.00  0.00    +0.140 A 
ATOM      6  C   LIG    1       -8.396   3.412   3.122  0.00  0.00    +0.020 A 
ATOM      7  C   LIG    1       -9.547   3.473   3.884  0.00  0.00    +0.030 A 
ATOM      8  C   LIG    1       -9.465   3.764   5.230  0.00  0.00    -0.010 A 
ATOM      9  C   LIG    1       -8.234   3.999   5.831  0.00  0.00    -0.060 A 
ATOM     10  C   LIG    1       -8.223   4.328   7.302  0.00  0.00    +0.080 C 
ATOM     11  C   LIG    1       -6.827   4.109   7.889  0.00  0.00    +0.020 C 
ATOM     12  C   LIG    1       -5.819   4.866   7.015  0.00  0.00    +0.020 C 
ATOM     13  C   LIG    1       -5.715   4.149   5.670  0.00  0.00    +0.060 C 
ATOM     14  C   LIG    1       -7.084   3.928   5.081  0.00  0.00    -0.100 A 
ENDBRANCH   2   5
BRANCH   1  19
ATOM     15  C   LIG    1       -2.393   3.653   0.735  0.00  0.00    -0.690 A 
ATOM     16  C   LIG    1       -2.412   4.082  -0.581  0.00  0.00    +0.180 A 
ATOM     17  C   LIG    1       -3.599   4.474  -1.171  0.00  0.00    +0.020 A 
ATOM     18  C   LIG    1       -4.775   4.449  -0.447  0.00  0.00    +0.070 A 
ATOM     19  C   LIG    1       -4.762   4.022   0.884  0.00  0.00    -0.150 A 
ATOM     20 CL   LIG    1       -6.264   4.949  -1.187  0.00  0.00    -0.010 Cl
ATOM     21  C   LIG    1       -3.560   3.623   1.470  0.00  0.00    +0.170 A 
BRANCH  15  22
ATOM     22  S   LIG    1       -0.875   3.150   1.474  0.00  0.00    +2.690 S 
ATOM     23  O   LIG    1        0.160   3.783   0.735  0.00  0.00    -0.940 OA
ATOM     24  O   LIG    1       -1.039   3.311   2.876  0.00  0.00    -0.950 OA
BRANCH  22  26
ATOM     25  C   LIG    1       -0.034   1.044  -0.000  0.00  0.00    +0.310 C 
ATOM     26  N   LIG    1       -0.714   1.524   1.206  0.00  0.00    -1.000 NA
ATOM     27  C   LIG    1       -1.252   0.565   2.174  0.00  0.00    +0.310 C 
ENDBRANCH  22  26
ENDBRANCH  15  22
ENDBRANCH   1  19
TORSDOF 4
