REMARK  Name = ZINCvU000000049s.0
REMARK                            x       y       z     vdW  Elec       q    Type
REMARK                         _______ _______ _______ _____ _____    ______ ____
ROOT
ATOM      1  N   LIG    1        1.178  -0.662  -0.013  0.00  0.00    -0.700 N 
ATOM      2  H   LIG    1        2.012  -0.166  -0.018  0.00  0.00    +0.410 HD
ATOM      3  C   LIG    1        0.002  -0.004   0.002  0.00  0.00    +0.590 C 
ATOM      4  O   LIG    1       -1.042  -0.626   0.009  0.00  0.00    -0.520 OA
ENDROOT
BRANCH   3   5
ATOM      5  C   LIG    1       -0.018   1.475   0.010  0.00  0.00    -0.030 A 
ATOM      6  C   LIG    1       -1.234   2.156   0.020  0.00  0.00    +0.350 A 
ATOM      7  N   LIG    1       -1.251   3.476   0.032  0.00  0.00    -0.500 NA
ATOM      8  C   LIG    1       -0.111   4.154   0.025  0.00  0.00    +0.300 A 
ATOM      9  C   LIG    1        1.107   3.472   0.010  0.00  0.00    +0.240 A 
ATOM     10  N   LIG    1        1.126   2.157   0.003  0.00  0.00    -0.380 NA
BRANCH   8  11
ATOM     11  O   LIG    1       -0.129   5.509   0.031  0.00  0.00    -0.280 OA
BRANCH  11  12
ATOM     12  C   LIG    1       -1.410   6.141   0.046  0.00  0.00    +0.270 C 
BRANCH  12  13
ATOM     13  C   LIG    1       -1.232   7.637   0.051  0.00  0.00    -0.100 A 
ATOM     14  C   LIG    1       -1.145   8.318   1.251  0.00  0.00    +0.030 A 
ATOM     15  C   LIG    1       -0.977   9.691   1.256  0.00  0.00    +0.010 A 
ATOM     16  C   LIG    1       -0.907  10.382   0.061  0.00  0.00    +0.020 A 
ATOM     17  C   LIG    1       -0.999   9.702  -1.138  0.00  0.00    +0.010 A 
ATOM     18  C   LIG    1       -1.162   8.329  -1.143  0.00  0.00    +0.030 A 
ENDBRANCH  12  13
ENDBRANCH  11  12
ENDBRANCH   8  11
ENDBRANCH   3   5
BRANCH   1  19
ATOM     19  C   LIG    1        1.198  -2.127  -0.021  0.00  0.00    +0.290 C 
BRANCH  19  20
ATOM     20  C   LIG    1        2.498  -2.615   0.565  0.00  0.00    -0.090 A 
ATOM     21  C   LIG    1        3.680  -1.966   0.260  0.00  0.00    +0.050 A 
ATOM     22  C   LIG    1        4.872  -2.411   0.801  0.00  0.00    +0.020 A 
ATOM     23  C   LIG    1        4.883  -3.510   1.638  0.00  0.00    +0.070 A 
ATOM     24  C   LIG    1        3.702  -4.162   1.939  0.00  0.00    -0.180 A 
ATOM     25  C   LIG    1        2.509  -3.715   1.402  0.00  0.00    +0.080 A 
BRANCH  24  26
ATOM     26  C   LIG    1        3.714  -5.361   2.852  0.00  0.00    +0.510 C 
ATOM     27  F   LIG    1        2.500  -5.434   3.542  0.00  0.00    -0.180 F 
ATOM     28  F   LIG    1        4.765  -5.239   3.768  0.00  0.00    -0.180 F 
ATOM     29  F   LIG    1        3.889  -6.524   2.093  0.00  0.00    -0.170 F 
ENDBRANCH  24  26
ENDBRANCH  19  20
BRANCH  19  31
ATOM     30  C   LIG    1       -0.254  -2.135  -2.054  0.00  0.00    +0.030 C 
ATOM     31  C   LIG    1        1.066  -2.631  -1.459  0.00  0.00    -0.020 C 
ATOM     32  C   LIG    1        2.232  -2.100  -2.295  0.00  0.00    +0.020 C 
ENDBRANCH  19  31
ENDBRANCH   1  19
TORSDOF 8
