REMARK  Name = ZINCpk000000nPok.0
REMARK                            x       y       z     vdW  Elec       q    Type
REMARK                         _______ _______ _______ _____ _____    ______ ____
ROOT
ATOM      1  N   LIG    1        7.080   4.808  -0.043  0.00  0.00    -0.410 N 
ATOM      2  C   LIG    1        7.863   5.037   1.029  0.00  0.00    +0.510 A 
ATOM      3  N   LIG    1        9.101   5.212   0.642  0.00  0.00    -0.490 NA
ATOM      4  C   LIG    1        9.177   5.116  -0.688  0.00  0.00    +0.320 A 
ATOM      5  N   LIG    1       10.214   5.220  -1.601  0.00  0.00    -0.510 N 
ATOM      6  C   LIG    1       11.575   5.492  -1.134  0.00  0.00    +0.350 C 
ATOM      7  C   LIG    1        9.972   5.070  -2.917  0.00  0.00    +0.710 A 
ATOM      8  O   LIG    1       10.895   5.164  -3.704  0.00  0.00    -0.530 OA
ATOM      9  N   LIG    1        8.736   4.819  -3.384  0.00  0.00    -0.550 N 
ATOM     10  C   LIG    1        8.527   4.665  -4.825  0.00  0.00    +0.350 C 
ATOM     11  C   LIG    1        7.686   4.708  -2.544  0.00  0.00    +0.600 A 
ATOM     12  O   LIG    1        6.571   4.481  -2.978  0.00  0.00    -0.510 OA
ATOM     13  C   LIG    1        7.895   4.857  -1.156  0.00  0.00    -0.150 A 
ENDROOT
BRANCH   1  14
ATOM     14  C   LIG    1        5.636   4.561  -0.030  0.00  0.00    +0.340 C 
BRANCH  14  15
ATOM     15  C   LIG    1        5.380   3.076  -0.035  0.00  0.00    +0.390 C 
ATOM     16  O   LIG    1        6.313   2.300  -0.048  0.00  0.00    -0.430 OA
BRANCH  15  20
ATOM     17  C   LIG    1        1.401   1.607  -0.003  0.00  0.00    -0.040 A 
ATOM     18  C   LIG    1        1.631   2.972  -0.003  0.00  0.00    +0.000 A 
ATOM     19  C   LIG    1        2.922   3.457  -0.008  0.00  0.00    +0.060 A 
ATOM     20  C   LIG    1        4.000   2.566  -0.024  0.00  0.00    -0.170 A 
ATOM     21  C   LIG    1        3.759   1.189  -0.028  0.00  0.00    +0.080 A 
ATOM     22  C   LIG    1        2.462   0.719  -0.018  0.00  0.00    +0.000 A 
BRANCH  17  24
ATOM     23  C   LIG    1       -0.753   1.593  -1.232  0.00  0.00    +0.030 C 
ATOM     24  C   LIG    1       -0.013   1.086   0.008  0.00  0.00    +0.020 C 
ATOM     25  C   LIG    1       -0.729   1.579   1.267  0.00  0.00    +0.030 C 
ENDBRANCH  17  24
ENDBRANCH  15  20
ENDBRANCH  14  15
ENDBRANCH   1  14
TORSDOF 4
