REMARK  Name = ZINCtV000002tOCZ.1
REMARK                            x       y       z     vdW  Elec       q    Type
REMARK                         _______ _______ _______ _____ _____    ______ ____
ROOT
ATOM      1  C   LIG    1        2.038   6.324  -0.076  0.00  0.00    +0.050 C 
ENDROOT
BRANCH   1   4
ATOM      2  N   LIG    1        1.818   8.774   0.180  0.00  0.00    -0.630 N 
ATOM      3  H   LIG    1        1.510   8.811  -0.739  0.00  0.00    +0.430 HD
ATOM      4  C   LIG    1        2.147   7.590   0.734  0.00  0.00    +0.510 C 
ATOM      5  O   LIG    1        2.533   7.544   1.883  0.00  0.00    -0.460 OA
BRANCH   2   9
ATOM      6  C   LIG    1        1.983  12.161   1.954  0.00  0.00    +0.030 A 
ATOM      7  N   LIG    1        2.351  11.164   2.695  0.00  0.00    -0.220 NA
ATOM      8  N   LIG    1        2.312  10.020   2.163  0.00  0.00    -0.270 NA
ATOM      9  C   LIG    1        1.919   9.943   0.927  0.00  0.00    +0.220 A 
ATOM     10  S   LIG    1        1.541  11.519   0.372  0.00  0.00    +0.100 S 
BRANCH   6  11
ATOM     11  C   LIG    1        1.941  13.609   2.369  0.00  0.00    +0.090 C 
BRANCH  11  13
ATOM     12  C   LIG    1        0.849  15.258   3.895  0.00  0.00    +0.030 C 
ATOM     13  C   LIG    1        0.988  13.773   3.554  0.00  0.00    +0.030 C 
ENDBRANCH  11  13
BRANCH  11  14
ATOM     14  C   LIG    1        3.344  14.064   2.776  0.00  0.00    +0.040 C 
ATOM     15  C   LIG    1        4.269  14.018   1.559  0.00  0.00    +0.010 C 
ENDBRANCH  11  14
ENDBRANCH   6  11
ENDBRANCH   2   9
ENDBRANCH   1   4
BRANCH   1  16
ATOM     16  C   LIG    1        2.468   5.132   0.781  0.00  0.00    +0.320 C 
BRANCH  16  17
ATOM     17  N   LIG    1        2.361   3.901  -0.005  0.00  0.00    -0.580 N 
ATOM     18  C   LIG    1        1.160   3.183   0.007  0.00  0.00    +0.190 A 
ATOM     19  C   LIG    1       -0.053   3.852   0.024  0.00  0.00    -0.020 A 
ATOM     20  C   LIG    1       -1.238   3.136   0.032  0.00  0.00    +0.050 A 
ATOM     21  C   LIG    1       -1.220   1.754   0.017  0.00  0.00    +0.000 A 
ATOM     22  C   LIG    1       -0.013   1.076   0.008  0.00  0.00    +0.070 A 
ATOM     23  C   LIG    1        1.174   1.786   0.000  0.00  0.00    -0.150 A 
ATOM     24  S   LIG    1        2.725   0.944  -0.016  0.00  0.00    +0.010 S 
ATOM     25  C   LIG    1        3.756   2.106  -0.853  0.00  0.00    -0.150 A 
ATOM     26  C   LIG    1        4.839   1.678  -1.598  0.00  0.00    +0.070 A 
ATOM     27  C   LIG    1        5.638   2.605  -2.246  0.00  0.00    +0.000 A 
ATOM     28  C   LIG    1        5.353   3.954  -2.148  0.00  0.00    +0.050 A 
ATOM     29  C   LIG    1        4.269   4.388  -1.404  0.00  0.00    -0.020 A 
ATOM     30  C   LIG    1        3.463   3.468  -0.753  0.00  0.00    +0.190 A 
ENDBRANCH  16  17
ENDBRANCH   1  16
TORSDOF 7
