REMARK  Name = ZINCrH000004mksZ.0
REMARK                            x       y       z     vdW  Elec       q    Type
REMARK                         _______ _______ _______ _____ _____    ______ ____
ROOT
ATOM      1  N   LIG    1        7.992  -0.423  -0.076  0.00  0.00    -0.660 N 
ATOM      2  H   LIG    1        8.461  -1.269  -0.004  0.00  0.00    +0.420 HD
ATOM      3  C   LIG    1        8.688   0.727  -0.178  0.00  0.00    +0.510 C 
ATOM      4  O   LIG    1        8.106   1.791  -0.167  0.00  0.00    -0.520 OA
ENDROOT
BRANCH   1  17
ATOM      5  C   LIG    1        5.879  -1.433   0.530  0.00  0.00    +0.090 A 
ATOM      6  C   LIG    1        4.498  -1.411   0.534  0.00  0.00    +0.000 A 
ATOM      7  C   LIG    1        3.822  -0.351  -0.065  0.00  0.00    -0.100 A 
ATOM      8  C   LIG    1        4.534   0.692  -0.672  0.00  0.00    +0.080 A 
ATOM      9  O   LIG    1        3.648   1.583  -1.172  0.00  0.00    -0.200 OA
ATOM     10  C   LIG    1        2.374   1.200  -0.936  0.00  0.00    +0.090 A 
ATOM     11  C   LIG    1        1.150   1.778  -1.252  0.00  0.00    +0.030 A 
ATOM     12  C   LIG    1       -0.024   1.158  -0.881  0.00  0.00    +0.060 A 
ATOM     13  C   LIG    1        0.001  -0.044  -0.192  0.00  0.00    -0.010 A 
ATOM     14  C   LIG    1        1.205  -0.633   0.130  0.00  0.00    +0.070 A 
ATOM     15  C   LIG    1        5.923   0.659  -0.670  0.00  0.00    +0.070 A 
ATOM     16  C   LIG    1        2.396  -0.016  -0.239  0.00  0.00    -0.120 A 
ATOM     17  C   LIG    1        6.592  -0.396  -0.073  0.00  0.00    +0.160 A 
BRANCH   5  19
ATOM     18  C   LIG    1        5.751  -3.493   1.714  0.00  0.00    +0.250 C 
ATOM     19  O   LIG    1        6.544  -2.466   1.115  0.00  0.00    -0.320 OA
ENDBRANCH   5  19
ENDBRANCH   1  17
BRANCH   3  20
ATOM     20  C   LIG    1       10.189   0.690  -0.306  0.00  0.00    +0.060 C 
BRANCH  20  21
ATOM     21  C   LIG    1       10.727   2.119  -0.405  0.00  0.00    +0.030 C 
BRANCH  21  22
ATOM     22  C   LIG    1       12.252   2.082  -0.535  0.00  0.00    +0.020 C 
BRANCH  22  23
ATOM     23  C   LIG    1       12.790   3.510  -0.634  0.00  0.00    +0.010 C 
BRANCH  23  24
ATOM     24  C   LIG    1       14.314   3.473  -0.764  0.00  0.00    +0.280 C 
BRANCH  24  25
ATOM     25  N   LIG    1       14.830   4.841  -0.858  0.00  0.00    -0.750 N 
ATOM     26  H   LIG    1       14.217   5.593  -0.833  0.00  0.00    +0.400 HD
ATOM     27  C   LIG    1       16.155   5.055  -0.981  0.00  0.00    +0.700 C 
ATOM     28  O   LIG    1       16.922   4.113  -1.012  0.00  0.00    -0.590 OA
ATOM     29  N   LIG    1       16.629   6.314  -1.068  0.00  0.00    -0.870 N 
ATOM     30  H   LIG    1       17.583   6.468  -1.155  0.00  0.00    +0.420 HD
ATOM     31  H   LIG    1       16.017   7.066  -1.042  0.00  0.00    +0.400 HD
ENDBRANCH  24  25
ENDBRANCH  23  24
ENDBRANCH  22  23
ENDBRANCH  21  22
ENDBRANCH  20  21
ENDBRANCH   3  20
TORSDOF 8
