REMARK  Name = ZINCb70000002CFU.0
REMARK                            x       y       z     vdW  Elec       q    Type
REMARK                         _______ _______ _______ _____ _____    ______ ____
ROOT
ATOM      1  C   LIG    1       -0.723   1.951   1.250  0.00  0.00    -0.180 A 
ATOM      2  C   LIG    1       -0.011   2.280   2.363  0.00  0.00    +0.170 A 
ATOM      3  C   LIG    1       -0.683   2.732   3.508  0.00  0.00    +0.000 A 
ATOM      4  C   LIG    1       -2.031   2.839   3.508  0.00  0.00    +0.360 A 
ATOM      5  N   LIG    1       -2.750   2.512   2.402  0.00  0.00    -0.290 N 
ATOM      6  N   LIG    1       -4.122   2.521   2.112  0.00  0.00    -0.320 NA
ATOM      7  C   LIG    1       -4.257   2.102   0.875  0.00  0.00    +0.500 A 
ATOM      8  N   LIG    1       -3.066   1.830   0.364  0.00  0.00    -0.550 NA
ATOM      9  C   LIG    1       -2.124   2.075   1.269  0.00  0.00    +0.280 A 
ENDROOT
BRANCH   1  10
ATOM     10  C   LIG    1       -0.018   1.465   0.010  0.00  0.00    +0.360 C 
BRANCH  10  11
ATOM     11  N   LIG    1        0.002  -0.004   0.002  0.00  0.00    -0.640 N 
ATOM     12  H   LIG    1        0.474  -0.330  -0.828  0.00  0.00    +0.440 HD
ATOM     13  H   LIG    1       -0.945  -0.353   0.009  0.00  0.00    +0.440 HD
ATOM     14  H   LIG    1        0.490  -0.338   0.820  0.00  0.00    +0.430 HD
ENDBRANCH  10  11
ENDBRANCH   1  10
TORSDOF 2
