REMARK  Name = ZINCvU0000000DaA.0
REMARK                            x       y       z     vdW  Elec       q    Type
REMARK                         _______ _______ _______ _____ _____    ______ ____
ROOT
ATOM      1  C   LIG    1       -0.363  -4.131   0.315  0.00  0.00    +0.180 C 
ATOM      2  C   LIG    1       -0.393  -2.805  -0.402  0.00  0.00    +0.350 A 
ATOM      3  N   LIG    1       -1.440  -2.016  -0.242  0.00  0.00    -0.550 NA
ATOM      4  C   LIG    1       -1.512  -0.842  -0.852  0.00  0.00    +0.410 A 
ATOM      5  C   LIG    1       -0.442  -0.435  -1.686  0.00  0.00    -0.150 A 
ATOM      6  C   LIG    1       -0.263   0.785  -2.464  0.00  0.00    -0.020 A 
ATOM      7  C   LIG    1        0.880   0.841  -3.146  0.00  0.00    -0.020 A 
ATOM      8  S   LIG    1        1.842  -0.603  -2.894  0.00  0.00    +0.180 S 
ATOM      9  C   LIG    1        0.641  -1.305  -1.821  0.00  0.00    +0.090 A 
ATOM     10  N   LIG    1        0.623  -2.472  -1.164  0.00  0.00    -0.490 NA
ENDROOT
BRANCH   4  11
ATOM     11  N   LIG    1       -2.615  -0.025  -0.675  0.00  0.00    -0.470 N 
ATOM     12  C   LIG    1       -2.567   0.648   0.629  0.00  0.00    +0.200 C 
ATOM     13  C   LIG    1       -3.703   1.674   0.712  0.00  0.00    +0.290 C 
ATOM     14  N   LIG    1       -4.971   0.994   0.409  0.00  0.00    -0.620 N 
ATOM     15  C   LIG    1       -5.050   0.184  -0.816  0.00  0.00    +0.320 C 
ATOM     16  C   LIG    1       -6.031   1.108   1.232  0.00  0.00    +0.710 C 
ATOM     17  N   LIG    1       -5.980   1.949   2.284  0.00  0.00    -0.690 N 
ATOM     18  H   LIG    1       -5.154   2.411   2.497  0.00  0.00    +0.400 HD
ATOM     19  O   LIG    1       -7.035   0.453   1.026  0.00  0.00    -0.570 OA
ATOM     20  C   LIG    1       -3.862  -0.783  -0.839  0.00  0.00    +0.200 C 
BRANCH  17  21
ATOM     21  C   LIG    1       -7.119   2.156   3.071  0.00  0.00    +0.160 A 
ATOM     22  C   LIG    1       -8.031   1.127   3.260  0.00  0.00    +0.020 A 
ATOM     23  C   LIG    1       -9.151   1.333   4.040  0.00  0.00    +0.030 A 
ATOM     24  C   LIG    1       -9.371   2.567   4.625  0.00  0.00    -0.020 A 
ATOM     25  C   LIG    1       -8.467   3.596   4.434  0.00  0.00    +0.030 A 
ATOM     26  C   LIG    1       -7.342   3.394   3.659  0.00  0.00    -0.030 A 
ENDBRANCH  17  21
ENDBRANCH   4  11
BRANCH   6  27
ATOM     27  C   LIG    1       -1.272   1.871  -2.498  0.00  0.00    -0.020 A 
ATOM     28  C   LIG    1       -2.528   1.641  -3.058  0.00  0.00    +0.060 A 
ATOM     29  C   LIG    1       -3.465   2.654  -3.081  0.00  0.00    +0.000 A 
ATOM     30  C   LIG    1       -3.156   3.898  -2.561  0.00  0.00    +0.010 A 
ATOM     31  C   LIG    1       -1.910   4.133  -2.010  0.00  0.00    +0.000 A 
ATOM     32  C   LIG    1       -0.966   3.127  -1.975  0.00  0.00    +0.020 A 
ENDBRANCH   6  27
TORSDOF 3
