REMARK  Name = ZINCrH000004o9aW.0
REMARK                            x       y       z     vdW  Elec       q    Type
REMARK                         _______ _______ _______ _____ _____    ______ ____
ROOT
ATOM      1  C   LIG    1        4.770  -1.802   2.248  0.00  0.00    +0.180 A 
ATOM      2  N   LIG    1        5.482  -0.985   1.531  0.00  0.00    -0.360 NA
ATOM      3  O   LIG    1        4.776  -0.397   0.740  0.00  0.00    +0.110 OA
ATOM      4  C   LIG    1        3.508  -0.795   0.880  0.00  0.00    +0.180 A 
ATOM      5  N   LIG    1        3.493  -1.686   1.842  0.00  0.00    -0.460 NA
ENDROOT
BRANCH   1   7
ATOM      6  C   LIG    1        6.312  -3.677   2.755  0.00  0.00    +0.060 C 
ATOM      7  C   LIG    1        5.280  -2.710   3.338  0.00  0.00    +0.100 C 
BRANCH   7   8
ATOM      8  C   LIG    1        5.932  -1.869   4.437  0.00  0.00    +0.280 C 
BRANCH   8   9
ATOM      9  N   LIG    1        6.321  -2.738   5.551  0.00  0.00    -0.730 N 
ATOM     10  H   LIG    1        6.149  -3.692   5.505  0.00  0.00    +0.400 HD
ATOM     11  C   LIG    1        6.918  -2.213   6.639  0.00  0.00    +0.560 C 
ATOM     12  O   LIG    1        7.135  -1.018   6.696  0.00  0.00    -0.530 OA
BRANCH  11  13
ATOM     13  C   LIG    1        7.311  -3.090   7.762  0.00  0.00    -0.140 A 
ATOM     14  C   LIG    1        7.059  -4.462   7.702  0.00  0.00    +0.030 A 
ATOM     15  C   LIG    1        7.432  -5.276   8.752  0.00  0.00    +0.000 A 
ATOM     16  C   LIG    1        8.045  -4.733   9.867  0.00  0.00    +0.040 A 
ATOM     17  C   LIG    1        8.293  -3.374   9.936  0.00  0.00    +0.000 A 
ATOM     18  C   LIG    1        7.930  -2.550   8.890  0.00  0.00    +0.080 A 
ENDBRANCH  11  13
ENDBRANCH   8   9
ENDBRANCH   7   8
ENDBRANCH   1   7
BRANCH   4  19
ATOM     19  C   LIG    1        2.322  -0.307   0.089  0.00  0.00    +0.300 C 
ATOM     20  C   LIG    1        2.355  -0.922  -1.311  0.00  0.00    +0.080 C 
BRANCH  19  21
ATOM     21  O   LIG    1        2.371   1.117  -0.015  0.00  0.00    -0.290 OA
BRANCH  21  22
ATOM     22  C   LIG    1        1.190   1.763  -0.204  0.00  0.00    +0.080 A 
ATOM     23  C   LIG    1        0.016   1.043  -0.400  0.00  0.00    +0.000 A 
ATOM     24  C   LIG    1       -1.164   1.746  -0.588  0.00  0.00    +0.040 A 
ATOM     25  C   LIG    1       -1.135   3.129  -0.575  0.00  0.00    +0.140 A 
ATOM     26  N   LIG    1       -0.004   3.781  -0.381  0.00  0.00    -0.440 NA
ATOM     27 CL   LIG    1       -2.608   4.018  -0.809  0.00  0.00    -0.020 Cl
ATOM     28  C   LIG    1        1.139   3.149  -0.204  0.00  0.00    +0.290 A 
ENDBRANCH  21  22
ENDBRANCH  19  21
ENDBRANCH   4  19
TORSDOF 7
