REMARK  Name = ZINCpe00000FU84l.0
REMARK                            x       y       z     vdW  Elec       q    Type
REMARK                         _______ _______ _______ _____ _____    ______ ____
ROOT
ATOM      1  C   LIG    1       -0.723   1.947   1.250  0.00  0.00    +0.510 C 
ATOM      2  N   LIG    1       -0.862   3.269   1.472  0.00  0.00    -0.620 N 
ATOM      3  C   LIG    1       -0.375   4.344   0.588  0.00  0.00    +0.260 C 
ATOM      4  C   LIG    1       -0.209   5.574   1.515  0.00  0.00    +0.060 C 
ATOM      5  C   LIG    1       -1.420   5.409   2.472  0.00  0.00    +0.060 C 
ATOM      6  C   LIG    1       -1.530   3.878   2.631  0.00  0.00    +0.360 C 
ATOM      7  O   LIG    1       -1.166   1.148   2.048  0.00  0.00    -0.490 OA
ENDROOT
BRANCH   6   8
ATOM      8  C   LIG    1       -2.980   3.466   2.662  0.00  0.00    +0.180 A 
ATOM      9  N   LIG    1       -3.652   3.062   3.711  0.00  0.00    -0.420 NA
ATOM     10  C   LIG    1       -4.902   2.805   3.264  0.00  0.00    +0.140 A 
ATOM     11  N   LIG    1       -4.916   3.066   1.984  0.00  0.00    -0.350 NA
ATOM     12  O   LIG    1       -3.823   3.451   1.625  0.00  0.00    +0.100 OA
BRANCH  10  13
ATOM     13  C   LIG    1       -6.045   2.319   4.077  0.00  0.00    +0.620 C 
ATOM     14  N   LIG    1       -7.242   2.105   3.496  0.00  0.00    -0.680 N 
ATOM     15  H   LIG    1       -7.357   2.269   2.546  0.00  0.00    +0.410 HD
ATOM     16  O   LIG    1       -5.902   2.114   5.266  0.00  0.00    -0.490 OA
BRANCH  14  17
ATOM     17  C   LIG    1       -8.370   1.625   4.298  0.00  0.00    +0.210 C 
ATOM     18  C   LIG    1       -9.237   0.513   3.703  0.00  0.00    +0.020 C 
ATOM     19  C   LIG    1       -9.780   1.941   3.794  0.00  0.00    +0.030 C 
ENDBRANCH  14  17
ENDBRANCH  10  13
ENDBRANCH   6   8
BRANCH   1  20
ATOM     20  C   LIG    1       -0.018   1.461   0.010  0.00  0.00    +0.380 C 
BRANCH  20  24
ATOM     21  C   LIG    1       -0.619  -3.308  -1.411  0.00  0.00    +0.110 C 
ATOM     22  C   LIG    1       -0.257  -2.083  -0.611  0.00  0.00    -0.230 A 
ATOM     23  C   LIG    1       -0.463  -0.799  -0.985  0.00  0.00    +0.220 A 
ATOM     24  N   LIG    1        0.002  -0.004   0.002  0.00  0.00    -0.370 N 
ATOM     25  N   LIG    1        0.501  -0.827   1.020  0.00  0.00    -0.270 NA
ATOM     26  C   LIG    1        0.346  -2.073   0.651  0.00  0.00    +0.230 A 
ENDBRANCH  20  24
ENDBRANCH   1  20
TORSDOF 5
