REMARK  Name = ZINCnE00000h9ACz.1
REMARK                            x       y       z     vdW  Elec       q    Type
REMARK                         _______ _______ _______ _____ _____    ______ ____
ROOT
ATOM      1  C   LIG    1        3.737  -0.950   0.179  0.00  0.00    +0.060 C 
ENDROOT
BRANCH   1   4
ATOM      2  N   LIG    1        2.394   1.119  -0.014  0.00  0.00    -0.660 N 
ATOM      3  H   LIG    1        3.224   1.615  -0.094  0.00  0.00    +0.420 HD
ATOM      4  C   LIG    1        2.419  -0.225   0.081  0.00  0.00    +0.520 C 
ATOM      5  O   LIG    1        1.381  -0.852   0.088  0.00  0.00    -0.460 OA
BRANCH   2  11
ATOM      6  C   LIG    1       -0.114   5.352   0.048  0.00  0.00    +0.100 C 
ATOM      7  C   LIG    1       -0.055   3.847   0.032  0.00  0.00    -0.020 A 
ATOM      8  C   LIG    1       -1.219   3.090   0.033  0.00  0.00    -0.080 A 
ATOM      9  C   LIG    1       -1.130   1.712   0.024  0.00  0.00    +0.300 A 
ATOM     10  N   LIG    1        0.044   1.110   0.009  0.00  0.00    -0.480 NA
ATOM     11  C   LIG    1        1.176   1.797   0.002  0.00  0.00    +0.370 A 
ATOM     12  C   LIG    1        1.161   3.186   0.011  0.00  0.00    -0.080 A 
ENDBRANCH   2  11
ENDBRANCH   1   4
BRANCH   1  13
ATOM     13  C   LIG    1        3.485  -2.456   0.276  0.00  0.00    +0.330 C 
BRANCH  13  14
ATOM     14  N   LIG    1        4.766  -3.160   0.371  0.00  0.00    -0.500 N 
ATOM     15  C   LIG    1        5.493  -3.621  -0.666  0.00  0.00    +0.390 A 
ATOM     16  N   LIG    1        6.601  -4.203  -0.164  0.00  0.00    -0.370 NA
ATOM     17  N   LIG    1        6.538  -4.098   1.233  0.00  0.00    -0.300 NA
ATOM     18  S   LIG    1        5.085  -3.487  -2.323  0.00  0.00    -0.760 S 
ATOM     19  C   LIG    1        5.434  -3.470   1.541  0.00  0.00    +0.220 A 
BRANCH  19  20
ATOM     20  C   LIG    1        4.979  -3.149   2.904  0.00  0.00    -0.090 A 
ATOM     21  C   LIG    1        5.638  -3.462   4.040  0.00  0.00    +0.040 A 
ATOM     22  C   LIG    1        5.014  -3.051   5.199  0.00  0.00    +0.010 A 
ATOM     23  C   LIG    1        3.851  -2.415   5.022  0.00  0.00    -0.070 A 
ATOM     24  S   LIG    1        3.490  -2.303   3.304  0.00  0.00    +0.120 S 
ENDBRANCH  19  20
ENDBRANCH  13  14
ENDBRANCH   1  13
TORSDOF 5
