REMARK  Name = ZINCrH000004tZeq.0
REMARK                            x       y       z     vdW  Elec       q    Type
REMARK                         _______ _______ _______ _____ _____    ______ ____
ROOT
ATOM      1  O   LIG    1        4.496   2.354  -2.780  0.00  0.00    -0.510 OA
ATOM      2  C   LIG    1        5.182   2.411  -1.781  0.00  0.00    +0.500 C 
ATOM      3  N   LIG    1        6.494   2.112  -1.846  0.00  0.00    -0.720 N 
ATOM      4  H   LIG    1        7.057   2.224  -1.064  0.00  0.00    +0.400 HD
ENDROOT
BRANCH   3   5
ATOM      5  C   LIG    1        7.071   1.619  -3.099  0.00  0.00    +0.300 C 
BRANCH   5   6
ATOM      6  C   LIG    1        8.559   1.860  -3.096  0.00  0.00    -0.120 A 
ATOM      7  C   LIG    1        9.265   1.810  -1.909  0.00  0.00    +0.040 A 
ATOM      8  C   LIG    1       10.630   2.025  -1.907  0.00  0.00    +0.010 A 
ATOM      9  C   LIG    1       11.290   2.302  -3.090  0.00  0.00    +0.050 A 
ATOM     10  C   LIG    1       10.585   2.357  -4.278  0.00  0.00    -0.010 A 
ATOM     11  C   LIG    1        9.218   2.136  -4.282  0.00  0.00    +0.110 A 
ATOM     12  F   LIG    1        8.528   2.191  -5.442  0.00  0.00    -0.130 F 
ENDBRANCH   5   6
BRANCH   5  13
ATOM     13  C   LIG    1        6.798   0.119  -3.232  0.00  0.00    -0.010 C 
ATOM     14  C   LIG    1        7.460  -0.643  -2.065  0.00  0.00    +0.010 C 
ATOM     15  C   LIG    1        7.964  -1.959  -2.710  0.00  0.00    +0.020 C 
ATOM     16  C   LIG    1        8.456  -1.492  -4.102  0.00  0.00    +0.000 C 
ATOM     17  C   LIG    1        7.431  -0.420  -4.526  0.00  0.00    +0.020 C 
ENDBRANCH   5  13
ENDBRANCH   3   5
BRANCH   2  18
ATOM     18  C   LIG    1        4.566   2.816  -0.466  0.00  0.00    +0.370 C 
BRANCH  18  19
ATOM     19  N   LIG    1        3.139   3.086  -0.658  0.00  0.00    -0.530 N 
ATOM     20  C   LIG    1        2.589   4.274  -0.978  0.00  0.00    +0.640 A 
ATOM     21  O   LIG    1        1.256   4.140  -1.070  0.00  0.00    -0.230 OA
ATOM     22  C   LIG    1        0.920   2.853  -0.809  0.00  0.00    +0.040 A 
ATOM     23  C   LIG    1       -0.293   2.183  -0.768  0.00  0.00    +0.060 A 
ATOM     24  C   LIG    1       -0.326   0.835  -0.466  0.00  0.00    +0.030 A 
ATOM     25  C   LIG    1        0.847   0.150  -0.204  0.00  0.00    +0.040 A 
ATOM     26  C   LIG    1        2.061   0.809  -0.242  0.00  0.00    +0.030 A 
ATOM     27  O   LIG    1        3.204   5.308  -1.156  0.00  0.00    -0.480 OA
ATOM     28  C   LIG    1        2.102   2.161  -0.544  0.00  0.00    +0.080 A 
ENDBRANCH  18  19
ENDBRANCH   2  18
TORSDOF 5
