REMARK  Name = ZINCrD000000AmH0.2
REMARK                            x       y       z     vdW  Elec       q    Type
REMARK                         _______ _______ _______ _____ _____    ______ ____
ROOT
ATOM      1  O   LIG    1       -1.690   2.839   3.296  0.00  0.00    -0.520 OA
ATOM      2  C   LIG    1       -0.504   2.606   3.397  0.00  0.00    +0.510 C 
ATOM      3  N   LIG    1        0.163   2.976   4.508  0.00  0.00    -0.730 N 
ATOM      4  H   LIG    1        1.111   2.790   4.589  0.00  0.00    +0.400 HD
ENDROOT
BRANCH   3   5
ATOM      5  C   LIG    1       -0.545   3.658   5.594  0.00  0.00    +0.320 C 
BRANCH   5   6
ATOM      6  C   LIG    1        0.420   3.960   6.711  0.00  0.00    -0.110 A 
ATOM      7  C   LIG    1        0.608   3.041   7.728  0.00  0.00    +0.040 A 
ATOM      8  C   LIG    1        1.496   3.312   8.750  0.00  0.00    +0.030 A 
ATOM      9  C   LIG    1        2.193   4.514   8.762  0.00  0.00    +0.090 A 
ATOM     10  C   LIG    1        1.998   5.437   7.743  0.00  0.00    -0.030 A 
ATOM     11  C   LIG    1        1.113   5.157   6.720  0.00  0.00    +0.030 A 
BRANCH   9  12
ATOM     12  N   LIG    1        3.087   4.794   9.798  0.00  0.00    -0.490 N 
ATOM     13  C   LIG    1        4.474   4.930   9.282  0.00  0.00    +0.180 C 
ATOM     14  C   LIG    1        5.191   5.728  10.399  0.00  0.00    +0.040 C 
ATOM     15  C   LIG    1        4.104   6.723  10.866  0.00  0.00    +0.020 C 
ATOM     16  C   LIG    1        2.768   6.087  10.440  0.00  0.00    +0.170 C 
ENDBRANCH   9  12
ENDBRANCH   5   6
ENDBRANCH   3   5
BRANCH   2  17
ATOM     17  C   LIG    1        0.224   1.904   2.280  0.00  0.00    +0.210 C 
BRANCH  17  18
ATOM     18  N   LIG    1       -0.718   1.610   1.191  0.00  0.00    -0.500 NA
ATOM     19  C   LIG    1       -1.454   2.833   0.771  0.00  0.00    +0.180 C 
ATOM     20  C   LIG    1       -1.953   2.480  -0.652  0.00  0.00    +0.030 C 
ATOM     21  C   LIG    1       -0.778   1.664  -1.239  0.00  0.00    +0.020 C 
ATOM     22  C   LIG    1       -0.002   1.140  -0.016  0.00  0.00    +0.180 C 
BRANCH  21  23
ATOM     23  C   LIG    1       -1.298   0.513  -2.061  0.00  0.00    -0.070 A 
ATOM     24  C   LIG    1       -2.163  -0.405  -1.495  0.00  0.00    +0.020 A 
ATOM     25  C   LIG    1       -2.645  -1.458  -2.250  0.00  0.00    +0.000 A 
ATOM     26  C   LIG    1       -2.252  -1.599  -3.568  0.00  0.00    +0.000 A 
ATOM     27  C   LIG    1       -1.383  -0.684  -4.132  0.00  0.00    +0.000 A 
ATOM     28  C   LIG    1       -0.906   0.372  -3.378  0.00  0.00    +0.000 A 
ENDBRANCH  21  23
ENDBRANCH  17  18
ENDBRANCH   2  17
TORSDOF 6
