REMARK  Name = ZINCrg00000AD7XE.1
REMARK                            x       y       z     vdW  Elec       q    Type
REMARK                         _______ _______ _______ _____ _____    ______ ____
ROOT
ATOM      1  C   LIG    1        0.002  -0.004   0.002  0.00  0.00    +0.570 C 
ATOM      2  N   LIG    1       -0.016   1.344   0.009  0.00  0.00    -0.700 N 
ATOM      3  H   LIG    1        0.817   1.840   0.004  0.00  0.00    +0.410 HD
ATOM      4  O   LIG    1       -1.042  -0.626   0.009  0.00  0.00    -0.490 OA
ENDROOT
BRANCH   1  12
ATOM      5  C   LIG    1        0.258  -5.647  -0.008  0.00  0.00    +0.160 C 
ATOM      6  C   LIG    1        0.977  -4.322  -0.015  0.00  0.00    +0.060 A 
ATOM      7  C   LIG    1        2.319  -4.152  -0.042  0.00  0.00    +0.110 A 
ATOM      8  N   LIG    1        2.553  -2.810  -0.037  0.00  0.00    -0.360 N 
ATOM      9  C   LIG    1        3.683  -2.048  -0.044  0.00  0.00    +0.220 A 
ATOM     10  C   LIG    1        3.600  -0.696  -0.036  0.00  0.00    +0.210 A 
ATOM     11  N   LIG    1        2.435  -0.060  -0.021  0.00  0.00    -0.430 NA
ATOM     12  C   LIG    1        1.292  -0.726  -0.014  0.00  0.00    +0.170 A 
ATOM     13  C   LIG    1        1.327  -2.188  -0.016  0.00  0.00    +0.190 A 
ATOM     14  N   LIG    1        0.394  -3.120  -0.006  0.00  0.00    -0.430 NA
ENDBRANCH   1  12
BRANCH   2  15
ATOM     15  C   LIG    1       -1.295   2.059   0.019  0.00  0.00    +0.240 C 
ATOM     16  C   LIG    1       -1.808   2.206  -1.414  0.00  0.00    +0.020 C 
ATOM     17  C   LIG    1       -0.790   2.993  -2.242  0.00  0.00    +0.020 C 
ATOM     18  C   LIG    1       -0.594   4.379  -1.626  0.00  0.00    +0.240 C 
ATOM     19  C   LIG    1       -0.081   4.232  -0.192  0.00  0.00    +0.010 C 
ATOM     20  C   LIG    1       -1.099   3.445   0.636  0.00  0.00    +0.050 C 
BRANCH  18  21
ATOM     21  N   LIG    1        0.381   5.133  -2.419  0.00  0.00    -0.610 N 
ATOM     22  C   LIG    1        0.023   6.296  -2.998  0.00  0.00    +0.520 C 
ATOM     23  O   LIG    1       -1.105   6.719  -2.864  0.00  0.00    -0.520 OA
ATOM     24  C   LIG    1        1.744   4.622  -2.582  0.00  0.00    +0.280 C 
BRANCH  22  25
ATOM     25  C   LIG    1        1.026   7.071  -3.814  0.00  0.00    +0.200 C 
BRANCH  25  26
ATOM     26  N   LIG    1        0.396   8.291  -4.334  0.00  0.00    -0.530 NA
ATOM     27  C   LIG    1       -0.663   7.967  -5.299  0.00  0.00    +0.200 C 
ATOM     28  C   LIG    1        1.395   9.187  -4.931  0.00  0.00    +0.190 C 
ENDBRANCH  25  26
ENDBRANCH  22  25
ENDBRANCH  18  21
ENDBRANCH   2  15
TORSDOF 5
