REMARK  Name = ZINCrg00001Jdv6n.0
REMARK                            x       y       z     vdW  Elec       q    Type
REMARK                         _______ _______ _______ _____ _____    ______ ____
ROOT
ATOM      1  C   LIG    1        0.212   4.115  -0.442  0.00  0.00    +0.520 C 
ATOM      2  N   LIG    1        1.132   3.197  -0.798  0.00  0.00    -0.720 N 
ATOM      3  H   LIG    1        1.686   3.345  -1.580  0.00  0.00    +0.410 HD
ATOM      4  O   LIG    1       -0.482   3.931   0.536  0.00  0.00    -0.500 OA
ENDROOT
BRANCH   2   5
ATOM      5  C   LIG    1        1.294   1.976  -0.005  0.00  0.00    +0.160 C 
ATOM      6  C   LIG    1        1.693   2.341   1.430  0.00  0.00    +0.280 C 
ATOM      7  O   LIG    1        2.863   3.159   1.378  0.00  0.00    -0.290 OA
ATOM      8  C   LIG    1        3.903   2.731   0.616  0.00  0.00    +0.130 A 
ATOM      9  C   LIG    1        5.156   3.296   0.826  0.00  0.00    -0.010 A 
ATOM     10  C   LIG    1        6.237   2.891   0.069  0.00  0.00    +0.050 A 
ATOM     11  C   LIG    1        6.074   1.920  -0.902  0.00  0.00    -0.020 A 
ATOM     12  C   LIG    1        4.830   1.356  -1.113  0.00  0.00    +0.050 A 
ATOM     13  C   LIG    1        3.743   1.758  -0.355  0.00  0.00    -0.170 A 
ATOM     14  C   LIG    1        2.404   1.112  -0.608  0.00  0.00    +0.140 C 
BRANCH   5  15
ATOM     15  C   LIG    1       -0.000   1.204   0.008  0.00  0.00    +0.460 C 
ATOM     16  O   LIG    1        0.018  -0.004   0.001  0.00  0.00    -0.500 OA
BRANCH  15  17
ATOM     17  O   LIG    1       -1.172   1.858   0.022  0.00  0.00    -0.320 OA
ATOM     18  C   LIG    1       -2.378   1.049   0.029  0.00  0.00    +0.250 C 
ENDBRANCH  15  17
ENDBRANCH   5  15
ENDBRANCH   2   5
BRANCH   1  23
ATOM     19  C   LIG    1        0.179   9.476  -1.304  0.00  0.00    +0.550 C 
ATOM     20  N   LIG    1        0.048   8.175  -1.630  0.00  0.00    -0.610 N 
ATOM     21  C   LIG    1       -1.247   7.496  -1.494  0.00  0.00    +0.260 C 
ATOM     22  C   LIG    1       -1.057   6.237  -0.642  0.00  0.00    +0.060 C 
ATOM     23  C   LIG    1        0.045   5.371  -1.258  0.00  0.00    +0.000 C 
ATOM     24  C   LIG    1        1.362   6.151  -1.269  0.00  0.00    +0.040 C 
ATOM     25  C   LIG    1        1.199   7.409  -2.128  0.00  0.00    +0.280 C 
ATOM     26  O   LIG    1        1.275  10.002  -1.331  0.00  0.00    -0.540 OA
BRANCH  19  28
ATOM     27  C   LIG    1       -0.891  11.566  -0.692  0.00  0.00    +0.140 C 
ATOM     28  C   LIG    1       -1.004  10.260  -0.917  0.00  0.00    -0.090 C 
ENDBRANCH  19  28
ENDBRANCH   1  23
TORSDOF 5
