REMARK  Name = ZINCtV00000L6jCt.0
REMARK                            x       y       z     vdW  Elec       q    Type
REMARK                         _______ _______ _______ _____ _____    ______ ____
ROOT
ATOM      1  C   LIG    1        0.082  -1.409   2.095  0.00  0.00    +0.300 A 
ATOM      2  N   LIG    1       -0.741  -1.823   3.013  0.00  0.00    -0.480 NA
ATOM      3  C   LIG    1       -1.990  -1.358   2.751  0.00  0.00    +0.050 A 
ATOM      4  C   LIG    1       -3.223  -1.494   3.393  0.00  0.00    +0.070 A 
ATOM      5  C   LIG    1       -4.332  -0.889   2.872  0.00  0.00    +0.000 A 
ATOM      6  C   LIG    1       -4.248  -0.138   1.708  0.00  0.00    +0.020 A 
ATOM      7  C   LIG    1       -3.041   0.010   1.058  0.00  0.00    +0.000 A 
ATOM      8  C   LIG    1       -1.902  -0.592   1.576  0.00  0.00    +0.050 A 
ATOM      9  N   LIG    1       -0.581  -0.649   1.182  0.00  0.00    -0.480 N 
ENDROOT
BRANCH   1  10
ATOM     10  C   LIG    1        1.555  -1.724   2.050  0.00  0.00    +0.120 C 
ATOM     11  C   LIG    1        1.750  -3.239   1.964  0.00  0.00    +0.060 C 
BRANCH  10  15
ATOM     12  C   LIG    1        3.436  -0.245   5.589  0.00  0.00    -0.070 A 
ATOM     13  C   LIG    1        3.839   0.214   4.348  0.00  0.00    +0.000 A 
ATOM     14  C   LIG    1        3.230  -0.264   3.203  0.00  0.00    +0.020 A 
ATOM     15  C   LIG    1        2.219  -1.202   3.298  0.00  0.00    -0.090 A 
ATOM     16  C   LIG    1        1.813  -1.657   4.539  0.00  0.00    +0.040 A 
ATOM     17  C   LIG    1        2.425  -1.182   5.684  0.00  0.00    +0.000 A 
BRANCH  12  18
ATOM     18  C   LIG    1        4.100   0.277   6.837  0.00  0.00    +0.060 C 
BRANCH  18  20
ATOM     19  C   LIG    1        3.945   1.969   8.668  0.00  0.00    +0.010 C 
ATOM     20  C   LIG    1        3.349   1.514   7.335  0.00  0.00    -0.020 C 
ATOM     21  C   LIG    1        3.481   2.639   6.307  0.00  0.00    +0.010 C 
ENDBRANCH  18  20
ENDBRANCH  12  18
ENDBRANCH  10  15
ENDBRANCH   1  10
BRANCH   9  22
ATOM     22  C   LIG    1        0.002  -0.004   0.002  0.00  0.00    +0.280 C 
ATOM     23  C   LIG    1       -1.112   0.624  -0.838  0.00  0.00    +0.060 C 
BRANCH  22  24
ATOM     24  C   LIG    1        0.967   1.068   0.440  0.00  0.00    -0.110 A 
ATOM     25  C   LIG    1        0.552   2.055   1.315  0.00  0.00    +0.030 A 
ATOM     26  C   LIG    1        1.438   3.035   1.720  0.00  0.00    +0.010 A 
ATOM     27  C   LIG    1        2.736   3.034   1.244  0.00  0.00    +0.010 A 
ATOM     28  C   LIG    1        3.149   2.050   0.364  0.00  0.00    +0.010 A 
ATOM     29  C   LIG    1        2.264   1.067  -0.037  0.00  0.00    +0.010 A 
ENDBRANCH  22  24
ENDBRANCH   9  22
TORSDOF 6
