REMARK  Name = ZINCpe000000U9ov.0
REMARK                            x       y       z     vdW  Elec       q    Type
REMARK                         _______ _______ _______ _____ _____    ______ ____
ROOT
ATOM      1  C   LIG    1       -0.034   4.250   0.025  0.00  0.00    +0.300 C 
ENDROOT
BRANCH   1   2
ATOM      2  C   LIG    1        0.208   3.180   1.059  0.00  0.00    -0.120 A 
ATOM      3  C   LIG    1        1.088   3.410   2.098  0.00  0.00    +0.060 A 
ATOM      4  C   LIG    1        1.310   2.428   3.047  0.00  0.00    -0.030 A 
ATOM      5  C   LIG    1        0.653   1.216   2.957  0.00  0.00    +0.050 A 
ATOM      6  C   LIG    1       -0.234   0.984   1.923  0.00  0.00    -0.080 A 
ATOM      7  C   LIG    1       -0.454   1.964   0.967  0.00  0.00    +0.140 A 
BRANCH   7   8
ATOM      8  O   LIG    1       -1.321   1.736  -0.055  0.00  0.00    -0.290 OA
BRANCH   8   9
ATOM      9  C   LIG    1       -1.966   0.462  -0.086  0.00  0.00    +0.220 C 
BRANCH   9  10
ATOM     10  C   LIG    1       -2.883   0.392  -1.280  0.00  0.00    +0.510 C 
ATOM     11  N   LIG    1       -3.601  -0.725  -1.513  0.00  0.00    -0.730 N 
ATOM     12  H   LIG    1       -3.527  -1.483  -0.913  0.00  0.00    +0.400 HD
ATOM     13  C   LIG    1       -4.492  -0.793  -2.674  0.00  0.00    +0.290 C 
ATOM     14  O   LIG    1       -2.974   1.340  -2.030  0.00  0.00    -0.510 OA
ENDBRANCH   9  10
ENDBRANCH   8   9
ENDBRANCH   7   8
ENDBRANCH   1   2
BRANCH   1  15
ATOM     15  N   LIG    1        0.228   5.566   0.613  0.00  0.00    -0.720 N 
ATOM     16  H   LIG    1        1.104   5.972   0.522  0.00  0.00    +0.400 HD
ATOM     17  C   LIG    1       -0.748   6.212   1.281  0.00  0.00    +0.530 C 
ATOM     18  O   LIG    1       -1.844   5.704   1.394  0.00  0.00    -0.520 OA
BRANCH  17  19
ATOM     19  C   LIG    1       -0.479   7.565   1.886  0.00  0.00    -0.010 C 
ATOM     20  C   LIG    1       -0.176   8.612   0.789  0.00  0.00    +0.080 C 
ATOM     21  C   LIG    1       -0.828   9.880   1.294  0.00  0.00    +0.520 C 
ATOM     22  N   LIG    1       -1.704   9.590   2.272  0.00  0.00    -0.620 N 
ATOM     23  C   LIG    1       -2.503  10.588   2.988  0.00  0.00    +0.290 C 
ATOM     24  O   LIG    1       -0.594  10.995   0.879  0.00  0.00    -0.530 OA
ATOM     25  C   LIG    1       -1.757   8.146   2.532  0.00  0.00    +0.300 C 
ENDBRANCH  17  19
ENDBRANCH   1  15
BRANCH   1  27
ATOM     26  C   LIG    1        0.572   5.037  -2.268  0.00  0.00    +0.020 C 
ATOM     27  C   LIG    1        0.902   4.029  -1.166  0.00  0.00    +0.030 C 
ENDBRANCH   1  27
TORSDOF 7
