REMARK  Name = ZINCvU00000005Au.0
REMARK                            x       y       z     vdW  Elec       q    Type
REMARK                         _______ _______ _______ _____ _____    ______ ____
ROOT
ATOM      1  S   LIG    1        0.962   8.042  -0.226  0.00  0.00    +0.060 S 
ENDROOT
BRANCH   1   2
ATOM      2  C   LIG    1        1.106   6.288  -0.129  0.00  0.00    +0.070 A 
ATOM      3  C   LIG    1        2.123   5.693   0.654  0.00  0.00    -0.060 A 
ATOM      4  C   LIG    1        3.053   6.443   1.381  0.00  0.00    +0.050 A 
ATOM      5  C   LIG    1        4.006   5.798   2.114  0.00  0.00    +0.050 A 
ATOM      6  C   LIG    1        4.067   4.408   2.148  0.00  0.00    +0.050 A 
ATOM      7  C   LIG    1        3.174   3.648   1.449  0.00  0.00    +0.050 A 
ATOM      8  C   LIG    1        2.185   4.277   0.688  0.00  0.00    -0.050 A 
ATOM      9  C   LIG    1        1.223   3.557  -0.064  0.00  0.00    +0.150 A 
ATOM     10  N   LIG    1        0.324   4.229  -0.762  0.00  0.00    -0.240 NA
ATOM     11  N   LIG    1        0.265   5.508  -0.788  0.00  0.00    -0.270 NA
BRANCH   9  12
ATOM     12  C   LIG    1        1.230   2.076  -0.072  0.00  0.00    -0.040 A 
ATOM     13  C   LIG    1        1.398   1.370   1.119  0.00  0.00    +0.030 A 
ATOM     14  C   LIG    1        1.404  -0.010   1.104  0.00  0.00    +0.010 A 
ATOM     15  C   LIG    1        1.244  -0.692  -0.089  0.00  0.00    +0.030 A 
ATOM     16  C   LIG    1        1.077   0.003  -1.273  0.00  0.00    +0.010 A 
ATOM     17  C   LIG    1        1.069   1.382  -1.272  0.00  0.00    +0.050 A 
ENDBRANCH   9  12
ENDBRANCH   1   2
BRANCH   1  19
ATOM     18  C   LIG    1       -1.702   7.601  -0.640  0.00  0.00    +0.090 C 
ATOM     19  C   LIG    1       -0.465   8.180  -1.330  0.00  0.00    +0.010 C 
BRANCH  19  20
ATOM     20  C   LIG    1       -0.706   9.630  -1.661  0.00  0.00    +0.530 C 
ATOM     21  N   LIG    1       -1.427   9.962  -2.750  0.00  0.00    -0.660 N 
ATOM     22  H   LIG    1       -1.856   9.270  -3.278  0.00  0.00    +0.410 HD
ATOM     23  O   LIG    1       -0.251  10.499  -0.947  0.00  0.00    -0.510 OA
BRANCH  21  24
ATOM     24  C   LIG    1       -1.559  11.307  -3.120  0.00  0.00    +0.080 A 
ATOM     25  C   LIG    1       -2.729  11.751  -3.721  0.00  0.00    +0.040 A 
ATOM     26  C   LIG    1       -2.861  13.077  -4.082  0.00  0.00    -0.050 A 
ATOM     27  C   LIG    1       -1.818  13.966  -3.853  0.00  0.00    +0.200 A 
ATOM     28  C   LIG    1       -0.645  13.521  -3.256  0.00  0.00    -0.050 A 
ATOM     29  C   LIG    1       -0.516  12.195  -2.891  0.00  0.00    +0.060 A 
BRANCH  27  30
ATOM     30  N   LIG    1       -1.948  15.308  -4.223  0.00  0.00    -0.640 N 
ATOM     31  C   LIG    1       -3.185  15.778  -4.852  0.00  0.00    +0.280 C 
ATOM     32  C   LIG    1       -0.848  16.245  -3.982  0.00  0.00    +0.280 C 
ENDBRANCH  27  30
ENDBRANCH  21  24
ENDBRANCH  19  20
ENDBRANCH   1  19
TORSDOF 6
