REMARK  Name = ZINC550000002ywS.0
REMARK                            x       y       z     vdW  Elec       q    Type
REMARK                         _______ _______ _______ _____ _____    ______ ____
ROOT
ATOM      1  C   LIG    1        1.145   3.085   0.008  0.00  0.00    +0.180 C 
ENDROOT
BRANCH   1   3
ATOM      2  C   LIG    1        0.367   4.914   1.348  0.00  0.00    +0.200 C 
ATOM      3  O   LIG    1        0.546   3.500   1.237  0.00  0.00    -0.390 OA
ENDBRANCH   1   3
BRANCH   1   4
ATOM      4  C   LIG    1        1.286   1.562  -0.002  0.00  0.00    +0.200 C 
BRANCH   4   5
ATOM      5  O   LIG    1       -0.011   0.963   0.007  0.00  0.00    -0.570 OA
ATOM      6  H   LIG    1        0.002  -0.004   0.002  0.00  0.00    +0.380 HD
ENDBRANCH   4   5
ENDBRANCH   1   4
TORSDOF 3
