REMARK  Name = ZINCrH000004msQl.0
REMARK                            x       y       z     vdW  Elec       q    Type
REMARK                         _______ _______ _______ _____ _____    ______ ____
ROOT
ATOM      1  C   LIG    1       -0.078   2.261  -2.138  0.00  0.00    +0.570 C 
ATOM      2  N   LIG    1       -0.705   2.346  -0.949  0.00  0.00    -0.610 N 
ATOM      3  C   LIG    1       -0.061   1.849   0.275  0.00  0.00    +0.290 C 
ATOM      4  C   LIG    1       -0.053   2.967   1.321  0.00  0.00    +0.010 C 
ATOM      5  C   LIG    1       -1.486   3.476   1.524  0.00  0.00    +0.190 C 
ATOM      6  C   LIG    1       -2.020   4.046   0.208  0.00  0.00    +0.040 C 
ATOM      7  C   LIG    1       -2.046   2.938  -0.850  0.00  0.00    +0.290 C 
ATOM      8  O   LIG    1        1.070   1.864  -2.194  0.00  0.00    -0.530 OA
ENDROOT
BRANCH   1  12
ATOM      9  C   LIG    1       -2.111   3.382  -5.695  0.00  0.00    +0.150 A 
ATOM     10  C   LIG    1       -0.749   3.631  -5.567  0.00  0.00    -0.020 A 
ATOM     11  C   LIG    1       -0.087   3.269  -4.415  0.00  0.00    +0.120 A 
ATOM     12  C   LIG    1       -0.785   2.651  -3.374  0.00  0.00    -0.180 A 
ATOM     13  C   LIG    1       -2.152   2.397  -3.510  0.00  0.00    +0.090 A 
ATOM     14  C   LIG    1       -2.809   2.767  -4.662  0.00  0.00    -0.080 A 
BRANCH   9  16
ATOM     15  C   LIG    1       -4.159   3.454  -6.896  0.00  0.00    +0.240 C 
ATOM     16  O   LIG    1       -2.760   3.740  -6.831  0.00  0.00    -0.310 OA
ENDBRANCH   9  16
ENDBRANCH   1  12
BRANCH   5  17
ATOM     17  O   LIG    1       -1.489   4.499   2.522  0.00  0.00    -0.290 OA
BRANCH  17  18
ATOM     18  C   LIG    1       -1.664   4.104   3.808  0.00  0.00    +0.350 A 
ATOM     19  C   LIG    1       -1.671   5.051   4.824  0.00  0.00    -0.030 A 
ATOM     20  C   LIG    1       -1.855   4.636   6.131  0.00  0.00    +0.160 A 
ATOM     21  C   LIG    1       -2.015   3.279   6.379  0.00  0.00    -0.280 A 
ATOM     22  C   LIG    1       -1.992   2.393   5.320  0.00  0.00    +0.380 A 
ATOM     23  N   LIG    1       -1.820   2.820   4.084  0.00  0.00    -0.540 NA
BRANCH  21  24
ATOM     24  C   LIG    1       -2.213   2.780   7.787  0.00  0.00    +0.520 C 
ATOM     25  F   LIG    1       -3.367   3.357   8.328  0.00  0.00    -0.170 F 
ATOM     26  F   LIG    1       -1.106   3.132   8.566  0.00  0.00    -0.170 F 
ATOM     27  F   LIG    1       -2.350   1.388   7.773  0.00  0.00    -0.180 F 
ENDBRANCH  21  24
ENDBRANCH  17  18
ENDBRANCH   5  17
TORSDOF 5
