REMARK  Name = ZINCrH00000tj18j.0
REMARK                            x       y       z     vdW  Elec       q    Type
REMARK                         _______ _______ _______ _____ _____    ______ ____
ROOT
ATOM      1  O   LIG    1        5.858   3.137  -0.036  0.00  0.00    -0.510 OA
ATOM      2  C   LIG    1        6.038   1.938  -0.043  0.00  0.00    +0.510 C 
ATOM      3  N   LIG    1        7.292   1.444  -0.057  0.00  0.00    -0.720 N 
ATOM      4  H   LIG    1        7.436   0.485  -0.063  0.00  0.00    +0.400 HD
ENDROOT
BRANCH   3   5
ATOM      5  C   LIG    1        8.438   2.357  -0.063  0.00  0.00    +0.270 C 
BRANCH   5   6
ATOM      6  C   LIG    1        9.735   1.546  -0.079  0.00  0.00    -0.070 C 
ATOM      7  C   LIG    1        9.774   0.670  -1.333  0.00  0.00    +0.030 C 
ATOM      8  C   LIG    1       11.071  -0.141  -1.348  0.00  0.00    -0.020 C 
ATOM      9  C   LIG    1       11.133  -1.029  -0.104  0.00  0.00    +0.010 C 
ATOM     10  C   LIG    1       11.094  -0.153   1.150  0.00  0.00    -0.020 C 
ATOM     11  C   LIG    1       12.291   0.800   1.143  0.00  0.00    +0.010 C 
ATOM     12  C   LIG    1       12.230   1.688  -0.101  0.00  0.00    -0.020 C 
ATOM     13  C   LIG    1       12.268   0.811  -1.355  0.00  0.00    +0.010 C 
ATOM     14  C   LIG    1        9.797   0.658   1.166  0.00  0.00    +0.030 C 
ATOM     15  C   LIG    1       10.932   2.498  -0.086  0.00  0.00    +0.040 C 
ENDBRANCH   5   6
ENDBRANCH   3   5
BRANCH   2  16
ATOM     16  C   LIG    1        4.859   0.999  -0.037  0.00  0.00    +0.250 C 
BRANCH  16  17
ATOM     17  O   LIG    1        3.628   1.769  -0.022  0.00  0.00    -0.320 OA
BRANCH  17  18
ATOM     18  C   LIG    1        2.473   1.075  -0.015  0.00  0.00    +0.520 C 
ATOM     19  O   LIG    1        2.493  -0.140  -0.021  0.00  0.00    -0.500 OA
BRANCH  18  20
ATOM     20  C   LIG    1        1.183   1.790   0.000  0.00  0.00    -0.110 A 
ATOM     21  C   LIG    1        1.156   3.192   0.008  0.00  0.00    +0.110 A 
ATOM     22  C   LIG    1       -0.026   3.860   0.022  0.00  0.00    +0.080 A 
ATOM     23  C   LIG    1       -1.251   3.157   0.029  0.00  0.00    +0.120 A 
ATOM     24  N   LIG    1       -2.508   3.631   0.043  0.00  0.00    -0.470 NA
ATOM     25  C   LIG    1       -3.469   2.784   0.034  0.00  0.00    +0.290 A 
ATOM     26  S   LIG    1       -2.888   1.179   0.022  0.00  0.00    +0.130 S 
ATOM     27  C   LIG    1       -1.223   1.755   0.017  0.00  0.00    -0.210 A 
ATOM     28  C   LIG    1       -0.013   1.076   0.008  0.00  0.00    +0.160 A 
ENDBRANCH  18  20
ENDBRANCH  17  18
ENDBRANCH  16  17
ENDBRANCH   2  16
TORSDOF 6
