REMARK  Name = ZINCkj00000y7Kl3.1
REMARK                            x       y       z     vdW  Elec       q    Type
REMARK                         _______ _______ _______ _____ _____    ______ ____
ROOT
ATOM      1  C   LIG    1       -4.028   3.079  -1.422  0.00  0.00    +0.320 C 
ENDROOT
BRANCH   1   2
ATOM      2  C   LIG    1       -3.362   4.421  -1.732  0.00  0.00    -0.030 C 
ATOM      3  C   LIG    1       -4.321   5.290  -2.551  0.00  0.00    +0.070 C 
ATOM      4  C   LIG    1       -3.572   6.528  -3.060  0.00  0.00    +0.190 C 
ATOM      5  C   LIG    1       -2.833   7.144  -1.896  0.00  0.00    +0.300 C 
ATOM      6  N   LIG    1       -2.322   8.339  -1.828  0.00  0.00    -0.470 N 
ATOM      7  C   LIG    1       -1.750   8.507  -0.625  0.00  0.00    +0.230 C 
ATOM      8  C   LIG    1       -1.914   7.368   0.079  0.00  0.00    +0.250 C 
ATOM      9  H   LIG    1       -2.350   9.003  -2.534  0.00  0.00    +0.460 HD
ATOM     10  N   LIG    1       -2.598   6.506  -0.725  0.00  0.00    -0.400 N 
ATOM     11  C   LIG    1       -3.019   5.136  -0.420  0.00  0.00    +0.340 C 
ENDBRANCH   1   2
BRANCH   1  13
ATOM     12  C   LIG    1       -2.983   2.216   0.603  0.00  0.00    +0.520 C 
ATOM     13  N   LIG    1       -3.069   2.204  -0.742  0.00  0.00    -0.620 N 
ATOM     14  C   LIG    1       -2.205   1.317  -1.524  0.00  0.00    +0.290 C 
ATOM     15  O   LIG    1       -3.767   2.872   1.256  0.00  0.00    -0.510 OA
BRANCH  12  21
ATOM     16  C   LIG    1        0.253   2.109   0.171  0.00  0.00    +0.050 C 
ATOM     17  C   LIG    1       -0.608   2.243   1.428  0.00  0.00    -0.030 C 
ATOM     18  C   LIG    1        0.080   1.575   2.643  0.00  0.00    +0.030 C 
ATOM     19  C   LIG    1       -1.067   0.858   3.380  0.00  0.00    +0.200 C 
ATOM     20  O   LIG    1       -2.281   1.147   2.667  0.00  0.00    -0.350 OA
ATOM     21  C   LIG    1       -1.911   1.414   1.296  0.00  0.00    +0.160 C 
ENDBRANCH  12  21
ENDBRANCH   1  13
TORSDOF 3
