REMARK  Name = ZINCnE000001Ia0X.1
REMARK                            x       y       z     vdW  Elec       q    Type
REMARK                         _______ _______ _______ _____ _____    ______ ____
ROOT
ATOM      1  N   LIG    1       -2.084   3.958   0.043  0.00  0.00    -0.710 NA
ATOM      2  C   LIG    1       -3.351   3.497   0.053  0.00  0.00    +0.660 C 
ATOM      3  N   LIG    1       -4.383   4.363   0.067  0.00  0.00    -0.740 N 
ATOM      4  H   LIG    1       -4.215   5.318   0.071  0.00  0.00    +0.390 HD
ATOM      5  O   LIG    1       -3.561   2.299   0.048  0.00  0.00    -0.620 OA
ENDROOT
BRANCH   3   6
ATOM      6  C   LIG    1       -5.760   3.861   0.078  0.00  0.00    +0.260 C 
ATOM      7  C   LIG    1       -6.211   3.577  -1.357  0.00  0.00    -0.010 C 
ATOM      8  C   LIG    1       -7.670   3.111  -1.343  0.00  0.00    +0.030 C 
ATOM      9  C   LIG    1       -8.537   4.184  -0.680  0.00  0.00    +0.170 C 
ATOM     10  N   LIG    1       -8.065   4.418   0.691  0.00  0.00    -0.500 N 
ATOM     11  C   LIG    1       -6.682   4.912   0.700  0.00  0.00    +0.180 C 
BRANCH  10  12
ATOM     12  C   LIG    1       -8.914   5.296   1.369  0.00  0.00    +0.100 A 
ATOM     13  C   LIG    1       -9.498   4.911   2.570  0.00  0.00    +0.030 A 
ATOM     14  C   LIG    1      -10.333   5.783   3.240  0.00  0.00    +0.000 A 
ATOM     15  C   LIG    1      -10.597   7.034   2.712  0.00  0.00    -0.010 A 
ATOM     16  C   LIG    1      -10.022   7.418   1.515  0.00  0.00    +0.010 A 
ATOM     17  C   LIG    1       -9.181   6.553   0.842  0.00  0.00    -0.030 A 
ENDBRANCH  10  12
ENDBRANCH   3   6
BRANCH   1  21
ATOM     18  C   LIG    1        1.100   1.812   0.001  0.00  0.00    -0.340 A 
ATOM     19  C   LIG    1       -0.013   1.076   0.008  0.00  0.00    +0.230 A 
ATOM     20  N   LIG    1       -1.133   1.774   0.017  0.00  0.00    -0.570 NA
ATOM     21  C   LIG    1       -1.019   3.065   0.028  0.00  0.00    +0.360 A 
ATOM     22  S   LIG    1        0.631   3.510   0.015  0.00  0.00    +0.000 S 
BRANCH  18  24
ATOM     23  C   LIG    1        2.975   1.112  -1.463  0.00  0.00    +0.010 C 
ATOM     24  C   LIG    1        2.511   1.283  -0.015  0.00  0.00    +0.100 C 
ENDBRANCH  18  24
ENDBRANCH   1  21
TORSDOF 4
