REMARK  Name = ZINCrD00000iZNBP.0
REMARK                            x       y       z     vdW  Elec       q    Type
REMARK                         _______ _______ _______ _____ _____    ______ ____
ROOT
ATOM      1  N   LIG    1       -0.725   1.988  -1.177  0.00  0.00    -0.610 N 
ATOM      2  C   LIG    1       -1.992   2.727  -1.174  0.00  0.00    +0.330 C 
ATOM      3  C   LIG    1       -2.319   3.012  -2.620  0.00  0.00    -0.080 A 
ATOM      4  C   LIG    1       -3.363   3.664  -3.237  0.00  0.00    +0.040 A 
ATOM      5  C   LIG    1       -3.399   3.767  -4.615  0.00  0.00    +0.070 A 
ATOM      6  C   LIG    1       -2.377   3.211  -5.384  0.00  0.00    -0.030 A 
ATOM      7  C   LIG    1       -1.318   2.552  -4.765  0.00  0.00    +0.110 A 
ATOM      8  C   LIG    1       -1.286   2.450  -3.376  0.00  0.00    -0.150 A 
ATOM      9  C   LIG    1       -0.321   1.827  -2.449  0.00  0.00    +0.570 C 
ATOM     10  O   LIG    1        0.694   1.250  -2.788  0.00  0.00    -0.510 OA
ENDROOT
BRANCH   1  15
ATOM     11  O   LIG    1       -2.918   1.710   2.848  0.00  0.00    -0.490 OA
ATOM     12  C   LIG    1       -2.055   1.649   1.998  0.00  0.00    +0.520 C 
ATOM     13  C   LIG    1       -2.111   0.554   0.966  0.00  0.00    +0.090 C 
ATOM     14  C   LIG    1       -0.686   0.217   0.513  0.00  0.00    +0.070 C 
ATOM     15  C   LIG    1       -0.018   1.502   0.010  0.00  0.00    +0.300 C 
ATOM     16  C   LIG    1       -0.077   2.546   1.094  0.00  0.00    +0.520 C 
ATOM     17  O   LIG    1        0.790   3.391   1.152  0.00  0.00    -0.470 OA
ATOM     18  N   LIG    1       -1.069   2.559   1.996  0.00  0.00    -0.670 N 
ATOM     19  H   LIG    1       -1.074   3.253   2.673  0.00  0.00    +0.420 HD
ENDBRANCH   1  15
BRANCH   6  20
ATOM     20  C   LIG    1       -2.417   3.324  -6.862  0.00  0.00    -0.050 A 
ATOM     21  C   LIG    1       -1.383   3.760  -7.579  0.00  0.00    -0.010 A 
ATOM     22  S   LIG    1       -1.756   3.768  -9.292  0.00  0.00    +0.110 S 
ATOM     23  C   LIG    1       -3.384   3.163  -9.016  0.00  0.00    -0.140 A 
ATOM     24  C   LIG    1       -4.409   2.876  -9.923  0.00  0.00    +0.050 A 
ATOM     25  C   LIG    1       -5.620   2.406  -9.472  0.00  0.00    +0.030 A 
ATOM     26  C   LIG    1       -5.832   2.215  -8.114  0.00  0.00    +0.020 A 
ATOM     27  C   LIG    1       -4.846   2.489  -7.215  0.00  0.00    +0.050 A 
ATOM     28  C   LIG    1       -3.595   2.971  -7.649  0.00  0.00    -0.060 A 
ENDBRANCH   6  20
TORSDOF 2
