REMARK  Name = ZINCbw0000000HiY.0
REMARK                            x       y       z     vdW  Elec       q    Type
REMARK                         _______ _______ _______ _____ _____    ______ ____
ROOT
ATOM      1  C   LIG    1       -2.519   1.244   0.021  0.00  0.00    +0.120 C 
ATOM      2  C   LIG    1       -1.228   2.020   0.019  0.00  0.00    -0.130 A 
ATOM      3  C   LIG    1       -0.016   1.347   0.009  0.00  0.00    +0.140 A 
ATOM      4  C   LIG    1        1.178   2.054   0.002  0.00  0.00    -0.010 A 
ATOM      5  C   LIG    1        1.168   3.430   0.009  0.00  0.00    +0.120 A 
ATOM      6  C   LIG    1       -0.051   4.118   0.024  0.00  0.00    -0.190 A 
ATOM      7  F   LIG    1        0.002  -0.004   0.002  0.00  0.00    -0.120 F 
ATOM      8  C   LIG    1       -1.254   3.399   0.031  0.00  0.00    +0.030 A 
ATOM      9 CL   LIG    1       -2.772   4.242   0.050  0.00  0.00    -0.020 Cl
ENDROOT
BRANCH   6  10
ATOM     10  C   LIG    1       -0.070   5.587   0.031  0.00  0.00    +0.480 C 
ATOM     11  O   LIG    1       -1.128   6.180   0.044  0.00  0.00    -0.430 OA
ENDBRANCH   6  10
TORSDOF 1
