REMARK  Name = ZINCpe00000gMVxW.2
REMARK                            x       y       z     vdW  Elec       q    Type
REMARK                         _______ _______ _______ _____ _____    ______ ____
ROOT
ATOM      1  C   LIG    1        4.149   2.372   3.641  0.00  0.00    +0.100 C 
ATOM      2  C   LIG    1        3.777   3.591   4.445  0.00  0.00    +0.190 A 
ATOM      3  C   LIG    1        3.020   4.574   3.879  0.00  0.00    -0.340 A 
ATOM      4  C   LIG    1        2.690   5.707   4.650  0.00  0.00    +0.500 A 
ATOM      5  N   LIG    1        3.127   5.772   5.926  0.00  0.00    -0.610 NA
ATOM      6  C   LIG    1        3.880   4.757   6.435  0.00  0.00    +0.380 A 
ATOM      7  O   LIG    1        2.019   6.609   4.176  0.00  0.00    -0.620 OA
ATOM      8  N   LIG    1        4.187   3.706   5.707  0.00  0.00    -0.610 NA
ENDROOT
BRANCH   6   9
ATOM      9  C   LIG    1        4.360   4.839   7.832  0.00  0.00    +0.200 A 
ATOM     10  C   LIG    1        5.130   3.804   8.360  0.00  0.00    +0.020 A 
ATOM     11  C   LIG    1        5.573   3.895   9.670  0.00  0.00    +0.040 A 
ATOM     12  C   LIG    1        5.229   5.017  10.408  0.00  0.00    -0.050 A 
ATOM     13  C   LIG    1        4.460   6.008   9.820  0.00  0.00    +0.240 A 
ATOM     14  N   LIG    1        4.057   5.899   8.572  0.00  0.00    -0.440 NA
ENDBRANCH   6   9
BRANCH   3  15
ATOM     15  C   LIG    1        2.551   4.455   2.452  0.00  0.00    +0.120 C 
BRANCH  15  16
ATOM     16  C   LIG    1        1.161   3.873   2.427  0.00  0.00    +0.520 C 
ATOM     17  N   LIG    1        0.535   3.674   1.250  0.00  0.00    -0.760 N 
ATOM     18  H   LIG    1        0.979   3.905   0.419  0.00  0.00    +0.380 HD
ATOM     19  O   LIG    1        0.606   3.584   3.466  0.00  0.00    -0.500 OA
BRANCH  17  20
ATOM     20  C   LIG    1       -0.817   3.109   1.226  0.00  0.00    +0.250 C 
ATOM     21  C   LIG    1       -0.731   1.581   1.267  0.00  0.00    +0.040 C 
ATOM     22  C   LIG    1       -0.013   1.086   0.008  0.00  0.00    +0.060 C 
ATOM     23  C   LIG    1       -0.755   1.594  -1.230  0.00  0.00    +0.250 C 
ATOM     24  N   LIG    1       -0.778   3.061  -1.224  0.00  0.00    -0.390 N 
ATOM     25  C   LIG    1       -1.422   3.545  -2.452  0.00  0.00    +0.310 C 
ATOM     26  H   LIG    1        0.167   3.412  -1.181  0.00  0.00    +0.420 HD
ATOM     27  C   LIG    1       -1.529   3.542  -0.057  0.00  0.00    +0.270 C 
ENDBRANCH  17  20
ENDBRANCH  15  16
ENDBRANCH   3  15
TORSDOF 4
