REMARK  Name = ZINCpe00000gMVxW.1
REMARK                            x       y       z     vdW  Elec       q    Type
REMARK                         _______ _______ _______ _____ _____    ______ ____
ROOT
ATOM      1  C   LIG    1       -2.362   8.035   0.069  0.00  0.00    +0.100 C 
ATOM      2  C   LIG    1       -1.053   7.290   0.052  0.00  0.00    +0.190 A 
ATOM      3  C   LIG    1        0.123   7.981   0.046  0.00  0.00    -0.340 A 
ATOM      4  C   LIG    1        1.335   7.261   0.030  0.00  0.00    +0.500 A 
ATOM      5  N   LIG    1        1.287   5.912   0.028  0.00  0.00    -0.610 NA
ATOM      6  C   LIG    1        0.081   5.278   0.030  0.00  0.00    +0.380 A 
ATOM      7  O   LIG    1        2.406   7.846   0.024  0.00  0.00    -0.620 OA
ATOM      8  N   LIG    1       -1.045   5.958   0.045  0.00  0.00    -0.610 NA
ENDROOT
BRANCH   6   9
ATOM      9  C   LIG    1        0.037   3.799   0.022  0.00  0.00    +0.200 A 
ATOM     10  C   LIG    1       -1.194   3.144   0.030  0.00  0.00    +0.020 A 
ATOM     11  C   LIG    1       -1.219   1.759   0.017  0.00  0.00    +0.040 A 
ATOM     12  C   LIG    1       -0.013   1.076   0.008  0.00  0.00    -0.050 A 
ATOM     13  C   LIG    1        1.174   1.791   0.001  0.00  0.00    +0.240 A 
ATOM     14  N   LIG    1        1.170   3.107   0.008  0.00  0.00    -0.440 NA
ENDBRANCH   6   9
BRANCH   3  15
ATOM     15  C   LIG    1        0.126   9.488   0.054  0.00  0.00    +0.120 C 
BRANCH  15  16
ATOM     16  C   LIG    1        0.264   9.982   1.472  0.00  0.00    +0.530 C 
ATOM     17  N   LIG    1        0.291  11.305   1.724  0.00  0.00    -0.740 N 
ATOM     18  H   LIG    1        0.221  11.940   0.994  0.00  0.00    +0.400 HD
ATOM     19  O   LIG    1        0.351   9.188   2.385  0.00  0.00    -0.510 OA
BRANCH  17  20
ATOM     20  C   LIG    1        0.424  11.786   3.102  0.00  0.00    +0.230 C 
ATOM     21  C   LIG    1       -0.957  11.837   3.762  0.00  0.00    +0.030 C 
ATOM     22  C   LIG    1       -0.816  12.413   5.174  0.00  0.00    +0.060 C 
ATOM     23  C   LIG    1       -0.160  13.794   5.092  0.00  0.00    +0.250 C 
ATOM     24  N   LIG    1        1.167  13.674   4.476  0.00  0.00    -0.380 N 
ATOM     25  C   LIG    1        1.823  14.988   4.470  0.00  0.00    +0.320 C 
ATOM     26  H   LIG    1        1.726  13.023   5.007  0.00  0.00    +0.430 HD
ATOM     27  C   LIG    1        1.034  13.189   3.097  0.00  0.00    +0.250 C 
ENDBRANCH  17  20
ENDBRANCH  15  16
ENDBRANCH   3  15
TORSDOF 4
