REMARK  Name = ZINCpk00000y6uEd.0
REMARK                            x       y       z     vdW  Elec       q    Type
REMARK                         _______ _______ _______ _____ _____    ______ ____
ROOT
ATOM      1  N   LIG    1        1.359   2.036   0.000  0.00  0.00    -0.470 N 
ATOM      2  C   LIG    1       -0.019   1.526   0.010  0.00  0.00    +0.210 C 
ATOM      3  C   LIG    1        0.002  -0.004   0.002  0.00  0.00    +0.030 C 
ATOM      4  C   LIG    1        0.761  -0.506   1.233  0.00  0.00    +0.000 C 
ATOM      5  C   LIG    1        2.177   0.078   1.224  0.00  0.00    +0.050 C 
ATOM      6  C   LIG    1        2.093   1.605   1.197  0.00  0.00    +0.200 C 
ENDROOT
BRANCH   1   9
ATOM      7  C   LIG    1        2.553   5.484  -0.281  0.00  0.00    +0.180 A 
ATOM      8  C   LIG    1        2.588   4.109  -0.156  0.00  0.00    -0.060 A 
ATOM      9  C   LIG    1        1.377   3.415  -0.124  0.00  0.00    +0.360 A 
ATOM     10  N   LIG    1        0.241   4.100  -0.221  0.00  0.00    -0.560 NA
ATOM     11  C   LIG    1        0.254   5.413  -0.334  0.00  0.00    +0.530 A 
ATOM     12  N   LIG    1        1.380   6.096  -0.367  0.00  0.00    -0.540 NA
BRANCH   7  13
ATOM     13  C   LIG    1        3.833   6.279  -0.320  0.00  0.00    +0.270 C 
BRANCH  13  15
ATOM     14  C   LIG    1        6.217   6.048  -0.238  0.00  0.00    +0.220 C 
ATOM     15  O   LIG    1        4.948   5.392  -0.211  0.00  0.00    -0.390 OA
ENDBRANCH  13  15
ENDBRANCH   7  13
ENDBRANCH   1   9
BRANCH   4  16
ATOM     16  C   LIG    1        0.838  -2.034   1.199  0.00  0.00    +0.160 C 
ATOM     17  C   LIG    1        1.540  -2.574   2.471  0.00  0.00    +0.020 C 
ATOM     18  C   LIG    1        2.083  -3.941   1.984  0.00  0.00    +0.020 C 
ATOM     19  C   LIG    1        2.122  -3.809   0.449  0.00  0.00    +0.150 C 
ATOM     20  O   LIG    1        1.694  -2.476   0.124  0.00  0.00    -0.330 OA
BRANCH  19  21
ATOM     21  C   LIG    1        3.526  -4.033  -0.050  0.00  0.00    +0.510 C 
ATOM     22  N   LIG    1        4.104  -5.243   0.084  0.00  0.00    -0.620 N 
ATOM     23  C   LIG    1        3.367  -6.341   0.713  0.00  0.00    +0.290 C 
ATOM     24  C   LIG    1        5.470  -5.460  -0.401  0.00  0.00    +0.290 C 
ATOM     25  O   LIG    1        4.137  -3.123  -0.571  0.00  0.00    -0.510 OA
ENDBRANCH  19  21
ENDBRANCH   4  16
TORSDOF 5
