REMARK  Name = ZINCpe000000VtOH.0
REMARK                            x       y       z     vdW  Elec       q    Type
REMARK                         _______ _______ _______ _____ _____    ______ ____
ROOT
ATOM      1  C   LIG    1        4.778   1.568   0.504  0.00  0.00    +0.270 C 
ATOM      2  C   LIG    1        3.520   2.295   0.031  0.00  0.00    +0.100 C 
ATOM      3  C   LIG    1        2.344   1.355  -0.019  0.00  0.00    -0.070 A 
ATOM      4  C   LIG    1        1.072   1.913  -0.012  0.00  0.00    +0.010 A 
ATOM      5  C   LIG    1       -0.047   1.109  -0.081  0.00  0.00    +0.020 A 
ATOM      6  C   LIG    1        0.096  -0.263  -0.158  0.00  0.00    +0.010 A 
ATOM      7  C   LIG    1        1.358  -0.821  -0.159  0.00  0.00    +0.020 A 
ATOM      8  C   LIG    1        2.485  -0.014  -0.084  0.00  0.00    -0.100 A 
ATOM      9  C   LIG    1        3.833  -0.688  -0.064  0.00  0.00    +0.340 C 
ATOM     10  N   LIG    1        4.889   0.312  -0.257  0.00  0.00    -0.610 N 
ATOM     11  C   LIG    1        5.919   0.091  -1.097  0.00  0.00    +0.520 C 
ATOM     12  O   LIG    1        6.832   0.886  -1.160  0.00  0.00    -0.490 OA
ENDROOT
BRANCH   1  13
ATOM     13  C   LIG    1        5.989   2.427   0.248  0.00  0.00    +0.480 C 
ATOM     14  O   LIG    1        6.042   3.117  -0.742  0.00  0.00    -0.500 OA
BRANCH  13  16
ATOM     15  C   LIG    1        8.143   3.278   0.810  0.00  0.00    +0.270 C 
ATOM     16  O   LIG    1        7.009   2.426   1.121  0.00  0.00    -0.360 OA
ENDBRANCH  13  16
ENDBRANCH   1  13
BRANCH  11  17
ATOM     17  C   LIG    1        5.935  -1.145  -1.960  0.00  0.00    +0.220 C 
BRANCH  17  18
ATOM     18  N   LIG    1        7.154  -1.153  -2.780  0.00  0.00    -0.520 NA
ATOM     19  C   LIG    1        7.146  -0.047  -3.745  0.00  0.00    +0.170 C 
ATOM     20  C   LIG    1        8.488   0.000  -4.479  0.00  0.00    +0.040 C 
ATOM     21  C   LIG    1        8.717  -1.331  -5.201  0.00  0.00    -0.020 C 
ATOM     22  C   LIG    1        8.673  -2.470  -4.179  0.00  0.00    +0.040 C 
ATOM     23  C   LIG    1        7.325  -2.446  -3.454  0.00  0.00    +0.180 C 
BRANCH  21  24
ATOM     24  C   LIG    1       10.085  -1.313  -5.888  0.00  0.00    +0.170 C 
BRANCH  24  25
ATOM     25  O   LIG    1       10.086  -0.325  -6.920  0.00  0.00    -0.570 OA
ATOM     26  H   LIG    1       10.923  -0.259  -7.400  0.00  0.00    +0.380 HD
ENDBRANCH  24  25
ENDBRANCH  21  24
ENDBRANCH  17  18
ENDBRANCH  11  17
TORSDOF 6
