REMARK  Name = ZINCrD00000F5Lqp.0
REMARK                            x       y       z     vdW  Elec       q    Type
REMARK                         _______ _______ _______ _____ _____    ______ ____
ROOT
ATOM      1  C   LIG    1       -2.277  -4.314   0.214  0.00  0.00    +0.220 C 
ATOM      2  C   LIG    1       -2.876  -4.118   1.610  0.00  0.00    +0.040 C 
ATOM      3  C   LIG    1       -4.268  -3.493   1.480  0.00  0.00    +0.020 C 
ATOM      4  C   LIG    1       -4.153  -2.124   0.807  0.00  0.00    +0.010 C 
ATOM      5  C   LIG    1       -3.567  -2.294  -0.593  0.00  0.00    +0.270 C 
ATOM      6  N   LIG    1       -2.297  -3.026  -0.494  0.00  0.00    -0.600 N 
ATOM      7  C   LIG    1       -1.171  -2.524  -1.038  0.00  0.00    +0.540 C 
ATOM      8  O   LIG    1       -0.147  -3.182  -1.034  0.00  0.00    -0.500 OA
ENDROOT
BRANCH   1  11
ATOM      9  N   LIG    1       -0.535  -6.050  -0.050  0.00  0.00    -0.730 N 
ATOM     10  H   LIG    1       -1.219  -6.637  -0.409  0.00  0.00    +0.400 HD
ATOM     11  C   LIG    1       -0.856  -4.800   0.338  0.00  0.00    +0.530 C 
ATOM     12  O   LIG    1       -0.001  -4.066   0.786  0.00  0.00    -0.500 OA
BRANCH   9  13
ATOM     13  C   LIG    1        0.846  -6.522   0.070  0.00  0.00    +0.380 C 
BRANCH  13  17
ATOM     14  C   LIG    1        1.524 -10.683  -2.782  0.00  0.00    +0.190 C 
ATOM     15  C   LIG    1        1.232  -9.713  -1.666  0.00  0.00    -0.030 A 
ATOM     16  C   LIG    1        1.304  -8.362  -1.727  0.00  0.00    -0.050 A 
ATOM     17  C   LIG    1        0.937  -7.942  -0.428  0.00  0.00    -0.000 A 
ATOM     18  N   LIG    1        0.698  -9.024   0.255  0.00  0.00    -0.350 NA
ATOM     19  O   LIG    1        0.851 -10.018  -0.418  0.00  0.00    +0.110 OA
ENDBRANCH  13  17
ENDBRANCH   9  13
ENDBRANCH   1  11
BRANCH   7  20
ATOM     20  C   LIG    1       -1.180  -1.187  -1.635  0.00  0.00    -0.080 C 
ATOM     21  C   LIG    1       -0.030  -0.639  -2.078  0.00  0.00    +0.120 C 
BRANCH  21  22
ATOM     22  C   LIG    1       -0.038   0.704  -2.678  0.00  0.00    -0.070 A 
ATOM     23  C   LIG    1       -1.238   1.414  -2.795  0.00  0.00    +0.050 A 
ATOM     24  C   LIG    1       -1.238   2.674  -3.353  0.00  0.00    +0.030 A 
ATOM     25  C   LIG    1       -0.055   3.234  -3.807  0.00  0.00    -0.030 A 
ATOM     26  C   LIG    1        1.137   2.535  -3.699  0.00  0.00    +0.030 A 
ATOM     27 CL   LIG    1       -0.065   4.819  -4.516  0.00  0.00    -0.060 Cl
ATOM     28  C   LIG    1        1.152   1.276  -3.139  0.00  0.00    +0.060 A 
ENDBRANCH  21  22
ENDBRANCH   7  20
TORSDOF 5
