REMARK  Name = ZINCrH000004jbIr.0
REMARK                            x       y       z     vdW  Elec       q    Type
REMARK                         _______ _______ _______ _____ _____    ______ ____
ROOT
ATOM      1  N   LIG    1       -5.484   2.058   0.114  0.00  0.00    -0.550 N 
ATOM      2  C   LIG    1       -6.869   1.593  -0.026  0.00  0.00    +0.310 C 
ATOM      3  C   LIG    1       -7.703   2.864  -0.309  0.00  0.00    +0.010 C 
ATOM      4  C   LIG    1       -6.646   3.796  -0.946  0.00  0.00    +0.090 C 
ATOM      5  C   LIG    1       -5.328   3.289  -0.402  0.00  0.00    +0.520 C 
ATOM      6  O   LIG    1       -4.283   3.905  -0.428  0.00  0.00    -0.500 OA
ENDROOT
BRANCH   1  11
ATOM      7  C   LIG    1       -3.724  -0.633   1.897  0.00  0.00    -0.060 A 
ATOM      8  C   LIG    1       -2.425  -0.159   1.870  0.00  0.00    -0.020 A 
ATOM      9  C   LIG    1       -2.140   1.050   1.263  0.00  0.00    +0.040 A 
ATOM     10  C   LIG    1       -3.151   1.787   0.680  0.00  0.00    -0.010 A 
ATOM     11  C   LIG    1       -4.457   1.314   0.704  0.00  0.00    +0.170 A 
ATOM     12  C   LIG    1       -4.739   0.097   1.311  0.00  0.00    -0.030 A 
BRANCH   7  14
ATOM     13  C   LIG    1       -4.357  -1.716   4.035  0.00  0.00    +0.030 C 
ATOM     14  C   LIG    1       -4.030  -1.952   2.559  0.00  0.00    +0.060 C 
ENDBRANCH   7  14
ENDBRANCH   1  11
BRANCH   3  15
ATOM     15  C   LIG    1       -8.244   3.455   0.967  0.00  0.00    +0.520 C 
ATOM     16  N   LIG    1       -8.893   4.636   0.940  0.00  0.00    -0.720 N 
ATOM     17  H   LIG    1       -9.011   5.106   0.100  0.00  0.00    +0.400 HD
ATOM     18  O   LIG    1       -8.096   2.868   2.018  0.00  0.00    -0.520 OA
BRANCH  16  19
ATOM     19  C   LIG    1       -9.419   5.211   2.180  0.00  0.00    +0.300 C 
ATOM     20  C   LIG    1       -8.315   6.000   2.886  0.00  0.00    +0.040 C 
BRANCH  19  21
ATOM     21  C   LIG    1      -10.568   6.132   1.859  0.00  0.00    -0.080 A 
ATOM     22  C   LIG    1      -11.688   6.148   2.670  0.00  0.00    +0.060 A 
ATOM     23  C   LIG    1      -12.743   6.992   2.377  0.00  0.00    +0.030 A 
ATOM     24  C   LIG    1      -12.679   7.822   1.272  0.00  0.00    +0.070 A 
ATOM     25  C   LIG    1      -11.556   7.806   0.459  0.00  0.00    +0.070 A 
ATOM     26  F   LIG    1      -11.491   8.616  -0.621  0.00  0.00    -0.120 F 
ATOM     27  F   LIG    1      -13.710   8.647   0.986  0.00  0.00    -0.120 F 
ATOM     28  C   LIG    1      -10.499   6.964   0.757  0.00  0.00    +0.020 A 
ENDBRANCH  19  21
ENDBRANCH  16  19
ENDBRANCH   3  15
TORSDOF 5
