REMARK  Name = ZINCqH000000757E.0
REMARK                            x       y       z     vdW  Elec       q    Type
REMARK                         _______ _______ _______ _____ _____    ______ ____
ROOT
ATOM      1  C   LIG    1       -0.014   1.209   0.009  0.00  0.00    +0.520 C 
ATOM      2  N   LIG    1       -1.191   1.867   0.018  0.00  0.00    -0.730 N 
ATOM      3  H   LIG    1       -1.204   2.837   0.023  0.00  0.00    +0.400 HD
ATOM      4  O   LIG    1        0.002  -0.004   0.002  0.00  0.00    -0.530 OA
ENDROOT
BRANCH   1   5
ATOM      5  C   LIG    1        1.280   1.980   0.001  0.00  0.00    +0.130 C 
BRANCH   5  11
ATOM      6  C   LIG    1        2.893   0.499  -1.224  0.00  0.00    +0.180 A 
ATOM      7  C   LIG    1        3.962  -0.391  -1.248  0.00  0.00    -0.080 A 
ATOM      8  C   LIG    1        4.574  -0.762  -0.072  0.00  0.00    +0.110 A 
ATOM      9  C   LIG    1        4.117  -0.240   1.144  0.00  0.00    -0.210 A 
ATOM     10  C   LIG    1        3.043   0.658   1.156  0.00  0.00    +0.130 A 
ATOM     11  C   LIG    1        2.439   1.016  -0.016  0.00  0.00    -0.110 A 
BRANCH   9  12
ATOM     12  C   LIG    1        4.764  -0.631   2.403  0.00  0.00    +0.400 C 
ATOM     13  O   LIG    1        4.366  -0.178   3.456  0.00  0.00    -0.460 OA
ATOM     14  C   LIG    1        5.923  -1.595   2.388  0.00  0.00    +0.070 C 
ENDBRANCH   9  12
BRANCH   6  16
ATOM     15  C   LIG    1        2.807   0.295  -3.589  0.00  0.00    +0.240 C 
ATOM     16  O   LIG    1        2.291   0.863  -2.384  0.00  0.00    -0.310 OA
ENDBRANCH   6  16
ENDBRANCH   5  11
ENDBRANCH   1   5
BRANCH   2  17
ATOM     17  C   LIG    1       -2.449   1.117   0.020  0.00  0.00    +0.320 C 
BRANCH  17  18
ATOM     18  C   LIG    1       -3.608   2.080   0.030  0.00  0.00    -0.080 A 
ATOM     19  C   LIG    1       -4.137   2.512   1.232  0.00  0.00    +0.040 A 
ATOM     20  C   LIG    1       -5.197   3.400   1.242  0.00  0.00    +0.070 A 
ATOM     21  C   LIG    1       -5.734   3.848   0.050  0.00  0.00    -0.170 A 
ATOM     22  C   LIG    1       -5.208   3.413  -1.152  0.00  0.00    +0.070 A 
ATOM     23  C   LIG    1       -4.145   2.529  -1.162  0.00  0.00    +0.040 A 
BRANCH  21  24
ATOM     24  C   LIG    1       -6.893   4.811   0.061  0.00  0.00    +0.510 C 
ATOM     25  F   LIG    1       -6.835   5.623  -1.077  0.00  0.00    -0.180 F 
ATOM     26  F   LIG    1       -6.825   5.610   1.207  0.00  0.00    -0.180 F 
ATOM     27  F   LIG    1       -8.095   4.095   0.062  0.00  0.00    -0.170 F 
ENDBRANCH  21  24
ENDBRANCH  17  18
ENDBRANCH   2  17
TORSDOF 7
