REMARK  Name = ZINCkj000005j3Rw.0
REMARK                            x       y       z     vdW  Elec       q    Type
REMARK                         _______ _______ _______ _____ _____    ______ ____
ROOT
ATOM      1  C   LIG    1        1.011  -0.077   6.170  0.00  0.00    +0.080 C 
ATOM      2  C   LIG    1        0.250   0.230   4.878  0.00  0.00    +0.240 C 
ENDROOT
BRANCH   2   3
ATOM      3  N   LIG    1       -1.159  -0.135   5.042  0.00  0.00    -1.130 NA
ATOM      4  H   LIG    1       -1.448  -1.045   4.871  0.00  0.00    +0.430 HD
BRANCH   3   5
ATOM      5  S   LIG    1       -2.259   1.007   5.521  0.00  0.00    +2.590 S 
ATOM      6  O   LIG    1       -1.678   1.590   6.679  0.00  0.00    -0.920 OA
ATOM      7  O   LIG    1       -3.489   0.299   5.595  0.00  0.00    -0.920 OA
BRANCH   5   8
ATOM      8  C   LIG    1       -2.294   2.201   4.155  0.00  0.00    -0.310 C 
BRANCH   8   9
ATOM      9  C   LIG    1       -3.286   3.319   4.481  0.00  0.00    -0.050 C 
ATOM     10  C   LIG    1       -4.568   3.392   3.648  0.00  0.00    +0.110 C 
ATOM     11  C   LIG    1       -3.463   4.432   3.446  0.00  0.00    +0.120 C 
BRANCH   9  12
ATOM     12  C   LIG    1       -3.377   3.693   5.902  0.00  0.00    +0.170 C 
ATOM     13  N   LIG    1       -3.448   3.982   6.999  0.00  0.00    -0.350 NA
ENDBRANCH   9  12
ENDBRANCH   8   9
ENDBRANCH   5   8
ENDBRANCH   3   5
ENDBRANCH   2   3
BRANCH   2  14
ATOM     14  C   LIG    1        0.855  -0.577   3.727  0.00  0.00    +0.270 C 
BRANCH  14  15
ATOM     15  N   LIG    1        0.255  -0.145   2.458  0.00  0.00    -0.380 N 
ATOM     16  C   LIG    1       -1.157  -0.544   2.425  0.00  0.00    +0.230 C 
ATOM     17  C   LIG    1       -1.808  -0.026   1.141  0.00  0.00    +0.060 C 
ATOM     18  C   LIG    1       -1.080  -0.618  -0.069  0.00  0.00    +0.050 C 
ATOM     19  C   LIG    1        0.406  -0.257   0.015  0.00  0.00    +0.010 C 
ATOM     20  C   LIG    1        0.568   1.262  -0.060  0.00  0.00    +0.040 C 
ATOM     21  C   LIG    1        0.975  -0.767   1.341  0.00  0.00    +0.250 C 
ATOM     22  H   LIG    1        0.320   0.859   2.381  0.00  0.00    +0.420 HD
ENDBRANCH  14  15
ENDBRANCH   2  14
TORSDOF 7
