REMARK  Name = ZINCkj000005j3Rw.1
REMARK                            x       y       z     vdW  Elec       q    Type
REMARK                         _______ _______ _______ _____ _____    ______ ____
ROOT
ATOM      1  C   LIG    1        0.322  -1.039  -3.727  0.00  0.00    +0.080 C 
ATOM      2  C   LIG    1       -0.238  -0.489  -2.413  0.00  0.00    +0.240 C 
ENDROOT
BRANCH   2   3
ATOM      3  N   LIG    1       -1.657  -0.834  -2.305  0.00  0.00    -1.130 NA
ATOM      4  H   LIG    1       -2.327  -0.267  -2.719  0.00  0.00    +0.420 HD
BRANCH   3   5
ATOM      5  S   LIG    1       -2.120  -2.190  -1.476  0.00  0.00    +2.590 S 
ATOM      6  O   LIG    1       -1.318  -3.227  -2.026  0.00  0.00    -0.920 OA
ATOM      7  O   LIG    1       -3.535  -2.213  -1.603  0.00  0.00    -0.920 OA
BRANCH   5   8
ATOM      8  C   LIG    1       -1.640  -1.857   0.241  0.00  0.00    -0.310 C 
BRANCH   8   9
ATOM      9  C   LIG    1       -2.020  -3.052   1.118  0.00  0.00    -0.050 C 
ATOM     10  C   LIG    1       -3.147  -2.854   2.133  0.00  0.00    +0.110 C 
ATOM     11  C   LIG    1       -1.697  -2.964   2.611  0.00  0.00    +0.120 C 
BRANCH   9  12
ATOM     12  C   LIG    1       -1.908  -4.372   0.475  0.00  0.00    +0.170 C 
ATOM     13  N   LIG    1       -1.821  -5.390  -0.021  0.00  0.00    -0.350 NA
ENDBRANCH   9  12
ENDBRANCH   8   9
ENDBRANCH   5   8
ENDBRANCH   3   5
ENDBRANCH   2   3
BRANCH   2  14
ATOM     14  C   LIG    1       -0.078   1.032  -2.388  0.00  0.00    +0.270 C 
BRANCH  14  15
ATOM     15  N   LIG    1       -0.722   1.571  -1.182  0.00  0.00    -0.390 N 
ATOM     16  C   LIG    1       -0.013   1.086   0.008  0.00  0.00    +0.240 C 
ATOM     17  C   LIG    1       -0.728   1.579   1.268  0.00  0.00    +0.060 C 
ATOM     18  C   LIG    1       -0.745   3.110   1.272  0.00  0.00    +0.050 C 
ATOM     19  C   LIG    1       -1.421   3.606  -0.009  0.00  0.00    -0.020 C 
ATOM     20  C   LIG    1       -1.374   5.135  -0.052  0.00  0.00    +0.070 C 
ATOM     21  C   LIG    1       -0.681   3.038  -1.222  0.00  0.00    +0.250 C 
ATOM     22  H   LIG    1       -1.682   1.264  -1.149  0.00  0.00    +0.420 HD
ENDBRANCH  14  15
ENDBRANCH   2  14
TORSDOF 7
