REMARK  Name = ZINCrH000004owkA.0
REMARK                            x       y       z     vdW  Elec       q    Type
REMARK                         _______ _______ _______ _____ _____    ______ ____
ROOT
ATOM      1  C   LIG    1        7.336  -3.584   0.472  0.00  0.00    +0.500 C 
ATOM      2  N   LIG    1        6.247  -4.356   0.281  0.00  0.00    -0.670 N 
ATOM      3  H   LIG    1        6.341  -5.318   0.209  0.00  0.00    +0.410 HD
ATOM      4  O   LIG    1        7.228  -2.376   0.487  0.00  0.00    -0.510 OA
ENDROOT
BRANCH   2   5
ATOM      5  C   LIG    1        4.979  -3.767   0.186  0.00  0.00    +0.110 A 
ATOM      6  C   LIG    1        4.833  -2.529  -0.426  0.00  0.00    +0.070 A 
ATOM      7  C   LIG    1        3.583  -1.949  -0.519  0.00  0.00    +0.020 A 
ATOM      8  C   LIG    1        2.474  -2.602  -0.001  0.00  0.00    +0.110 A 
ATOM      9  C   LIG    1        2.621  -3.837   0.615  0.00  0.00    -0.040 A 
ATOM     10  C   LIG    1        3.869  -4.421   0.703  0.00  0.00    +0.030 A 
BRANCH   8  11
ATOM     11  O   LIG    1        1.244  -2.030  -0.092  0.00  0.00    -0.250 OA
BRANCH  11  12
ATOM     12  C   LIG    1        0.206  -2.646   0.532  0.00  0.00    +0.100 A 
ATOM     13  C   LIG    1        0.173  -2.717   1.917  0.00  0.00    +0.000 A 
ATOM     14  C   LIG    1       -0.883  -3.344   2.551  0.00  0.00    +0.050 A 
ATOM     15  C   LIG    1       -1.906  -3.900   1.806  0.00  0.00    +0.030 A 
ATOM     16  C   LIG    1       -1.875  -3.831   0.424  0.00  0.00    -0.020 A 
ATOM     17 CL   LIG    1       -3.165  -4.524  -0.509  0.00  0.00    -0.060 Cl
ATOM     18  C   LIG    1       -0.821  -3.205  -0.214  0.00  0.00    +0.020 A 
ENDBRANCH  11  12
ENDBRANCH   8  11
ENDBRANCH   2   5
BRANCH   1  19
ATOM     19  C   LIG    1        8.687  -4.223   0.666  0.00  0.00    +0.340 C 
BRANCH  19  23
ATOM     20  C   LIG    1       12.373  -2.046   2.626  0.00  0.00    +0.070 C 
ATOM     21  C   LIG    1       11.094  -1.636   1.892  0.00  0.00    +0.010 C 
ATOM     22  C   LIG    1       10.024  -2.693   2.056  0.00  0.00    +0.540 C 
ATOM     23  N   LIG    1        9.698  -3.179   0.852  0.00  0.00    -0.560 N 
ATOM     24  C   LIG    1       10.376  -2.638  -0.168  0.00  0.00    +0.540 C 
ATOM     25  O   LIG    1       10.242  -2.933  -1.336  0.00  0.00    -0.470 OA
ATOM     26  O   LIG    1        9.540  -3.045   3.110  0.00  0.00    -0.470 OA
ATOM     27  C   LIG    1       11.332  -1.595   0.369  0.00  0.00    +0.010 C 
ATOM     28  C   LIG    1       10.998  -0.211  -0.191  0.00  0.00    +0.080 C 
ENDBRANCH  19  23
ENDBRANCH   1  19
TORSDOF 5
