REMARK  Name = ZINCrH000004mcbq.2
REMARK                            x       y       z     vdW  Elec       q    Type
REMARK                         _______ _______ _______ _____ _____    ______ ____
ROOT
ATOM      1  N   LIG    1        1.013  -6.217   0.070  0.00  0.00    -0.670 N 
ATOM      2  H   LIG    1        1.535  -6.736   0.701  0.00  0.00    +0.410 HD
ATOM      3  C   LIG    1        0.960  -4.875   0.182  0.00  0.00    +0.480 C 
ATOM      4  O   LIG    1        0.244  -4.233  -0.557  0.00  0.00    -0.510 OA
ENDROOT
BRANCH   1   7
ATOM      5  C   LIG    1        0.148  -8.642  -2.562  0.00  0.00    +0.180 A 
ATOM      6  C   LIG    1        0.841  -8.003  -1.545  0.00  0.00    -0.080 A 
ATOM      7  C   LIG    1        0.314  -6.862  -0.957  0.00  0.00    +0.220 A 
ATOM      8  C   LIG    1       -0.909  -6.363  -1.384  0.00  0.00    -0.040 A 
ATOM      9  C   LIG    1       -1.598  -6.999  -2.405  0.00  0.00    +0.180 A 
ATOM     10  C   LIG    1       -1.071  -8.140  -2.992  0.00  0.00    -0.170 A 
BRANCH   5  12
ATOM     11  C   LIG    1       -0.103 -10.365  -4.180  0.00  0.00    +0.250 C 
ATOM     12  O   LIG    1        0.664  -9.759  -3.138  0.00  0.00    -0.310 OA
ENDBRANCH   5  12
BRANCH   9  13
ATOM     13  O   LIG    1       -2.793  -6.508  -2.826  0.00  0.00    -0.310 OA
ATOM     14  C   LIG    1       -3.451  -7.218  -3.878  0.00  0.00    +0.250 C 
ENDBRANCH   9  13
ENDBRANCH   1   7
BRANCH   3  15
ATOM     15  C   LIG    1        1.789  -4.173   1.226  0.00  0.00    +0.250 C 
BRANCH  15  16
ATOM     16  N   LIG    1        1.645  -2.719   1.070  0.00  0.00    -0.470 NA
BRANCH  16  17
ATOM     17  C   LIG    1        2.177  -2.274  -0.225  0.00  0.00    +0.190 C 
ATOM     18  C   LIG    1        3.698  -2.528  -0.294  0.00  0.00    +0.040 C 
ATOM     19  C   LIG    1        4.281  -1.188   0.204  0.00  0.00    +0.070 C 
ATOM     20  C   LIG    1        3.227  -0.152  -0.124  0.00  0.00    -0.080 A 
ATOM     21  C   LIG    1        3.319   1.228  -0.200  0.00  0.00    +0.010 A 
ATOM     22  C   LIG    1        2.207   1.982  -0.522  0.00  0.00    +0.010 A 
ATOM     23  C   LIG    1        0.999   1.358  -0.768  0.00  0.00    -0.010 A 
ATOM     24  C   LIG    1        0.905  -0.018  -0.692  0.00  0.00    +0.030 A 
ATOM     25  C   LIG    1        2.018  -0.776  -0.370  0.00  0.00    -0.080 A 
ENDBRANCH  16  17
BRANCH  16  26
ATOM     26  C   LIG    1        0.244  -2.309   1.233  0.00  0.00    +0.120 C 
ATOM     27  C   LIG    1       -0.049  -1.168   2.209  0.00  0.00    +0.030 C 
ATOM     28  C   LIG    1       -0.428  -2.604   2.575  0.00  0.00    +0.010 C 
ENDBRANCH  16  26
ENDBRANCH  15  16
ENDBRANCH   3  15
TORSDOF 7
