REMARK  Name = ZINCrm000000JeCt.1
REMARK                            x       y       z     vdW  Elec       q    Type
REMARK                         _______ _______ _______ _____ _____    ______ ____
ROOT
ATOM      1  C   LIG    1        4.089   1.524   3.306  0.00  0.00    +0.060 C 
ATOM      2  C   LIG    1        3.219   2.136   2.185  0.00  0.00    +0.310 C 
ATOM      3  N   LIG    1        2.814   0.977   1.349  0.00  0.00    -0.400 N 
ATOM      4  C   LIG    1        4.027   0.118   1.300  0.00  0.00    +0.280 C 
ATOM      5  H   LIG    1        2.047   0.482   1.778  0.00  0.00    +0.440 HD
ATOM      6  C   LIG    1        4.617   0.204   2.719  0.00  0.00    -0.080 C 
ATOM      7  C   LIG    1        4.138  -0.976   3.559  0.00  0.00    +0.070 C 
ATOM      8  C   LIG    1        4.723  -2.272   2.991  0.00  0.00    +0.270 C 
ATOM      9  N   LIG    1        6.189  -2.197   3.007  0.00  0.00    -0.510 N 
ATOM     10  C   LIG    1        6.645  -1.118   2.123  0.00  0.00    +0.270 C 
ATOM     11  H   LIG    1        6.506  -2.016   3.948  0.00  0.00    +0.440 HD
ATOM     12  H   LIG    1        6.573  -3.075   2.689  0.00  0.00    +0.440 HD
ATOM     13  C   LIG    1        6.141   0.227   2.655  0.00  0.00    +0.110 C 
ENDROOT
BRANCH   1  14
ATOM     14  C   LIG    1        3.253   1.256   4.531  0.00  0.00    +0.460 C 
ATOM     15  O   LIG    1        2.079   0.997   4.416  0.00  0.00    -0.490 OA
BRANCH  14  17
ATOM     16  C   LIG    1        2.949   1.037   6.884  0.00  0.00    +0.300 C 
ATOM     17  O   LIG    1        3.814   1.306   5.749  0.00  0.00    -0.350 OA
ENDBRANCH  14  17
ENDBRANCH   1  14
BRANCH   3  18
ATOM     18  C   LIG    1        2.446   1.422  -0.002  0.00  0.00    +0.360 C 
BRANCH  18  19
ATOM     19  C   LIG    1        1.198   2.263   0.069  0.00  0.00    -0.290 A 
ATOM     20  C   LIG    1        1.297   3.614   0.138  0.00  0.00    +0.230 A 
ATOM     21  C   LIG    1        0.066   4.403   0.207  0.00  0.00    -0.180 A 
ATOM     22  C   LIG    1        0.105   5.800   0.278  0.00  0.00    +0.150 A 
ATOM     23  C   LIG    1       -1.061   6.508   0.342  0.00  0.00    -0.020 A 
ATOM     24  C   LIG    1       -2.287   5.852   0.335  0.00  0.00    +0.200 A 
ATOM     25  C   LIG    1       -2.349   4.474   0.264  0.00  0.00    -0.050 A 
ATOM     26  F   LIG    1       -3.430   6.570   0.398  0.00  0.00    -0.110 F 
ATOM     27  C   LIG    1       -1.174   3.735   0.199  0.00  0.00    +0.230 A 
ATOM     28  N   LIG    1       -1.206   2.358   0.122  0.00  0.00    -0.620 N 
ATOM     29  H   LIG    1       -2.060   1.900   0.113  0.00  0.00    +0.430 HD
ATOM     30  C   LIG    1       -0.069   1.643   0.065  0.00  0.00    +0.550 A 
ATOM     31  O   LIG    1       -0.135   0.427   0.003  0.00  0.00    -0.540 OA
ENDBRANCH  18  19
ENDBRANCH   3  18
TORSDOF 4
