REMARK  Name = ZINCrm000000JeCt.0
REMARK                            x       y       z     vdW  Elec       q    Type
REMARK                         _______ _______ _______ _____ _____    ______ ____
ROOT
ATOM      1  C   LIG    1       -0.472  -3.367   3.082  0.00  0.00    +0.050 C 
ATOM      2  C   LIG    1       -0.271  -2.255   2.027  0.00  0.00    +0.310 C 
ATOM      3  N   LIG    1        1.030  -2.578   1.387  0.00  0.00    -0.390 N 
ATOM      4  C   LIG    1        1.025  -4.060   1.271  0.00  0.00    +0.280 C 
ATOM      5  H   LIG    1        1.796  -2.271   1.968  0.00  0.00    +0.430 HD
ATOM      6  C   LIG    1        0.377  -4.546   2.580  0.00  0.00    -0.080 C 
ATOM      7  C   LIG    1       -0.510  -5.758   2.309  0.00  0.00    +0.080 C 
ATOM      8  C   LIG    1        0.364  -6.935   1.866  0.00  0.00    +0.270 C 
ATOM      9  N   LIG    1        1.342  -7.244   2.917  0.00  0.00    -0.510 N 
ATOM     10  C   LIG    1        2.249  -6.106   3.107  0.00  0.00    +0.270 C 
ATOM     11  H   LIG    1        0.856  -7.433   3.781  0.00  0.00    +0.440 HD
ATOM     12  H   LIG    1        1.876  -8.057   2.650  0.00  0.00    +0.440 HD
ATOM     13  C   LIG    1        1.455  -4.894   3.602  0.00  0.00    +0.090 C 
ENDROOT
BRANCH   1  14
ATOM     14  C   LIG    1       -1.925  -3.761   3.157  0.00  0.00    +0.460 C 
ATOM     15  O   LIG    1       -2.624  -3.684   2.174  0.00  0.00    -0.470 OA
BRANCH  14  17
ATOM     16  C   LIG    1       -3.849  -4.561   4.314  0.00  0.00    +0.300 C 
ATOM     17  O   LIG    1       -2.443  -4.198   4.315  0.00  0.00    -0.350 OA
ENDBRANCH  14  17
ENDBRANCH   1  14
BRANCH   3  18
ATOM     18  C   LIG    1        1.115  -1.960   0.057  0.00  0.00    +0.370 C 
BRANCH  18  19
ATOM     19  C   LIG    1        1.151  -0.460   0.202  0.00  0.00    -0.290 A 
ATOM     20  C   LIG    1        2.342   0.188   0.224  0.00  0.00    +0.240 A 
ATOM     21  C   LIG    1        2.343   1.645   0.366  0.00  0.00    -0.180 A 
ATOM     22  C   LIG    1        3.540   2.368   0.396  0.00  0.00    +0.150 A 
ATOM     23  C   LIG    1        3.508   3.726   0.530  0.00  0.00    -0.020 A 
ATOM     24  C   LIG    1        2.295   4.398   0.637  0.00  0.00    +0.200 A 
ATOM     25  C   LIG    1        1.101   3.703   0.610  0.00  0.00    -0.050 A 
ATOM     26  F   LIG    1        2.284   5.742   0.769  0.00  0.00    -0.110 F 
ATOM     27  C   LIG    1        1.112   2.320   0.475  0.00  0.00    +0.230 A 
ATOM     28  N   LIG    1       -0.065   1.602   0.445  0.00  0.00    -0.620 N 
ATOM     29  H   LIG    1       -0.912   2.069   0.516  0.00  0.00    +0.430 HD
ATOM     30  C   LIG    1       -0.054   0.264   0.314  0.00  0.00    +0.550 A 
ATOM     31  O   LIG    1       -1.114  -0.339   0.291  0.00  0.00    -0.540 OA
ENDBRANCH  18  19
ENDBRANCH   3  18
TORSDOF 4
