REMARK  Name = ZINCrH000004qtuJ.0
REMARK                            x       y       z     vdW  Elec       q    Type
REMARK                         _______ _______ _______ _____ _____    ______ ____
ROOT
ATOM      1  C   LIG    1       -2.686   1.384  -0.193  0.00  0.00    +0.130 A 
ATOM      2  C   LIG    1       -2.920   0.061  -0.263  0.00  0.00    -0.100 A 
ATOM      3  S   LIG    1       -4.661  -0.184  -0.378  0.00  0.00    +0.200 S 
ATOM      4  C   LIG    1       -4.911   1.558  -0.328  0.00  0.00    +0.270 A 
ATOM      5  N   LIG    1       -3.764   2.155  -0.232  0.00  0.00    -0.490 NA
ENDROOT
BRANCH   1  10
ATOM      6  C   LIG    1        2.631   3.559   0.217  0.00  0.00    +0.090 C 
ATOM      7  C   LIG    1        1.240   2.988   0.112  0.00  0.00    -0.070 A 
ATOM      8  C   LIG    1        0.242   3.443   0.955  0.00  0.00    +0.000 A 
ATOM      9  C   LIG    1       -1.033   2.924   0.863  0.00  0.00    -0.050 A 
ATOM     10  C   LIG    1       -1.316   1.942  -0.085  0.00  0.00    -0.030 A 
ATOM     11  C   LIG    1       -0.305   1.482  -0.928  0.00  0.00    +0.030 A 
ATOM     12  C   LIG    1       -2.119   3.421   1.782  0.00  0.00    +0.100 C 
ATOM     13  C   LIG    1        0.966   2.009  -0.827  0.00  0.00    -0.090 A 
ATOM     14  C   LIG    1        2.059   1.518  -1.741  0.00  0.00    +0.090 C 
ENDBRANCH   1  10
BRANCH   4  15
ATOM     15  N   LIG    1       -6.145   2.194  -0.382  0.00  0.00    -0.610 N 
ATOM     16  H   LIG    1       -6.193   3.163  -0.348  0.00  0.00    +0.430 HD
ATOM     17  C   LIG    1       -7.275   1.466  -0.481  0.00  0.00    +0.540 C 
ATOM     18  O   LIG    1       -7.214   0.256  -0.524  0.00  0.00    -0.490 OA
BRANCH  17  19
ATOM     19  C   LIG    1       -8.613   2.156  -0.540  0.00  0.00    +0.130 C 
BRANCH  19  20
ATOM     20  S   LIG    1       -9.926   0.917  -0.671  0.00  0.00    +0.130 S 
BRANCH  20  21
ATOM     21  C   LIG    1      -11.337   1.970  -0.721  0.00  0.00    +0.200 A 
ATOM     22  N   LIG    1      -11.334   3.285  -0.671  0.00  0.00    -0.340 NA
ATOM     23  N   LIG    1      -12.533   3.740  -0.730  0.00  0.00    -0.030 NA
ATOM     24  N   LIG    1      -13.377   2.770  -0.820  0.00  0.00    -0.070 NA
ATOM     25  N   LIG    1      -12.630   1.579  -0.823  0.00  0.00    -0.330 N 
BRANCH  25  26
ATOM     26  C   LIG    1      -13.140   0.209  -0.915  0.00  0.00    +0.210 C 
ATOM     27  C   LIG    1      -14.627   0.028  -1.225  0.00  0.00    +0.090 C 
ATOM     28  C   LIG    1      -14.098  -0.263   0.180  0.00  0.00    +0.070 C 
ENDBRANCH  25  26
ENDBRANCH  20  21
ENDBRANCH  19  20
ENDBRANCH  17  19
ENDBRANCH   4  15
TORSDOF 6
