REMARK  Name = ZINCvU00000005te.0
REMARK                            x       y       z     vdW  Elec       q    Type
REMARK                         _______ _______ _______ _____ _____    ______ ____
ROOT
ATOM      1  N   LIG    1       -0.579   1.442   1.346  0.00  0.00    -0.530 N 
ATOM      2  C   LIG    1       -0.155   2.568   1.965  0.00  0.00    +0.550 A 
ATOM      3  C   LIG    1       -1.009   3.122   3.027  0.00  0.00    -0.190 A 
ATOM      4  C   LIG    1       -0.660   4.279   3.720  0.00  0.00    +0.100 A 
ATOM      5  C   LIG    1       -1.492   4.754   4.711  0.00  0.00    -0.010 A 
ATOM      6  C   LIG    1       -2.671   4.090   5.022  0.00  0.00    +0.070 A 
ATOM      7  C   LIG    1       -3.035   2.945   4.349  0.00  0.00    +0.030 A 
ATOM      8  C   LIG    1       -2.208   2.443   3.341  0.00  0.00    +0.150 A 
ATOM      9  N   LIG    1       -2.528   1.324   2.659  0.00  0.00    -0.510 NA
ATOM     10  O   LIG    1        0.892   3.105   1.653  0.00  0.00    -0.490 OA
ATOM     11  C   LIG    1       -1.756   0.851   1.715  0.00  0.00    +0.440 A 
ENDROOT
BRANCH  11  12
ATOM     12  C   LIG    1       -2.176  -0.381   1.014  0.00  0.00    -0.060 A 
ATOM     13  C   LIG    1       -3.433  -0.451   0.411  0.00  0.00    +0.090 A 
ATOM     14  C   LIG    1       -3.817  -1.601  -0.246  0.00  0.00    +0.030 A 
ATOM     15  C   LIG    1       -2.962  -2.689  -0.299  0.00  0.00    -0.020 A 
ATOM     16  C   LIG    1       -1.715  -2.628   0.302  0.00  0.00    +0.030 A 
ATOM     17 CL   LIG    1       -3.454  -4.136  -1.121  0.00  0.00    -0.060 Cl
ATOM     18  C   LIG    1       -1.318  -1.481   0.957  0.00  0.00    +0.060 A 
ENDBRANCH  11  12
BRANCH   1  19
ATOM     19  C   LIG    1        0.230   0.850   0.278  0.00  0.00    +0.310 C 
BRANCH  19  20
ATOM     20  C   LIG    1       -0.290   1.326  -1.080  0.00  0.00    +0.170 C 
BRANCH  20  21
ATOM     21  O   LIG    1       -0.095   2.737  -1.196  0.00  0.00    -0.370 OA
BRANCH  21  22
ATOM     22  C   LIG    1       -0.549   3.287  -2.435  0.00  0.00    +0.190 C 
BRANCH  22  23
ATOM     23  C   LIG    1       -0.291   4.795  -2.449  0.00  0.00    +0.210 C 
BRANCH  23  24
ATOM     24  O   LIG    1        1.117   5.037  -2.421  0.00  0.00    -0.300 OA
BRANCH  24  30
ATOM     25  C   LIG    1        4.747   8.300  -2.384  0.00  0.00    +0.090 C 
ATOM     26  C   LIG    1        3.278   7.964  -2.411  0.00  0.00    -0.050 A 
ATOM     27  C   LIG    1        2.339   8.978  -2.445  0.00  0.00    -0.040 A 
ATOM     28  C   LIG    1        0.990   8.673  -2.470  0.00  0.00    +0.040 A 
ATOM     29  C   LIG    1        0.579   7.354  -2.468  0.00  0.00    -0.100 A 
ATOM     30  C   LIG    1        1.520   6.335  -2.429  0.00  0.00    +0.140 A 
ATOM     31  C   LIG    1        2.872   6.644  -2.403  0.00  0.00    -0.020 A 
ENDBRANCH  24  30
ENDBRANCH  23  24
ENDBRANCH  22  23
ENDBRANCH  21  22
ENDBRANCH  20  21
ENDBRANCH  19  20
ENDBRANCH   1  19
TORSDOF 8
