REMARK  Name = ZINCkj000005lQE9.0
REMARK                            x       y       z     vdW  Elec       q    Type
REMARK                         _______ _______ _______ _____ _____    ______ ____
ROOT
ATOM      1  O   LIG    1        5.815   3.670  -0.739  0.00  0.00    -0.560 OA
ATOM      2  C   LIG    1        5.186   3.178  -1.656  0.00  0.00    +0.710 C 
ATOM      3  N   LIG    1        5.610   3.336  -2.925  0.00  0.00    -0.650 N 
ATOM      4  C   LIG    1        4.810   2.843  -4.057  0.00  0.00    +0.310 C 
ATOM      5  C   LIG    1        4.660   3.985  -5.074  0.00  0.00    +0.270 C 
ATOM      6  N   LIG    1        5.990   4.484  -5.445  0.00  0.00    -0.500 N 
ATOM      7  C   LIG    1        6.644   5.083  -4.275  0.00  0.00    +0.270 C 
ATOM      8  H   LIG    1        6.551   3.718  -5.787  0.00  0.00    +0.430 HD
ATOM      9  H   LIG    1        5.896   5.180  -6.170  0.00  0.00    +0.440 HD
ATOM     10  C   LIG    1        6.889   4.001  -3.218  0.00  0.00    +0.340 C 
ATOM     11  N   LIG    1        4.064   2.474  -1.403  0.00  0.00    -0.730 N 
ATOM     12  H   LIG    1        3.523   2.143  -2.137  0.00  0.00    +0.400 HD
ENDROOT
BRANCH  11  13
ATOM     13  C   LIG    1        3.662   2.210  -0.019  0.00  0.00    +0.350 C 
BRANCH  13  14
ATOM     14  C   LIG    1        2.385   1.411  -0.011  0.00  0.00    -0.100 A 
ATOM     15  C   LIG    1        2.445   0.052  -0.017  0.00  0.00    +0.080 A 
ATOM     16  C   LIG    1        1.256  -0.699  -0.010  0.00  0.00    +0.120 A 
ATOM     17  N   LIG    1        1.284  -2.035  -0.016  0.00  0.00    -0.470 NA
ATOM     18  C   LIG    1        0.179  -2.740  -0.009  0.00  0.00    +0.300 A 
ATOM     19  C   LIG    1       -1.076  -2.136   0.004  0.00  0.00    -0.030 A 
ATOM     20  C   LIG    1       -1.176  -0.774   0.011  0.00  0.00    +0.080 A 
ATOM     21  C   LIG    1        0.013  -0.020   0.004  0.00  0.00    -0.100 A 
ATOM     22  C   LIG    1       -0.012   1.384   0.009  0.00  0.00    +0.050 A 
ATOM     23  C   LIG    1        1.160   2.077   0.001  0.00  0.00    +0.020 A 
ENDBRANCH  13  14
ENDBRANCH  11  13
TORSDOF 2
