REMARK  Name = ZINCpk00000e9CPF.0
REMARK                            x       y       z     vdW  Elec       q    Type
REMARK                         _______ _______ _______ _____ _____    ______ ____
ROOT
ATOM      1  N   LIG    1        1.473   7.787  -0.556  0.00  0.00    -0.530 NA
ATOM      2  C   LIG    1        1.777   8.208   0.817  0.00  0.00    +0.170 C 
ATOM      3  C   LIG    1        2.760   7.221   1.450  0.00  0.00    +0.050 C 
ATOM      4  C   LIG    1        2.139   5.821   1.451  0.00  0.00    +0.010 C 
ATOM      5  C   LIG    1        1.788   5.425   0.015  0.00  0.00    +0.260 C 
ATOM      6  C   LIG    1        0.833   6.465  -0.577  0.00  0.00    +0.190 C 
ENDROOT
BRANCH   5   7
ATOM      7  N   LIG    1        1.141   4.111   0.013  0.00  0.00    -0.700 N 
ATOM      8  H   LIG    1        0.173   4.047   0.021  0.00  0.00    +0.420 HD
BRANCH   7   9
ATOM      9  C   LIG    1        1.907   2.967   0.000  0.00  0.00    +0.490 A 
ATOM     10  C   LIG    1        3.286   3.043  -0.012  0.00  0.00    -0.150 A 
ATOM     11  C   LIG    1        4.027   1.864  -0.026  0.00  0.00    +0.270 A 
ATOM     12  N   LIG    1        3.422   0.695  -0.027  0.00  0.00    -0.510 NA
ATOM     13  C   LIG    1        2.087   0.606  -0.015  0.00  0.00    +0.490 A 
ATOM     14  N   LIG    1        1.258  -0.433  -0.012  0.00  0.00    -0.540 NA
ATOM     15  C   LIG    1        0.002  -0.004   0.002  0.00  0.00    +0.490 A 
ATOM     16  N   LIG    1       -0.016   1.306   0.009  0.00  0.00    -0.360 NA
ATOM     17  C   LIG    1        5.533   1.927  -0.039  0.00  0.00    +0.160 C 
ATOM     18  N   LIG    1        1.318   1.735  -0.001  0.00  0.00    -0.370 N 
ENDBRANCH   7   9
ENDBRANCH   5   7
BRANCH   1  19
ATOM     19  C   LIG    1        0.641   8.785  -1.242  0.00  0.00    +0.330 C 
BRANCH  19  22
ATOM     20  C   LIG    1        2.693  11.557  -2.216  0.00  0.00    +0.180 A 
ATOM     21  N   LIG    1        2.205  10.369  -2.477  0.00  0.00    -0.470 NA
ATOM     22  C   LIG    1        1.430  10.056  -1.423  0.00  0.00    +0.180 A 
ATOM     23  N   LIG    1        1.482  11.055  -0.593  0.00  0.00    -0.380 NA
ATOM     24  O   LIG    1        2.206  11.925  -1.027  0.00  0.00    +0.080 OA
BRANCH  20  26
ATOM     25  C   LIG    1        2.808  13.236  -4.037  0.00  0.00    +0.050 C 
ATOM     26  C   LIG    1        3.626  12.357  -3.089  0.00  0.00    +0.180 C 
ENDBRANCH  20  26
ENDBRANCH  19  22
ENDBRANCH   1  19
TORSDOF 5
