REMARK  Name = ZINCvU0000000AUs.0
REMARK                            x       y       z     vdW  Elec       q    Type
REMARK                         _______ _______ _______ _____ _____    ______ ____
ROOT
ATOM      1  C   LIG    1        2.372   1.437  -0.041  0.00  0.00    +0.110 A 
ATOM      2  C   LIG    1        2.387   0.053  -0.041  0.00  0.00    -0.040 A 
ATOM      3  C   LIG    1        1.198  -0.662  -0.034  0.00  0.00    -0.050 A 
ATOM      4  C   LIG    1       -0.007   0.007  -0.023  0.00  0.00    -0.080 A 
ATOM      5  C   LIG    1       -1.323  -0.728  -0.003  0.00  0.00    +0.280 C 
ATOM      6  N   LIG    1       -1.139  -2.123  -0.415  0.00  0.00    -0.510 NA
ATOM      7  C   LIG    1       -0.077  -2.755   0.385  0.00  0.00    +0.190 C 
ATOM      8  C   LIG    1       -0.028   1.394  -0.026  0.00  0.00    -0.020 A 
ATOM      9  C   LIG    1        1.268  -2.167  -0.044  0.00  0.00    +0.100 C 
ATOM     10  C   LIG    1        1.154   2.112  -0.034  0.00  0.00    +0.100 A 
ENDROOT
BRANCH   5  11
ATOM     11  C   LIG    1       -2.284  -0.053  -0.947  0.00  0.00    -0.180 A 
ATOM     12  C   LIG    1       -3.248   0.796  -0.586  0.00  0.00    +0.000 A 
ATOM     13  C   LIG    1       -4.009   1.292  -1.630  0.00  0.00    +0.000 A 
ATOM     14  C   LIG    1       -3.663   0.846  -2.839  0.00  0.00    -0.070 A 
ATOM     15  S   LIG    1       -2.302  -0.258  -2.693  0.00  0.00    +0.160 S 
ENDBRANCH   5  11
BRANCH   1  17
ATOM     16  C   LIG    1        4.749   1.372  -0.054  0.00  0.00    +0.250 C 
ATOM     17  O   LIG    1        3.540   2.133  -0.047  0.00  0.00    -0.310 OA
ENDBRANCH   1  17
BRANCH  10  18
ATOM     18  O   LIG    1        1.128   3.472  -0.037  0.00  0.00    -0.310 OA
ATOM     19  C   LIG    1       -0.158   4.096  -0.030  0.00  0.00    +0.230 C 
ENDBRANCH  10  18
BRANCH   6  20
ATOM     20  C   LIG    1       -2.397  -2.873  -0.307  0.00  0.00    +0.210 C 
BRANCH  20  21
ATOM     21  C   LIG    1       -2.228  -4.229  -0.943  0.00  0.00    +0.520 C 
ATOM     22  N   LIG    1       -3.259  -5.097  -0.963  0.00  0.00    -0.670 N 
ATOM     23  H   LIG    1       -4.083  -4.882  -0.498  0.00  0.00    +0.410 HD
ATOM     24  O   LIG    1       -1.165  -4.540  -1.437  0.00  0.00    -0.490 OA
BRANCH  22  25
ATOM     25  C   LIG    1       -3.141  -6.309  -1.653  0.00  0.00    +0.160 A 
ATOM     26  C   LIG    1       -2.244  -6.425  -2.706  0.00  0.00    +0.040 A 
ATOM     27  C   LIG    1       -2.126  -7.625  -3.382  0.00  0.00    -0.020 A 
ATOM     28  C   LIG    1       -2.909  -8.706  -3.017  0.00  0.00    +0.000 A 
ATOM     29  C   LIG    1       -3.807  -8.591  -1.972  0.00  0.00    +0.050 A 
ATOM     30 CL   LIG    1       -1.000  -7.773  -4.695  0.00  0.00    -0.060 Cl
ATOM     31  C   LIG    1       -3.925  -7.396  -1.289  0.00  0.00    -0.110 A 
ATOM     32  C   LIG    1       -4.905  -7.272  -0.151  0.00  0.00    +0.090 C 
ENDBRANCH  22  25
ENDBRANCH  20  21
ENDBRANCH   6  20
TORSDOF 6
