REMARK  Name = ZINCvU0000000Fn7.0
REMARK                            x       y       z     vdW  Elec       q    Type
REMARK                         _______ _______ _______ _____ _____    ______ ____
ROOT
ATOM      1  C   LIG    1      -10.646   2.735  -2.203  0.00  0.00    +0.120 A 
ATOM      2  C   LIG    1      -10.117   2.267  -3.348  0.00  0.00    -0.090 A 
ATOM      3  S   LIG    1       -8.412   1.923  -3.067  0.00  0.00    +0.210 S 
ATOM      4  C   LIG    1       -8.581   2.446  -1.394  0.00  0.00    +0.270 A 
ATOM      5  N   LIG    1       -9.805   2.819  -1.182  0.00  0.00    -0.490 NA
ENDROOT
BRANCH   1   9
ATOM      6  C   LIG    1      -14.735   3.869  -1.881  0.00  0.00    +0.180 A 
ATOM      7  C   LIG    1      -13.895   3.976  -0.779  0.00  0.00    +0.020 A 
ATOM      8  C   LIG    1      -12.569   3.609  -0.881  0.00  0.00    +0.110 A 
ATOM      9  C   LIG    1      -12.071   3.130  -2.091  0.00  0.00    -0.060 A 
ATOM     10  C   LIG    1      -12.914   3.028  -3.199  0.00  0.00    +0.130 A 
ATOM     11  F   LIG    1      -12.433   2.569  -4.375  0.00  0.00    -0.130 F 
ATOM     12  C   LIG    1      -14.242   3.391  -3.089  0.00  0.00    -0.040 A 
BRANCH   6  15
ATOM     13  C   LIG    1      -17.860   5.754  -0.963  0.00  0.00    +0.110 C 
ATOM     14  C   LIG    1      -16.428   5.287  -0.998  0.00  0.00    +0.510 C 
ATOM     15  N   LIG    1      -16.079   4.242  -1.774  0.00  0.00    -0.670 N 
ATOM     16  H   LIG    1      -16.759   3.749  -2.258  0.00  0.00    +0.410 HD
ATOM     17  O   LIG    1      -15.589   5.852  -0.328  0.00  0.00    -0.520 OA
ENDBRANCH   6  15
ENDBRANCH   1   9
BRANCH   4  18
ATOM     18  N   LIG    1       -7.562   2.463  -0.452  0.00  0.00    -0.620 N 
ATOM     19  H   LIG    1       -7.740   2.772   0.450  0.00  0.00    +0.420 HD
ATOM     20  C   LIG    1       -6.324   2.050  -0.790  0.00  0.00    +0.600 C 
ATOM     21  O   LIG    1       -6.100   1.663  -1.922  0.00  0.00    -0.480 OA
BRANCH  20  22
ATOM     22  C   LIG    1       -5.245   2.068   0.207  0.00  0.00    -0.260 A 
ATOM     23  C   LIG    1       -3.987   1.680  -0.027  0.00  0.00    +0.030 A 
ATOM     24  C   LIG    1       -3.111   1.782   1.063  0.00  0.00    -0.150 A 
ATOM     25  C   LIG    1       -1.737   1.448   1.141  0.00  0.00    +0.030 A 
ATOM     26  C   LIG    1       -1.081   1.627   2.325  0.00  0.00    -0.030 A 
ATOM     27  C   LIG    1       -1.767   2.122   3.424  0.00  0.00    +0.190 A 
ATOM     28  N   LIG    1       -3.043   2.424   3.346  0.00  0.00    -0.470 NA
ATOM     29  C   LIG    1       -1.038   2.316   4.728  0.00  0.00    +0.140 C 
ATOM     30  C   LIG    1       -1.010   0.912  -0.065  0.00  0.00    +0.120 C 
ATOM     31  C   LIG    1       -3.738   2.272   2.218  0.00  0.00    +0.090 A 
ATOM     32  C   LIG    1       -3.540   1.173  -1.374  0.00  0.00    +0.140 C 
ATOM     33  S   LIG    1       -5.432   2.600   1.868  0.00  0.00    +0.180 S 
ENDBRANCH  20  22
ENDBRANCH   4  18
TORSDOF 4
