REMARK  Name = ZINCrD000000BQ78.0
REMARK                            x       y       z     vdW  Elec       q    Type
REMARK                         _______ _______ _______ _____ _____    ______ ____
ROOT
ATOM      1  N   LIG    1        1.149   1.814  -0.172  0.00  0.00    -0.720 N 
ATOM      2  H   LIG    1        1.152   2.783  -0.124  0.00  0.00    +0.400 HD
ATOM      3  C   LIG    1       -0.018   1.141  -0.155  0.00  0.00    +0.560 C 
ATOM      4  O   LIG    1       -0.022  -0.073  -0.214  0.00  0.00    -0.520 OA
ENDROOT
BRANCH   1  14
ATOM      5  O   LIG    1        3.829  -0.512   4.778  0.00  0.00    -0.550 OA
ATOM      6  C   LIG    1        3.511  -0.155   3.655  0.00  0.00    +0.520 A 
ATOM      7  C   LIG    1        2.172  -0.246   3.238  0.00  0.00    -0.090 A 
ATOM      8  C   LIG    1        1.845   0.156   1.980  0.00  0.00    +0.130 A 
ATOM      9  C   LIG    1        2.841   0.657   1.120  0.00  0.00    -0.200 A 
ATOM     10  C   LIG    1        4.116   0.739   1.552  0.00  0.00    +0.180 A 
ATOM     11  C   LIG    1        5.234   1.277   0.696  0.00  0.00    +0.090 C 
ATOM     12  C   LIG    1        4.832   1.282  -0.777  0.00  0.00    +0.060 C 
ATOM     13  C   LIG    1        3.472   1.980  -0.901  0.00  0.00    +0.030 C 
ATOM     14  C   LIG    1        2.415   1.081  -0.261  0.00  0.00    +0.310 C 
ATOM     15  N   LIG    1        4.440   0.327   2.813  0.00  0.00    -0.610 N 
ATOM     16  H   LIG    1        5.362   0.384   3.108  0.00  0.00    +0.410 HD
ENDBRANCH   1  14
BRANCH   3  17
ATOM     17  C   LIG    1       -1.296   1.881  -0.071  0.00  0.00    -0.120 A 
ATOM     18  C   LIG    1       -1.295   3.275  -0.002  0.00  0.00    +0.050 A 
ATOM     19  C   LIG    1       -2.490   3.962   0.076  0.00  0.00    +0.030 A 
ATOM     20  C   LIG    1       -3.688   3.274   0.086  0.00  0.00    +0.050 A 
ATOM     21  C   LIG    1       -3.699   1.887   0.019  0.00  0.00    +0.080 A 
ATOM     22  C   LIG    1       -2.507   1.188  -0.065  0.00  0.00    +0.070 A 
BRANCH  21  23
ATOM     23  O   LIG    1       -4.881   1.215   0.030  0.00  0.00    -0.250 OA
BRANCH  23  24
ATOM     24  C   LIG    1       -5.169   0.450   1.113  0.00  0.00    +0.160 A 
ATOM     25  C   LIG    1       -6.305  -0.356   1.136  0.00  0.00    -0.050 A 
ATOM     26  C   LIG    1       -6.560  -1.124   2.254  0.00  0.00    +0.300 A 
ATOM     27  N   LIG    1       -5.750  -1.092   3.296  0.00  0.00    -0.500 NA
ATOM     28  C   LIG    1       -4.668  -0.336   3.314  0.00  0.00    +0.300 A 
ATOM     29  C   LIG    1       -4.340   0.456   2.233  0.00  0.00    -0.110 A 
ENDBRANCH  23  24
ENDBRANCH  21  23
ENDBRANCH   3  17
TORSDOF 4
