REMARK  Name = ZINCrD000000AkHd.0
REMARK                            x       y       z     vdW  Elec       q    Type
REMARK                         _______ _______ _______ _____ _____    ______ ____
ROOT
ATOM      1  N   LIG    1       -1.235   2.068   0.019  0.00  0.00    -0.930 N 
ENDROOT
BRANCH   1   2
ATOM      2  C   LIG    1       -0.015   1.388   0.021  0.00  0.00    +0.130 A 
ATOM      3  C   LIG    1        0.146   0.245  -0.751  0.00  0.00    +0.010 A 
ATOM      4  C   LIG    1        1.352  -0.428  -0.743  0.00  0.00    +0.020 A 
ATOM      5  C   LIG    1        2.399   0.035   0.033  0.00  0.00    +0.020 A 
ATOM      6  C   LIG    1        2.242   1.173   0.803  0.00  0.00    +0.020 A 
ATOM      7  C   LIG    1        1.039   1.851   0.799  0.00  0.00    +0.040 A 
ENDBRANCH   1   2
BRANCH   1   8
ATOM      8  S   LIG    1       -1.300   3.651  -0.463  0.00  0.00    +2.690 S 
ATOM      9  O   LIG    1        0.031   4.145  -0.399  0.00  0.00    -0.930 OA
ATOM     10  O   LIG    1       -2.382   4.242   0.244  0.00  0.00    -0.940 OA
BRANCH   8  11
ATOM     11  C   LIG    1       -1.753   3.660  -2.165  0.00  0.00    -0.700 A 
ATOM     12  C   LIG    1       -0.774   3.623  -3.140  0.00  0.00    +0.170 A 
ATOM     13  C   LIG    1       -1.128   3.625  -4.476  0.00  0.00    -0.020 A 
ATOM     14  C   LIG    1       -2.464   3.675  -4.838  0.00  0.00    +0.160 A 
ATOM     15  C   LIG    1       -3.443   3.718  -3.860  0.00  0.00    -0.020 A 
ATOM     16  F   LIG    1       -2.811   3.683  -6.143  0.00  0.00    -0.130 F 
ATOM     17  C   LIG    1       -3.087   3.710  -2.525  0.00  0.00    +0.160 A 
ENDBRANCH   8  11
ENDBRANCH   1   8
BRANCH   1  18
ATOM     18  C   LIG    1       -2.457   1.381   0.443  0.00  0.00    +0.340 C 
BRANCH  18  20
ATOM     19  O   LIG    1       -1.733   2.029   2.594  0.00  0.00    -0.520 OA
ATOM     20  C   LIG    1       -2.582   1.457   1.943  0.00  0.00    +0.500 C 
ATOM     21  N   LIG    1       -3.636   0.890   2.562  0.00  0.00    -0.730 N 
ATOM     22  H   LIG    1       -4.315   0.432   2.041  0.00  0.00    +0.400 HD
BRANCH  21  23
ATOM     23  C   LIG    1       -3.757   0.964   4.020  0.00  0.00    +0.370 C 
BRANCH  23  24
ATOM     24  C   LIG    1       -5.014   0.257   4.456  0.00  0.00    -0.210 A 
ATOM     25  C   LIG    1       -5.099  -1.036   4.772  0.00  0.00    +0.030 A 
ATOM     26  C   LIG    1       -6.361  -1.464   5.146  0.00  0.00    +0.000 A 
ATOM     27  C   LIG    1       -7.302  -0.518   5.133  0.00  0.00    -0.030 A 
ATOM     28  S   LIG    1       -6.593   1.012   4.634  0.00  0.00    +0.120 S 
ENDBRANCH  23  24
ENDBRANCH  21  23
ENDBRANCH  18  20
ENDBRANCH   1  18
TORSDOF 7
