REMARK  Name = ZINCpe000000YHYr.0
REMARK                            x       y       z     vdW  Elec       q    Type
REMARK                         _______ _______ _______ _____ _____    ______ ____
ROOT
ATOM      1  N   LIG    1        1.182  -2.616   1.354  0.00  0.00    -0.530 NA
ATOM      2  C   LIG    1       -0.209  -2.147   1.326  0.00  0.00    +0.170 C 
ATOM      3  C   LIG    1       -0.428  -1.280   0.082  0.00  0.00    +0.300 C 
ATOM      4  N   LIG    1        0.587  -0.216   0.070  0.00  0.00    -0.620 N 
ATOM      5  C   LIG    1        1.998  -0.599   0.225  0.00  0.00    +0.290 C 
ATOM      6  C   LIG    1        0.234   1.075  -0.086  0.00  0.00    +0.540 C 
ATOM      7  O   LIG    1       -0.921   1.364  -0.317  0.00  0.00    -0.530 OA
ATOM      8  C   LIG    1        2.121  -1.492   1.470  0.00  0.00    +0.160 C 
ENDROOT
BRANCH   6   9
ATOM      9  C   LIG    1        1.275   2.159   0.022  0.00  0.00    -0.100 C 
ATOM     10  C   LIG    1        0.841   3.494  -0.606  0.00  0.00    +0.060 C 
ATOM     11  C   LIG    1        2.281   3.619  -1.138  0.00  0.00    +0.010 C 
ATOM     12  C   LIG    1        2.357   2.085  -1.068  0.00  0.00    +0.040 C 
BRANCH   9  13
ATOM     13  C   LIG    1        1.839   2.303   1.437  0.00  0.00    +0.110 C 
BRANCH  13  14
ATOM     14  C   LIG    1        0.736   2.709   2.379  0.00  0.00    -0.080 A 
ATOM     15  C   LIG    1        0.528   4.046   2.665  0.00  0.00    +0.010 A 
ATOM     16  C   LIG    1       -0.487   4.419   3.526  0.00  0.00    +0.000 A 
ATOM     17  C   LIG    1       -1.289   3.455   4.108  0.00  0.00    +0.000 A 
ATOM     18  C   LIG    1       -1.078   2.118   3.827  0.00  0.00    +0.000 A 
ATOM     19  C   LIG    1       -0.066   1.745   2.962  0.00  0.00    +0.000 A 
ENDBRANCH  13  14
ENDBRANCH   9  13
ENDBRANCH   6   9
BRANCH   1  20
ATOM     20  C   LIG    1        1.389  -3.588   2.436  0.00  0.00    +0.220 C 
BRANCH  20  21
ATOM     21  C   LIG    1        2.886  -3.864   2.594  0.00  0.00    -0.350 C 
BRANCH  21  22
ATOM     22  S   LIG    1        3.141  -5.065   3.930  0.00  0.00    +2.620 S 
ATOM     23  O   LIG    1        2.642  -6.341   3.555  0.00  0.00    -0.950 OA
ATOM     24  O   LIG    1        2.811  -4.490   5.187  0.00  0.00    -0.960 OA
BRANCH  22  25
ATOM     25  N   LIG    1        4.783  -5.270   3.993  0.00  0.00    -1.250 NA
ATOM     26  H   LIG    1        5.315  -5.170   3.189  0.00  0.00    +0.410 HD
ATOM     27  H   LIG    1        5.212  -5.489   4.835  0.00  0.00    +0.420 HD
ENDBRANCH  22  25
ENDBRANCH  21  22
ENDBRANCH  20  21
ENDBRANCH   1  20
TORSDOF 7
