REMARK  Name = ZINCpk00000e9UPq.0
REMARK                            x       y       z     vdW  Elec       q    Type
REMARK                         _______ _______ _______ _____ _____    ______ ____
ROOT
ATOM      1  C   LIG    1       -7.194   3.699  -0.329  0.00  0.00    +0.510 C 
ATOM      2  O   LIG    1       -7.313   4.908  -0.334  0.00  0.00    -0.490 OA
ENDROOT
BRANCH   1   7
ATOM      3  C   LIG    1      -10.775   2.603  -0.610  0.00  0.00    -0.690 A 
ATOM      4  C   LIG    1      -10.636   1.227  -0.604  0.00  0.00    +0.160 A 
ATOM      5  C   LIG    1       -9.381   0.652  -0.508  0.00  0.00    +0.000 A 
ATOM      6  C   LIG    1       -8.258   1.449  -0.424  0.00  0.00    +0.150 A 
ATOM      7  C   LIG    1       -8.392   2.839  -0.424  0.00  0.00    -0.150 A 
ATOM      8  C   LIG    1       -9.661   3.412  -0.521  0.00  0.00    +0.210 A 
BRANCH   3   9
ATOM      9  S   LIG    1      -12.378   3.324  -0.732  0.00  0.00    +2.700 S 
ATOM     10  O   LIG    1      -12.275   4.627  -0.174  0.00  0.00    -0.950 OA
ATOM     11  O   LIG    1      -13.295   2.346  -0.261  0.00  0.00    -0.950 OA
BRANCH   9  13
ATOM     12  C   LIG    1      -12.835   2.363  -3.219  0.00  0.00    +0.300 C 
ATOM     13  N   LIG    1      -12.701   3.530  -2.343  0.00  0.00    -1.120 NA
ATOM     14  H   LIG    1      -12.802   4.423  -2.707  0.00  0.00    +0.420 HD
ENDBRANCH   9  13
ENDBRANCH   3   9
ENDBRANCH   1   7
BRANCH   1  15
ATOM     15  O   LIG    1       -5.971   3.143  -0.235  0.00  0.00    -0.330 OA
BRANCH  15  16
ATOM     16  C   LIG    1       -4.840   4.049  -0.145  0.00  0.00    +0.270 C 
BRANCH  16  17
ATOM     17  C   LIG    1       -3.565   3.253  -0.048  0.00  0.00    +0.520 C 
ATOM     18  N   LIG    1       -2.379   3.887   0.046  0.00  0.00    -0.660 N 
ATOM     19  H   LIG    1       -2.351   4.854   0.113  0.00  0.00    +0.420 HD
ATOM     20  O   LIG    1       -3.605   2.041  -0.055  0.00  0.00    -0.490 OA
BRANCH  18  21
ATOM     21  C   LIG    1       -1.189   3.150   0.046  0.00  0.00    +0.110 A 
ATOM     22  C   LIG    1       -1.137   1.892   0.637  0.00  0.00    +0.090 A 
ATOM     23  C   LIG    1        0.065   1.203   0.617  0.00  0.00    +0.000 A 
ATOM     24  C   LIG    1        1.163   1.778   0.006  0.00  0.00    +0.280 A 
ATOM     25  N   LIG    1        1.081   2.971  -0.551  0.00  0.00    -0.460 NA
ATOM     26  C   LIG    1       -0.042   3.663  -0.550  0.00  0.00    +0.150 A 
ATOM     27 CL   LIG    1       -0.088   5.228  -1.299  0.00  0.00    -0.020 Cl
ENDBRANCH  18  21
ENDBRANCH  16  17
ENDBRANCH  15  16
ENDBRANCH   1  15
TORSDOF 7
