REMARK  Name = ZINCrg000000quYY.0
REMARK                            x       y       z     vdW  Elec       q    Type
REMARK                         _______ _______ _______ _____ _____    ______ ____
ROOT
ATOM      1  C   LIG    1       -2.866   3.015   5.170  0.00  0.00    +0.340 C 
ATOM      2  C   LIG    1       -2.866   2.050   3.979  0.00  0.00    +0.290 C 
ATOM      3  N   LIG    1       -3.587   2.686   2.866  0.00  0.00    -0.620 N 
ATOM      4  C   LIG    1       -4.917   3.254   3.139  0.00  0.00    +0.300 C 
ATOM      5  C   LIG    1       -4.820   4.156   4.369  0.00  0.00    +0.160 C 
ATOM      6  C   LIG    1       -3.044   2.752   1.634  0.00  0.00    +0.720 C 
ATOM      7  N   LIG    1       -1.871   2.140   1.382  0.00  0.00    -0.730 N 
ATOM      8  H   LIG    1       -1.381   1.713   2.102  0.00  0.00    +0.390 HD
ATOM      9  O   LIG    1       -3.613   3.364   0.751  0.00  0.00    -0.580 OA
ATOM     10  O   LIG    1       -4.207   3.431   5.439  0.00  0.00    -0.380 OA
ENDROOT
BRANCH   1  12
ATOM     11  C   LIG    1       -1.812   5.011   5.977  0.00  0.00    +0.210 C 
ATOM     12  O   LIG    1       -2.065   4.157   4.859  0.00  0.00    -0.390 OA
ENDBRANCH   1  12
BRANCH   5  13
ATOM     13  C   LIG    1       -6.221   4.601   4.791  0.00  0.00    +0.220 C 
BRANCH  13  14
ATOM     14  O   LIG    1       -6.121   5.533   5.870  0.00  0.00    -0.570 OA
ATOM     15  H   LIG    1       -6.973   5.858   6.190  0.00  0.00    +0.380 HD
ENDBRANCH  13  14
ENDBRANCH   5  13
BRANCH   7  16
ATOM     16  C   LIG    1       -1.334   2.118   0.019  0.00  0.00    +0.350 C 
BRANCH  16  17
ATOM     17  C   LIG    1       -0.022   1.377   0.007  0.00  0.00    -0.070 A 
ATOM     18  C   LIG    1        1.168   2.079   0.001  0.00  0.00    +0.060 A 
ATOM     19  C   LIG    1        2.373   1.399  -0.015  0.00  0.00    -0.040 A 
ATOM     20  C   LIG    1        2.390   0.015  -0.026  0.00  0.00    +0.050 A 
ATOM     21  C   LIG    1        1.203  -0.691  -0.020  0.00  0.00    -0.010 A 
ATOM     22 CL   LIG    1        3.867   2.283  -0.024  0.00  0.00    -0.060 Cl
ATOM     23  C   LIG    1       -0.008  -0.012  -0.003  0.00  0.00    +0.110 A 
BRANCH  23  24
ATOM     24  N   LIG    1       -1.210  -0.724   0.003  0.00  0.00    -0.500 N 
ATOM     25  C   LIG    1       -1.341  -1.526   1.228  0.00  0.00    +0.160 C 
ATOM     26  C   LIG    1       -2.695  -2.241   1.220  0.00  0.00    +0.220 C 
ATOM     27  O   LIG    1       -2.801  -3.038   0.038  0.00  0.00    -0.380 OA
ATOM     28  C   LIG    1       -2.678  -2.289  -1.174  0.00  0.00    +0.220 C 
ATOM     29  C   LIG    1       -1.324  -1.574  -1.191  0.00  0.00    +0.160 C 
ENDBRANCH  23  24
ENDBRANCH  16  17
ENDBRANCH   7  16
TORSDOF 6
