REMARK  Name = ZINCpe000000XNcD.0
REMARK                            x       y       z     vdW  Elec       q    Type
REMARK                         _______ _______ _______ _____ _____    ______ ____
ROOT
ATOM      1  N   LIG    1       -4.748   0.818   2.915  0.00  0.00    -0.730 N 
ATOM      2  H   LIG    1       -4.165   1.071   3.648  0.00  0.00    +0.400 HD
ATOM      3  C   LIG    1       -4.293   0.858   1.647  0.00  0.00    +0.710 C 
ATOM      4  N   LIG    1       -3.027   1.248   1.398  0.00  0.00    -0.740 N 
ATOM      5  H   LIG    1       -2.444   1.500   2.131  0.00  0.00    +0.400 HD
ATOM      6  O   LIG    1       -5.023   0.542   0.728  0.00  0.00    -0.590 OA
ENDROOT
BRANCH   1   7
ATOM      7  CA  LIG    1       -6.124   0.394   3.186  0.00  0.00    +0.280 C 
BRANCH   7   8
ATOM      8  C   LIG    1       -6.217  -0.157   4.610  0.00  0.00    +0.100 C 
BRANCH   8  13
ATOM      9  C   LIG    1       -3.028  -4.958   5.030  0.00  0.00    +0.080 C 
ATOM     10  C   LIG    1       -3.860  -3.706   4.920  0.00  0.00    -0.090 A 
ATOM     11  C   LIG    1       -3.292  -2.474   5.186  0.00  0.00    +0.000 A 
ATOM     12  C   LIG    1       -4.055  -1.325   5.086  0.00  0.00    +0.000 A 
ATOM     13  C   LIG    1       -5.385  -1.409   4.719  0.00  0.00    -0.080 A 
ATOM     14  C   LIG    1       -5.954  -2.642   4.458  0.00  0.00    +0.010 A 
ATOM     15  C   LIG    1       -5.190  -3.790   4.553  0.00  0.00    -0.080 A 
ATOM     16  C   LIG    1       -5.809  -5.133   4.264  0.00  0.00    +0.090 C 
ENDBRANCH   8  13
ENDBRANCH   7   8
BRANCH   7  17
ATOM     17  C   LIG    1       -7.065   1.592   3.040  0.00  0.00    +0.180 C 
BRANCH  17  18
ATOM     18  O   LIG    1       -6.763   2.560   4.047  0.00  0.00    -0.570 OA
ATOM     19  H   LIG    1       -7.322   3.349   4.015  0.00  0.00    +0.380 HD
ENDBRANCH  17  18
ENDBRANCH   7  17
ENDBRANCH   1   7
BRANCH   4  20
ATOM     20  C   LIG    1       -2.531   1.291   0.020  0.00  0.00    +0.420 C 
BRANCH  20  21
ATOM     21  C   LIG    1       -1.098   1.757   0.016  0.00  0.00    +0.270 A 
ATOM     22  N   LIG    1       -0.694   3.001   0.024  0.00  0.00    -0.510 NA
ATOM     23  C   LIG    1        0.637   3.045   0.011  0.00  0.00    +0.200 A 
ATOM     24  N   LIG    1        1.102   1.823   0.001  0.00  0.00    -0.300 NA
ATOM     25  N   LIG    1       -0.011   0.966   0.007  0.00  0.00    -0.470 N 
ATOM     26  H   LIG    1        0.002  -0.004   0.002  0.00  0.00    +0.440 HD
BRANCH  23  27
ATOM     27  C   LIG    1        1.473   4.299   0.009  0.00  0.00    +0.330 C 
ATOM     28  C   LIG    1        2.079   4.510   1.398  0.00  0.00    +0.030 C 
BRANCH  27  29
ATOM     29  O   LIG    1        2.521   4.171  -0.954  0.00  0.00    -0.550 OA
ATOM     30  H   LIG    1        3.119   3.430  -0.788  0.00  0.00    +0.380 HD
ENDBRANCH  27  29
ENDBRANCH  23  27
ENDBRANCH  20  21
ENDBRANCH   4  20
TORSDOF 9
