REMARK  Name = ZINCpe000000XNcD.1
REMARK                            x       y       z     vdW  Elec       q    Type
REMARK                         _______ _______ _______ _____ _____    ______ ____
ROOT
ATOM      1  N   LIG    1        2.489  -3.901  -2.943  0.00  0.00    -0.730 N 
ATOM      2  H   LIG    1        2.271  -3.302  -3.675  0.00  0.00    +0.400 HD
ATOM      3  C   LIG    1        2.351  -3.485  -1.668  0.00  0.00    +0.710 C 
ATOM      4  N   LIG    1        1.911  -2.237  -1.411  0.00  0.00    -0.740 N 
ATOM      5  H   LIG    1        1.694  -1.639  -2.142  0.00  0.00    +0.400 HD
ATOM      6  O   LIG    1        2.624  -4.235  -0.751  0.00  0.00    -0.590 OA
ENDROOT
BRANCH   1   7
ATOM      7  CA  LIG    1        2.967  -5.257  -3.223  0.00  0.00    +0.280 C 
BRANCH   7   8
ATOM      8  C   LIG    1        2.467  -5.700  -4.599  0.00  0.00    +0.100 C 
BRANCH   8  13
ATOM      9  C   LIG    1       -3.297  -6.100  -4.518  0.00  0.00    +0.080 C 
ATOM     10  C   LIG    1       -1.794  -5.995  -4.539  0.00  0.00    -0.090 A 
ATOM     11  C   LIG    1       -1.189  -4.802  -4.886  0.00  0.00    +0.010 A 
ATOM     12  C   LIG    1        0.190  -4.707  -4.906  0.00  0.00    +0.010 A 
ATOM     13  C   LIG    1        0.964  -5.804  -4.578  0.00  0.00    -0.080 A 
ATOM     14  C   LIG    1        0.358  -6.999  -4.235  0.00  0.00    +0.010 A 
ATOM     15  C   LIG    1       -1.020  -7.093  -4.211  0.00  0.00    -0.080 A 
ATOM     16  C   LIG    1       -1.680  -8.394  -3.832  0.00  0.00    +0.090 C 
ENDBRANCH   8  13
ENDBRANCH   7   8
BRANCH   7  17
ATOM     17  C   LIG    1        4.497  -5.271  -3.208  0.00  0.00    +0.170 C 
BRANCH  17  18
ATOM     18  O   LIG    1        4.992  -4.467  -4.280  0.00  0.00    -0.570 OA
ATOM     19  H   LIG    1        5.957  -4.430  -4.332  0.00  0.00    +0.380 HD
ENDBRANCH  17  18
ENDBRANCH   7  17
ENDBRANCH   1   7
BRANCH   4  20
ATOM     20  C   LIG    1        1.762  -1.785  -0.025  0.00  0.00    +0.430 C 
BRANCH  20  21
ATOM     21  C   LIG    1        1.258  -0.365  -0.012  0.00  0.00    +0.210 A 
ATOM     22  N   LIG    1        0.002  -0.004   0.002  0.00  0.00    -0.290 NA
ATOM     23  N   LIG    1       -0.017   1.400   0.010  0.00  0.00    -0.470 N 
ATOM     24  H   LIG    1       -0.801   1.971   0.017  0.00  0.00    +0.440 HD
ATOM     25  C   LIG    1        1.268   1.796  -0.000  0.00  0.00    +0.250 A 
ATOM     26  N   LIG    1        2.022   0.727  -0.013  0.00  0.00    -0.520 NA
BRANCH  25  27
ATOM     27  C   LIG    1        1.754   3.223   0.003  0.00  0.00    +0.310 C 
ATOM     28  C   LIG    1        2.713   3.432   1.177  0.00  0.00    +0.050 C 
BRANCH  27  29
ATOM     29  O   LIG    1        2.435   3.497  -1.223  0.00  0.00    -0.550 OA
ATOM     30  H   LIG    1        3.205   2.933  -1.380  0.00  0.00    +0.390 HD
ENDBRANCH  27  29
ENDBRANCH  25  27
ENDBRANCH  20  21
ENDBRANCH   4  20
TORSDOF 9
