REMARK  Name = ZINCpe000000XNcD.2
REMARK                            x       y       z     vdW  Elec       q    Type
REMARK                         _______ _______ _______ _____ _____    ______ ____
ROOT
ATOM      1  N   LIG    1        1.571   4.167   3.726  0.00  0.00    -0.730 N 
ATOM      2  H   LIG    1        2.072   3.418   3.368  0.00  0.00    +0.400 HD
ATOM      3  C   LIG    1        1.749   5.402   3.216  0.00  0.00    +0.710 C 
ATOM      4  N   LIG    1        2.623   5.595   2.208  0.00  0.00    -0.740 N 
ATOM      5  H   LIG    1        3.124   4.846   1.851  0.00  0.00    +0.400 HD
ATOM      6  O   LIG    1        1.121   6.341   3.664  0.00  0.00    -0.590 OA
ENDROOT
BRANCH   1   7
ATOM      7  CA  LIG    1        0.621   3.957   4.821  0.00  0.00    +0.280 C 
BRANCH   7   8
ATOM      8  C   LIG    1        0.137   2.505   4.805  0.00  0.00    +0.100 C 
BRANCH   8  13
ATOM      9  C   LIG    1       -2.866   1.540  -0.037  0.00  0.00    +0.090 C 
ATOM     10  C   LIG    1       -2.083   1.789   1.226  0.00  0.00    -0.090 A 
ATOM     11  C   LIG    1       -2.731   2.231   2.365  0.00  0.00    +0.010 A 
ATOM     12  C   LIG    1       -2.012   2.464   3.522  0.00  0.00    +0.000 A 
ATOM     13  C   LIG    1       -0.646   2.251   3.543  0.00  0.00    -0.080 A 
ATOM     14  C   LIG    1        0.001   1.806   2.405  0.00  0.00    +0.010 A 
ATOM     15  C   LIG    1       -0.718   1.572   1.248  0.00  0.00    -0.090 A 
ATOM     16  C   LIG    1       -0.013   1.086   0.008  0.00  0.00    +0.080 C 
ENDBRANCH   8  13
ENDBRANCH   7   8
BRANCH   7  17
ATOM     17  C   LIG    1        1.308   4.250   6.156  0.00  0.00    +0.180 C 
BRANCH  17  18
ATOM     18  O   LIG    1        2.352   3.299   6.374  0.00  0.00    -0.570 OA
ATOM     19  H   LIG    1        2.832   3.424   7.204  0.00  0.00    +0.380 HD
ENDBRANCH  17  18
ENDBRANCH   7  17
ENDBRANCH   1   7
BRANCH   4  20
ATOM     20  C   LIG    1        2.816   6.937   1.654  0.00  0.00    +0.430 C 
BRANCH  20  21
ATOM     21  C   LIG    1        3.838   6.882   0.548  0.00  0.00    +0.160 A 
ATOM     22  N   LIG    1        5.135   6.940   0.689  0.00  0.00    -0.260 NA
ATOM     23  N   LIG    1        5.699   6.863  -0.464  0.00  0.00    -0.280 NA
ATOM     24  C   LIG    1        4.789   6.752  -1.393  0.00  0.00    +0.150 A 
ATOM     25  N   LIG    1        3.582   6.756  -0.777  0.00  0.00    -0.560 N 
ATOM     26  H   LIG    1        2.712   6.684  -1.198  0.00  0.00    +0.430 HD
BRANCH  24  27
ATOM     27  C   LIG    1        5.035   6.636  -2.875  0.00  0.00    +0.310 C 
ATOM     28  C   LIG    1        5.893   7.814  -3.343  0.00  0.00    +0.050 C 
BRANCH  27  29
ATOM     29  O   LIG    1        5.718   5.411  -3.150  0.00  0.00    -0.550 OA
ATOM     30  H   LIG    1        6.576   5.332  -2.711  0.00  0.00    +0.390 HD
ENDBRANCH  27  29
ENDBRANCH  24  27
ENDBRANCH  20  21
ENDBRANCH   4  20
TORSDOF 9
