REMARK  Name = ZINCrH000004mGE7.1
REMARK                            x       y       z     vdW  Elec       q    Type
REMARK                         _______ _______ _______ _____ _____    ______ ____
ROOT
ATOM      1  C   LIG    1       -0.016   1.091   2.429  0.00  0.00    +0.150 C 
ENDROOT
BRANCH   1   2
ATOM      2  N   LIG    1       -0.700   1.560   1.217  0.00  0.00    -0.670 NA
ATOM      3  H   LIG    1       -0.784   2.565   1.214  0.00  0.00    +0.350 HD
BRANCH   2   4
ATOM      4  C   LIG    1       -0.013   1.086   0.008  0.00  0.00    +0.240 C 
BRANCH   4   5
ATOM      5  C   LIG    1       -0.742   1.585  -1.213  0.00  0.00    -0.050 A 
ATOM      6  C   LIG    1       -1.750   0.825  -1.775  0.00  0.00    +0.000 A 
ATOM      7  C   LIG    1       -2.423   1.285  -2.894  0.00  0.00    +0.040 A 
ATOM      8  C   LIG    1       -2.082   2.502  -3.458  0.00  0.00    -0.010 A 
ATOM      9  C   LIG    1       -1.070   3.264  -2.903  0.00  0.00    +0.000 A 
ATOM     10 CL   LIG    1       -2.924   3.072  -4.865  0.00  0.00    -0.050 Cl
ATOM     11 CL   LIG    1       -2.177  -0.705  -1.075  0.00  0.00    -0.040 Cl
ATOM     12  C   LIG    1       -0.397   2.807  -1.777  0.00  0.00    +0.120 A 
BRANCH  12  13
ATOM     13  N   LIG    1        0.625   3.574  -1.214  0.00  0.00    -0.510 N 
ATOM     14  C   LIG    1        0.106   4.849  -0.703  0.00  0.00    +0.220 C 
ATOM     15  C   LIG    1        1.710   3.796  -2.180  0.00  0.00    +0.210 C 
ENDBRANCH  12  13
ENDBRANCH   4   5
ENDBRANCH   2   4
ENDBRANCH   1   2
BRANCH   1  16
ATOM     16  C   LIG    1       -0.760   1.603   3.664  0.00  0.00    +0.230 C 
BRANCH  16  17
ATOM     17  O   LIG    1       -0.779   3.032   3.650  0.00  0.00    -0.550 OA
ATOM     18  H   LIG    1        0.099   3.438   3.657  0.00  0.00    +0.370 HD
ENDBRANCH  16  17
BRANCH  16  19
ATOM     19  C   LIG    1       -0.047   1.115   4.928  0.00  0.00    +0.140 C 
BRANCH  19  20
ATOM     20  O   LIG    1       -0.805   1.495   6.078  0.00  0.00    -0.370 OA
BRANCH  20  21
ATOM     21  C   LIG    1       -0.223   1.085   7.318  0.00  0.00    +0.230 C 
BRANCH  21  25
ATOM     22  C   LIG    1       -2.711   2.361  10.550  0.00  0.00    +0.130 A 
ATOM     23  C   LIG    1       -2.913   1.119   9.966  0.00  0.00    -0.020 A 
ATOM     24  C   LIG    1       -2.107   0.709   8.921  0.00  0.00    +0.070 A 
ATOM     25  C   LIG    1       -1.101   1.535   8.457  0.00  0.00    -0.130 A 
ATOM     26  C   LIG    1       -0.894   2.771   9.041  0.00  0.00    +0.070 A 
ATOM     27  C   LIG    1       -1.701   3.189  10.082  0.00  0.00    -0.080 A 
BRANCH  22  29
ATOM     28  C   LIG    1       -3.237   4.058  12.130  0.00  0.00    +0.250 C 
ATOM     29  O   LIG    1       -3.502   2.767  11.578  0.00  0.00    -0.320 OA
ENDBRANCH  22  29
ENDBRANCH  21  25
ENDBRANCH  20  21
ENDBRANCH  19  20
ENDBRANCH  16  19
ENDBRANCH   1  16
TORSDOF 11
