REMARK  Name = ZINCrH000004mTVT.0
REMARK                            x       y       z     vdW  Elec       q    Type
REMARK                         _______ _______ _______ _____ _____    ______ ____
ROOT
ATOM      1  C   LIG    1       -5.712   1.750  -0.854  0.00  0.00    +0.190 C 
ATOM      2  C   LIG    1       -6.633   0.593  -0.391  0.00  0.00    +0.050 C 
ATOM      3  C   LIG    1       -6.494   0.635   1.148  0.00  0.00    +0.020 C 
ATOM      4  C   LIG    1       -6.016   2.063   1.470  0.00  0.00    +0.180 C 
ATOM      5  N   LIG    1       -5.924   2.790   0.185  0.00  0.00    -0.490 NA
ENDROOT
BRANCH   1  10
ATOM      6  C   LIG    1       -7.387   3.799  -3.552  0.00  0.00    +0.090 A 
ATOM      7  C   LIG    1       -6.910   3.188  -4.701  0.00  0.00    -0.040 A 
ATOM      8  C   LIG    1       -6.047   2.113  -4.605  0.00  0.00    -0.040 A 
ATOM      9  C   LIG    1       -5.654   1.649  -3.359  0.00  0.00    +0.100 A 
ATOM     10  C   LIG    1       -6.136   2.257  -2.209  0.00  0.00    -0.070 A 
ATOM     11  C   LIG    1       -6.998   3.332  -2.305  0.00  0.00    +0.060 A 
BRANCH   6  13
ATOM     12  C   LIG    1       -8.594   5.286  -4.962  0.00  0.00    +0.230 C 
ATOM     13  O   LIG    1       -8.236   4.857  -3.647  0.00  0.00    -0.320 OA
ENDBRANCH   6  13
BRANCH   9  14
ATOM     14  O   LIG    1       -4.801   0.595  -3.264  0.00  0.00    -0.320 OA
ATOM     15  C   LIG    1       -4.345   0.017  -4.489  0.00  0.00    +0.230 C 
ENDBRANCH   9  14
ENDBRANCH   1  10
BRANCH   5  16
ATOM     16  C   LIG    1       -4.814   3.751   0.202  0.00  0.00    +0.210 C 
BRANCH  16  17
ATOM     17  C   LIG    1       -5.104   4.835   1.208  0.00  0.00    +0.520 C 
ATOM     18  N   LIG    1       -4.265   5.883   1.329  0.00  0.00    -0.670 N 
ATOM     19  H   LIG    1       -3.509   5.972   0.728  0.00  0.00    +0.420 HD
ATOM     20  O   LIG    1       -6.092   4.765   1.908  0.00  0.00    -0.490 OA
BRANCH  18  21
ATOM     21  C   LIG    1       -4.484   6.844   2.324  0.00  0.00    +0.170 A 
ATOM     22  C   LIG    1       -3.406   7.453   2.952  0.00  0.00    +0.010 A 
ATOM     23  C   LIG    1       -3.623   8.397   3.937  0.00  0.00    +0.050 A 
ATOM     24  C   LIG    1       -4.915   8.745   4.292  0.00  0.00    +0.050 A 
ATOM     25  C   LIG    1       -5.994   8.141   3.663  0.00  0.00    +0.090 A 
ATOM     26  F   LIG    1       -7.254   8.482   4.011  0.00  0.00    -0.120 F 
ATOM     27  F   LIG    1       -5.124   9.672   5.251  0.00  0.00    -0.130 F 
ATOM     28  C   LIG    1       -5.780   7.192   2.680  0.00  0.00    +0.030 A 
ENDBRANCH  18  21
ENDBRANCH  16  17
ENDBRANCH   5  16
TORSDOF 6
