REMARK  Name = ZINCrH00000No4wi.1
REMARK                            x       y       z     vdW  Elec       q    Type
REMARK                         _______ _______ _______ _____ _____    ______ ____
ROOT
ATOM      1  C   LIG    1       -5.571   2.692  -1.440  0.00  0.00    +0.400 C 
ENDROOT
BRANCH   1   4
ATOM      2  C   LIG    1       -3.338   1.563   1.278  0.00  0.00    -0.060 C 
ATOM      3  C   LIG    1       -4.592   2.288   0.744  0.00  0.00    +0.260 C 
ATOM      4  N   LIG    1       -4.772   1.760  -0.633  0.00  0.00    -0.390 N 
ATOM      5  C   LIG    1       -3.390   1.661  -1.169  0.00  0.00    +0.280 C 
ATOM      6  H   LIG    1       -5.207   0.850  -0.608  0.00  0.00    +0.440 HD
ATOM      7  C   LIG    1       -2.547   1.151   0.020  0.00  0.00    +0.090 C 
BRANCH   7   8
ATOM      8  C   LIG    1       -1.190   1.804   0.017  0.00  0.00    -0.090 A 
ATOM      9  C   LIG    1       -1.031   3.129   0.029  0.00  0.00    -0.060 A 
ATOM     10  S   LIG    1        0.685   3.517   0.015  0.00  0.00    +0.110 S 
ATOM     11  C   LIG    1        1.102   1.808   0.001  0.00  0.00    -0.030 A 
ATOM     12  C   LIG    1       -0.013   1.076   0.008  0.00  0.00    +0.020 A 
ENDBRANCH   7   8
BRANCH   2  14
ATOM     13  O   LIG    1       -3.680   0.363   3.288  0.00  0.00    -0.660 OA
ATOM     14  C   LIG    1       -3.736   0.344   2.070  0.00  0.00    +0.490 C 
ATOM     15  O   LIG    1       -4.113  -0.661   1.492  0.00  0.00    -0.680 OA
ENDBRANCH   2  14
ENDBRANCH   1   4
BRANCH   1  16
ATOM     16  C   LIG    1       -6.975   2.753  -0.895  0.00  0.00    +0.140 A 
ATOM     17  N   LIG    1       -7.941   1.931  -1.198  0.00  0.00    -0.430 NA
ATOM     18  C   LIG    1       -9.053   2.286  -0.522  0.00  0.00    +0.050 A 
ATOM     19  C   LIG    1       -8.752   3.381   0.222  0.00  0.00    +0.210 A 
ATOM     20  N   LIG    1       -7.437   3.671  -0.018  0.00  0.00    -0.550 N 
ATOM     21  H   LIG    1       -6.929   4.401   0.369  0.00  0.00    +0.430 HD
BRANCH  18  22
ATOM     22  C   LIG    1      -10.369   1.604  -0.585  0.00  0.00    -0.060 A 
ATOM     23  C   LIG    1      -11.438   2.079   0.171  0.00  0.00    +0.100 A 
ATOM     24  C   LIG    1      -12.663   1.446   0.106  0.00  0.00    -0.010 A 
ATOM     25  C   LIG    1      -12.828   0.332  -0.701  0.00  0.00    +0.140 A 
ATOM     26  C   LIG    1      -11.767  -0.149  -1.451  0.00  0.00    -0.040 A 
ATOM     27  F   LIG    1      -14.027  -0.287  -0.757  0.00  0.00    -0.130 F 
ATOM     28  C   LIG    1      -10.539   0.481  -1.397  0.00  0.00    +0.160 A 
ATOM     29  F   LIG    1       -9.504   0.013  -2.128  0.00  0.00    -0.110 F 
ENDBRANCH  18  22
ENDBRANCH   1  16
TORSDOF 5
