REMARK  Name = ZINCrH00000No4wi.0
REMARK                            x       y       z     vdW  Elec       q    Type
REMARK                         _______ _______ _______ _____ _____    ______ ____
ROOT
ATOM      1  C   LIG    1        2.192   7.516   1.620  0.00  0.00    +0.400 C 
ENDROOT
BRANCH   1   4
ATOM      2  C   LIG    1        1.728   5.203  -1.205  0.00  0.00    -0.080 C 
ATOM      3  C   LIG    1        2.095   6.588  -0.616  0.00  0.00    +0.290 C 
ATOM      4  N   LIG    1        1.521   6.538   0.753  0.00  0.00    -0.390 N 
ATOM      5  C   LIG    1        1.771   5.165   1.245  0.00  0.00    +0.270 C 
ATOM      6  H   LIG    1        0.529   6.721   0.722  0.00  0.00    +0.420 HD
ATOM      7  C   LIG    1        1.893   4.257   0.007  0.00  0.00    +0.100 C 
BRANCH   7   8
ATOM      8  C   LIG    1        0.801   3.218   0.011  0.00  0.00    -0.090 A 
ATOM      9  C   LIG    1       -0.494   3.538   0.025  0.00  0.00    -0.080 A 
ATOM     10  S   LIG    1       -1.463   2.070   0.019  0.00  0.00    +0.110 S 
ATOM     11  C   LIG    1       -0.013   1.076   0.008  0.00  0.00    -0.030 A 
ATOM     12  C   LIG    1        1.067   1.859   0.002  0.00  0.00    +0.030 A 
ENDBRANCH   7   8
BRANCH   2  14
ATOM     13  O   LIG    1        2.313   4.861  -3.472  0.00  0.00    -0.670 OA
ATOM     14  C   LIG    1        2.681   4.824  -2.310  0.00  0.00    +0.510 C 
ATOM     15  O   LIG    1        3.820   4.482  -2.042  0.00  0.00    -0.670 OA
ENDBRANCH   2  14
ENDBRANCH   1   4
BRANCH   1  16
ATOM     16  C   LIG    1        1.827   8.910   1.179  0.00  0.00    +0.140 A 
ATOM     17  N   LIG    1        2.422   9.586   0.235  0.00  0.00    -0.420 NA
ATOM     18  C   LIG    1        1.831  10.792   0.114  0.00  0.00    +0.050 A 
ATOM     19  C   LIG    1        0.828  10.855   1.028  0.00  0.00    +0.210 A 
ATOM     20  N   LIG    1        0.828   9.660   1.694  0.00  0.00    -0.550 N 
ATOM     21  H   LIG    1        0.223   9.399   2.406  0.00  0.00    +0.430 HD
BRANCH  18  22
ATOM     22  C   LIG    1        2.210  11.859  -0.845  0.00  0.00    -0.060 A 
ATOM     23  C   LIG    1        1.506  13.062  -0.866  0.00  0.00    +0.090 A 
ATOM     24  C   LIG    1        1.865  14.054  -1.756  0.00  0.00    -0.010 A 
ATOM     25  C   LIG    1        2.916  13.852  -2.636  0.00  0.00    +0.140 A 
ATOM     26  C   LIG    1        3.615  12.657  -2.624  0.00  0.00    -0.040 A 
ATOM     27  F   LIG    1        3.259  14.825  -3.508  0.00  0.00    -0.130 F 
ATOM     28  C   LIG    1        3.268  11.659  -1.733  0.00  0.00    +0.160 A 
ATOM     29  F   LIG    1        3.950  10.494  -1.722  0.00  0.00    -0.110 F 
ENDBRANCH  18  22
ENDBRANCH   1  16
TORSDOF 5
