REMARK  Name = ZINCtV00000L6k6w.0
REMARK                            x       y       z     vdW  Elec       q    Type
REMARK                         _______ _______ _______ _____ _____    ______ ____
ROOT
ATOM      1  C   LIG    1        0.040   1.580  -0.103  0.00  0.00    +0.130 A 
ATOM      2  C   LIG    1        1.168   2.383  -0.135  0.00  0.00    -0.030 A 
ATOM      3  C   LIG    1        1.043   3.756  -0.031  0.00  0.00    +0.100 A 
ATOM      4  C   LIG    1       -0.207   4.332   0.106  0.00  0.00    -0.200 A 
ATOM      5  C   LIG    1       -1.338   3.538   0.140  0.00  0.00    +0.120 A 
ATOM      6  C   LIG    1       -1.221   2.160   0.029  0.00  0.00    +0.130 A 
ENDROOT
BRANCH   4   7
ATOM      7  C   LIG    1       -0.336   5.829   0.218  0.00  0.00    +0.510 C 
ATOM      8  F   LIG    1       -0.943   6.154   1.437  0.00  0.00    -0.180 F 
ATOM      9  F   LIG    1       -1.119   6.310  -0.836  0.00  0.00    -0.170 F 
ATOM     10  F   LIG    1        0.934   6.412   0.160  0.00  0.00    -0.180 F 
ENDBRANCH   4   7
BRANCH   6  11
ATOM     11  N   LIG    1       -2.366   1.354   0.057  0.00  0.00    -0.660 N 
ATOM     12  H   LIG    1       -2.331   0.476   0.468  0.00  0.00    +0.420 HD
ATOM     13  C   LIG    1       -3.516   1.798  -0.487  0.00  0.00    +0.590 C 
ATOM     14  O   LIG    1       -3.581   2.927  -0.934  0.00  0.00    -0.520 OA
BRANCH  13  15
ATOM     15  C   LIG    1       -4.693   0.916  -0.541  0.00  0.00    -0.180 A 
ATOM     16  C   LIG    1       -5.889   1.292  -1.069  0.00  0.00    -0.130 A 
ATOM     17  S   LIG    1       -7.022   0.024  -0.967  0.00  0.00    +0.200 S 
ATOM     18  C   LIG    1       -5.869  -1.045  -0.186  0.00  0.00    -0.200 A 
ATOM     19  C   LIG    1       -6.166  -2.457   0.249  0.00  0.00    +0.150 C 
ATOM     20  C   LIG    1       -6.172   2.647  -1.665  0.00  0.00    +0.150 C 
ATOM     21  C   LIG    1       -4.699  -0.436  -0.033  0.00  0.00    +0.040 A 
ENDBRANCH  13  15
ENDBRANCH   6  11
BRANCH   1  22
ATOM     22  O   LIG    1        0.161   0.230  -0.206  0.00  0.00    -0.250 OA
BRANCH  22  27
ATOM     23  C   LIG    1        3.588  -0.868   0.349  0.00  0.00    +0.140 A 
ATOM     24  C   LIG    1        3.916  -1.332  -0.917  0.00  0.00    -0.060 A 
ATOM     25  C   LIG    1        2.987  -1.273  -1.938  0.00  0.00    +0.080 A 
ATOM     26  C   LIG    1        1.728  -0.755  -1.701  0.00  0.00    -0.010 A 
ATOM     27  C   LIG    1        1.397  -0.284  -0.438  0.00  0.00    +0.120 A 
ATOM     28  C   LIG    1        2.328  -0.343   0.589  0.00  0.00    -0.030 A 
BRANCH  23  30
ATOM     29  C   LIG    1        5.781  -1.480   1.034  0.00  0.00    +0.250 C 
ATOM     30  O   LIG    1        4.502  -0.927   1.353  0.00  0.00    -0.310 OA
ENDBRANCH  23  30
ENDBRANCH  22  27
ENDBRANCH   1  22
TORSDOF 6
