REMARK  Name = ZINCpk00000ebMof.0
REMARK                            x       y       z     vdW  Elec       q    Type
REMARK                         _______ _______ _______ _____ _____    ______ ____
ROOT
ATOM      1  O   LIG    1       -4.271  -0.861  -1.365  0.00  0.00    -0.520 OA
ATOM      2  C   LIG    1       -4.306   0.350  -1.422  0.00  0.00    +0.520 C 
ATOM      3  N   LIG    1       -5.496   0.954  -1.488  0.00  0.00    -0.710 N 
ATOM      4  H   LIG    1       -6.296   0.405  -1.489  0.00  0.00    +0.410 HD
ATOM      5  CA  LIG    1       -5.645   2.401  -1.558  0.00  0.00    +0.270 C 
ATOM      6  C   LIG    1       -4.376   3.058  -2.012  0.00  0.00    +0.520 C 
ATOM      7  N   LIG    1       -3.186   2.455  -1.941  0.00  0.00    -0.710 N 
ATOM      8  H   LIG    1       -2.403   2.935  -2.253  0.00  0.00    +0.410 HD
ATOM      9  O   LIG    1       -4.433   4.182  -2.462  0.00  0.00    -0.520 OA
ATOM     10  CA  LIG    1       -3.012   1.107  -1.415  0.00  0.00    +0.260 C 
ENDROOT
BRANCH   5  11
ATOM     11  C   LIG    1       -6.017   2.934  -0.172  0.00  0.00    +0.160 C 
BRANCH  11  12
ATOM     12  C   LIG    1       -7.354   2.373   0.240  0.00  0.00    +0.310 A 
ATOM     13  N   LIG    1       -8.450   3.036  -0.068  0.00  0.00    -0.510 NA
ATOM     14  C   LIG    1       -9.642   2.572   0.272  0.00  0.00    +0.320 A 
ATOM     15  C   LIG    1       -9.725   1.377   0.971  0.00  0.00    -0.080 A 
ATOM     16  C   LIG    1       -8.550   0.712   1.281  0.00  0.00    +0.320 A 
ATOM     17  N   LIG    1       -7.394   1.235   0.903  0.00  0.00    -0.510 NA
ENDBRANCH  11  12
ENDBRANCH   5  11
BRANCH  10  18
ATOM     18  C   LIG    1       -2.489   1.192   0.020  0.00  0.00    +0.120 C 
BRANCH  18  19
ATOM     19  C   LIG    1       -1.112   1.804   0.017  0.00  0.00    -0.090 A 
ATOM     20  C   LIG    1       -0.013   1.076   0.008  0.00  0.00    -0.010 A 
ATOM     21  S   LIG    1        1.422   2.083  -0.000  0.00  0.00    +0.090 S 
ATOM     22  C   LIG    1        0.467   3.560   0.016  0.00  0.00    -0.140 A 
ATOM     23  C   LIG    1        0.866   4.901   0.019  0.00  0.00    +0.050 A 
ATOM     24  C   LIG    1       -0.077   5.902   0.033  0.00  0.00    +0.030 A 
ATOM     25  C   LIG    1       -1.429   5.588   0.044  0.00  0.00    +0.020 A 
ATOM     26  C   LIG    1       -1.839   4.289   0.041  0.00  0.00    +0.040 A 
ATOM     27  C   LIG    1       -0.893   3.241   0.027  0.00  0.00    -0.070 A 
ENDBRANCH  18  19
ENDBRANCH  10  18
TORSDOF 4
