REMARK  Name = ZINCpk00000xIi9Y.0
REMARK                            x       y       z     vdW  Elec       q    Type
REMARK                         _______ _______ _______ _____ _____    ______ ____
ROOT
ATOM      1  S   LIG    1       -1.461   1.756  -0.123  0.00  0.00    +2.690 S 
ATOM      2  O   LIG    1       -1.384   2.880   0.743  0.00  0.00    -0.940 OA
ATOM      3  O   LIG    1       -2.470   0.761  -0.018  0.00  0.00    -0.940 OA
ENDROOT
BRANCH   1   7
ATOM      4  C   LIG    1       -1.718   3.401  -4.337  0.00  0.00    -0.080 A 
ATOM      5  C   LIG    1       -2.203   2.123  -4.053  0.00  0.00    +0.070 A 
ATOM      6  C   LIG    1       -2.121   1.629  -2.767  0.00  0.00    +0.130 A 
ATOM      7  C   LIG    1       -1.561   2.396  -1.762  0.00  0.00    -0.650 A 
ATOM      8  C   LIG    1       -1.083   3.665  -2.036  0.00  0.00    +0.130 A 
ATOM      9  C   LIG    1       -1.153   4.170  -3.318  0.00  0.00    +0.030 A 
BRANCH   4  13
ATOM     10  N   LIG    1       -1.333   5.172  -5.984  0.00  0.00    -0.850 N 
ATOM     11  H   LIG    1       -1.388   5.524  -6.886  0.00  0.00    +0.410 HD
ATOM     12  H   LIG    1       -0.940   5.708  -5.277  0.00  0.00    +0.400 HD
ATOM     13  C   LIG    1       -1.802   3.938  -5.712  0.00  0.00    +0.560 C 
ATOM     14  O   LIG    1       -2.294   3.266  -6.598  0.00  0.00    -0.530 OA
ENDBRANCH   4  13
ENDBRANCH   1   7
BRANCH   1  15
ATOM     15  N   LIG    1       -0.011   0.966   0.007  0.00  0.00    -1.040 N 
ATOM     16  H   LIG    1        0.008   0.018   0.213  0.00  0.00    +0.430 HD
BRANCH  15  17
ATOM     17  C   LIG    1        1.187   1.665  -0.185  0.00  0.00    +0.180 A 
ATOM     18  C   LIG    1        1.298   2.982   0.233  0.00  0.00    +0.000 A 
ATOM     19  C   LIG    1        2.483   3.670   0.043  0.00  0.00    +0.040 A 
ATOM     20  C   LIG    1        3.558   3.049  -0.565  0.00  0.00    +0.010 A 
ATOM     21  C   LIG    1        3.455   1.735  -0.985  0.00  0.00    +0.000 A 
ATOM     22  C   LIG    1        2.274   1.036  -0.793  0.00  0.00    +0.070 A 
BRANCH  22  23
ATOM     23  N   LIG    1        2.170  -0.296  -1.213  0.00  0.00    -0.500 N 
ATOM     24  C   LIG    1        3.103  -1.156  -0.471  0.00  0.00    +0.160 C 
ATOM     25  C   LIG    1        2.914  -2.608  -0.918  0.00  0.00    +0.220 C 
ATOM     26  O   LIG    1        3.106  -2.695  -2.333  0.00  0.00    -0.380 OA
ATOM     27  C   LIG    1        2.213  -1.870  -3.086  0.00  0.00    +0.220 C 
ATOM     28  C   LIG    1        2.394  -0.411  -2.661  0.00  0.00    +0.160 C 
ENDBRANCH  22  23
ENDBRANCH  15  17
ENDBRANCH   1  15
TORSDOF 5
