REMARK  Name = ZINCrH000004tNHZ.0
REMARK                            x       y       z     vdW  Elec       q    Type
REMARK                         _______ _______ _______ _____ _____    ______ ____
ROOT
ATOM      1  O   LIG    1        4.762   1.250  -0.139  0.00  0.00    -0.510 OA
ATOM      2  C   LIG    1        4.776   0.037  -0.145  0.00  0.00    +0.520 C 
ATOM      3  N   LIG    1        3.622  -0.651  -0.036  0.00  0.00    -0.670 N 
ATOM      4  H   LIG    1        3.638  -1.618   0.026  0.00  0.00    +0.420 HD
ENDROOT
BRANCH   3   5
ATOM      5  C   LIG    1        2.400   0.032  -0.013  0.00  0.00    +0.160 A 
ATOM      6  C   LIG    1        2.308   1.272   0.605  0.00  0.00    +0.080 A 
ATOM      7  C   LIG    1        1.101   1.943   0.626  0.00  0.00    +0.080 A 
ATOM      8  C   LIG    1       -0.015   1.381   0.033  0.00  0.00    -0.060 A 
ATOM      9  C   LIG    1        0.073   0.145  -0.583  0.00  0.00    -0.140 A 
ATOM     10 BR   LIG    1       -1.664   2.307   0.058  0.00  0.00    -0.020 Br
ATOM     11  C   LIG    1        1.278  -0.530  -0.608  0.00  0.00    +0.060 A 
BRANCH   9  12
ATOM     12  C   LIG    1       -1.145  -0.464  -1.228  0.00  0.00    +0.510 C 
ATOM     13  F   LIG    1       -1.611   0.384  -2.237  0.00  0.00    -0.160 F 
ATOM     14  F   LIG    1       -2.145  -0.637  -0.265  0.00  0.00    -0.160 F 
ATOM     15  F   LIG    1       -0.809  -1.705  -1.779  0.00  0.00    -0.170 F 
ENDBRANCH   9  12
ENDBRANCH   3   5
BRANCH   2  16
ATOM     16  C   LIG    1        6.083  -0.701  -0.275  0.00  0.00    +0.320 C 
BRANCH  16  17
ATOM     17  N   LIG    1        7.181   0.264  -0.378  0.00  0.00    -0.710 N 
ATOM     18  H   LIG    1        6.994   1.216  -0.356  0.00  0.00    +0.410 HD
ATOM     19  C   LIG    1        8.450  -0.170  -0.503  0.00  0.00    +0.570 C 
ATOM     20  O   LIG    1        8.685  -1.363  -0.531  0.00  0.00    -0.520 OA
BRANCH  19  21
ATOM     21  C   LIG    1        9.558   0.804  -0.606  0.00  0.00    -0.130 A 
ATOM     22  C   LIG    1        9.291   2.173  -0.580  0.00  0.00    +0.110 A 
ATOM     23  C   LIG    1       10.330   3.077  -0.671  0.00  0.00    +0.040 A 
ATOM     24  C   LIG    1       11.633   2.628  -0.799  0.00  0.00    +0.130 A 
ATOM     25  C   LIG    1       11.903   1.271  -0.832  0.00  0.00    -0.050 A 
ATOM     26  C   LIG    1       10.874   0.357  -0.736  0.00  0.00    +0.170 A 
BRANCH  25  27
ATOM     27  N   LIG    1       13.299   0.800  -0.970  0.00  0.00    +0.020 N 
ATOM     28  O   LIG    1       14.209   1.605  -1.054  0.00  0.00    -0.150 OA
ATOM     29  O   LIG    1       13.539  -0.394  -0.998  0.00  0.00    -0.150 OA
ENDBRANCH  25  27
ENDBRANCH  19  21
ENDBRANCH  16  17
ENDBRANCH   2  16
TORSDOF 6
