REMARK  Name = ZINCvU0000000AIx.0
REMARK                            x       y       z     vdW  Elec       q    Type
REMARK                         _______ _______ _______ _____ _____    ______ ____
ROOT
ATOM      1  N   LIG    1        2.154   0.304   1.157  0.00  0.00    -0.750 N 
ATOM      2  H   LIG    1        2.885  -0.094   0.659  0.00  0.00    +0.400 HD
ATOM      3  C   LIG    1        2.361   1.422   1.881  0.00  0.00    +0.720 C 
ATOM      4  N   LIG    1        3.607   1.919   2.011  0.00  0.00    -0.630 N 
ATOM      5  C   LIG    1        3.866   3.072   2.884  0.00  0.00    +0.290 C 
ATOM      6  C   LIG    1        4.592   4.150   2.081  0.00  0.00    +0.010 C 
ATOM      7  C   LIG    1        5.847   3.550   1.444  0.00  0.00    -0.030 C 
ATOM      8  C   LIG    1        5.448   2.422   0.490  0.00  0.00    +0.030 C 
ATOM      9  C   LIG    1        4.732   1.321   1.279  0.00  0.00    +0.250 C 
ATOM     10  O   LIG    1        1.424   1.982   2.416  0.00  0.00    -0.580 OA
ENDROOT
BRANCH   1  11
ATOM     11  C   LIG    1        0.824  -0.309   1.121  0.00  0.00    +0.320 C 
BRANCH  11  16
ATOM     12  C   LIG    1        0.241  -3.363  -3.749  0.00  0.00    +0.090 C 
ATOM     13  C   LIG    1        0.393  -2.567  -2.479  0.00  0.00    -0.080 A 
ATOM     14  C   LIG    1       -0.665  -1.815  -2.004  0.00  0.00    +0.010 A 
ATOM     15  C   LIG    1       -0.526  -1.085  -0.839  0.00  0.00    +0.030 A 
ATOM     16  C   LIG    1        0.671  -1.106  -0.149  0.00  0.00    -0.100 A 
ATOM     17  C   LIG    1        1.732  -1.853  -0.627  0.00  0.00    +0.010 A 
ATOM     18  C   LIG    1        1.590  -2.589  -1.789  0.00  0.00    +0.010 A 
ENDBRANCH  11  16
BRANCH  11  19
ATOM     19  C   LIG    1        0.657  -1.235   2.328  0.00  0.00    +0.050 C 
BRANCH  19  20
ATOM     20  C   LIG    1        0.687  -0.408   3.614  0.00  0.00    +0.460 C 
ATOM     21  F   LIG    1        0.534  -1.255   4.717  0.00  0.00    -0.190 F 
ATOM     22  F   LIG    1        1.910   0.264   3.708  0.00  0.00    -0.170 F 
ATOM     23  F   LIG    1       -0.357   0.524   3.594  0.00  0.00    -0.170 F 
ENDBRANCH  19  20
ENDBRANCH  11  19
ENDBRANCH   1  11
BRANCH   7  24
ATOM     24  C   LIG    1        6.593   4.635   0.665  0.00  0.00    +0.260 C 
BRANCH  24  25
ATOM     25  C   LIG    1        7.094   5.686   1.623  0.00  0.00    -0.110 A 
ATOM     26  C   LIG    1        6.234   6.664   2.086  0.00  0.00    +0.030 A 
ATOM     27  C   LIG    1        6.691   7.625   2.969  0.00  0.00    +0.030 A 
ATOM     28  C   LIG    1        8.012   7.614   3.380  0.00  0.00    -0.030 A 
ATOM     29  C   LIG    1        8.873   6.637   2.911  0.00  0.00    +0.030 A 
ATOM     30 CL   LIG    1        8.589   8.823   4.483  0.00  0.00    -0.070 Cl
ATOM     31  C   LIG    1        8.414   5.674   2.033  0.00  0.00    +0.030 A 
ENDBRANCH  24  25
BRANCH  24  32
ATOM     32  O   LIG    1        5.707   5.237  -0.281  0.00  0.00    -0.550 OA
ATOM     33  H   LIG    1        4.931   5.653   0.117  0.00  0.00    +0.370 HD
ENDBRANCH  24  32
ENDBRANCH   7  24
TORSDOF 7
