REMARK  Name = ZINCpk00000eb4UK.0
REMARK                            x       y       z     vdW  Elec       q    Type
REMARK                         _______ _______ _______ _____ _____    ______ ____
ROOT
ATOM      1  N   LIG    1       -3.684   3.231  -0.047  0.00  0.00    -0.610 N 
ATOM      2  C   LIG    1       -2.541   3.940   0.037  0.00  0.00    +0.570 C 
ATOM      3  O   LIG    1       -2.583   5.153   0.128  0.00  0.00    -0.500 OA
ATOM      4  C   LIG    1       -3.639   1.767  -0.055  0.00  0.00    +0.290 C 
ENDROOT
BRANCH   2   5
ATOM      5  C   LIG    1       -1.247   3.250   0.019  0.00  0.00    +0.030 A 
ATOM      6  C   LIG    1       -0.159   3.848  -0.543  0.00  0.00    +0.120 A 
ATOM      7  C   LIG    1        1.075   3.155  -0.544  0.00  0.00    +0.010 A 
ATOM      8  C   LIG    1        2.328   3.479  -1.022  0.00  0.00    +0.040 A 
ATOM      9  C   LIG    1        3.170   2.396  -0.740  0.00  0.00    -0.010 A 
ATOM     10  C   LIG    1        2.438   1.449  -0.110  0.00  0.00    +0.220 A 
ATOM     11  N   LIG    1        1.154   1.895   0.019  0.00  0.00    -0.430 N 
ATOM     12  C   LIG    1        0.058   1.333   0.566  0.00  0.00    +0.700 A 
ATOM     13  O   LIG    1        0.138   0.224   1.058  0.00  0.00    -0.530 OA
ATOM     14  N   LIG    1       -1.123   1.974   0.571  0.00  0.00    -0.640 N 
ATOM     15  H   LIG    1       -1.899   1.547   0.967  0.00  0.00    +0.440 HD
ENDBRANCH   2   5
BRANCH   1  16
ATOM     16  C   LIG    1       -4.972   3.925  -0.132  0.00  0.00    +0.310 C 
BRANCH  16  22
ATOM     17  C   LIG    1       -6.995   2.374  -7.097  0.00  0.00    +0.140 C 
ATOM     18  C   LIG    1       -6.727   2.910  -5.715  0.00  0.00    +0.000 A 
ATOM     19  C   LIG    1       -6.129   2.241  -4.708  0.00  0.00    +0.110 A 
ATOM     20  N   LIG    1       -6.088   3.092  -3.643  0.00  0.00    -0.460 N 
ATOM     21  C   LIG    1       -5.535   2.836  -2.311  0.00  0.00    +0.280 C 
ATOM     22  C   LIG    1       -5.321   4.176  -1.600  0.00  0.00    -0.030 C 
ATOM     23  C   LIG    1       -6.603   5.010  -1.684  0.00  0.00    +0.040 C 
ATOM     24  C   LIG    1       -6.818   5.460  -3.135  0.00  0.00    +0.160 C 
ATOM     25  C   LIG    1       -6.663   4.255  -4.031  0.00  0.00    +0.210 A 
ATOM     26  N   LIG    1       -7.041   4.138  -5.271  0.00  0.00    -0.490 NA
ENDBRANCH  16  22
ENDBRANCH   1  16
TORSDOF 3
