REMARK  Name = ZINCtV00001bB3Cc.0
REMARK                            x       y       z     vdW  Elec       q    Type
REMARK                         _______ _______ _______ _____ _____    ______ ____
ROOT
ATOM      1  C   LIG    1       -6.895   5.464   0.137  0.00  0.00    -0.300 A 
ATOM      2  C   LIG    1       -7.154   4.138  -0.153  0.00  0.00    +0.220 A 
ATOM      3  N   LIG    1       -6.100   3.359  -0.157  0.00  0.00    -0.460 NA
ATOM      4  C   LIG    1       -4.946   3.909   0.117  0.00  0.00    +0.130 A 
ATOM      5  S   LIG    1       -5.163   5.631   0.414  0.00  0.00    +0.190 S 
ENDROOT
BRANCH   2   6
ATOM      6  C   LIG    1       -8.518   3.637  -0.442  0.00  0.00    -0.050 A 
ATOM      7  C   LIG    1       -8.983   2.477   0.177  0.00  0.00    +0.040 A 
ATOM      8  C   LIG    1      -10.256   2.018  -0.093  0.00  0.00    +0.000 A 
ATOM      9  C   LIG    1      -11.066   2.699  -0.983  0.00  0.00    +0.020 A 
ATOM     10  C   LIG    1      -10.609   3.848  -1.604  0.00  0.00    +0.000 A 
ATOM     11  C   LIG    1       -9.340   4.320  -1.338  0.00  0.00    +0.070 A 
ENDBRANCH   2   6
BRANCH   1  12
ATOM     12  C   LIG    1       -7.853   6.506   0.199  0.00  0.00    +0.540 C 
ATOM     13  O   LIG    1       -9.039   6.248   0.113  0.00  0.00    -0.480 OA
BRANCH  12  14
ATOM     14  O   LIG    1       -7.450   7.785   0.354  0.00  0.00    -0.350 OA
BRANCH  14  16
ATOM     15  C   LIG    1       -7.827  10.161   0.587  0.00  0.00    +0.070 C 
ATOM     16  C   LIG    1       -8.470   8.785   0.409  0.00  0.00    +0.200 C 
ENDBRANCH  14  16
ENDBRANCH  12  14
ENDBRANCH   1  12
BRANCH   4  17
ATOM     17  C   LIG    1       -3.665   3.201   0.164  0.00  0.00    +0.060 C 
ATOM     18  C   LIG    1       -2.533   3.874   0.454  0.00  0.00    +0.080 C 
BRANCH  18  19
ATOM     19  C   LIG    1       -1.246   3.163   0.501  0.00  0.00    -0.090 A 
ATOM     20  C   LIG    1       -1.193   1.789   0.241  0.00  0.00    +0.090 A 
ATOM     21  C   LIG    1        0.013   1.127   0.292  0.00  0.00    +0.030 A 
ATOM     22  C   LIG    1        1.179   1.823   0.590  0.00  0.00    +0.120 A 
ATOM     23  C   LIG    1        1.132   3.188   0.844  0.00  0.00    -0.050 A 
ATOM     24  C   LIG    1       -0.070   3.859   0.801  0.00  0.00    +0.090 A 
BRANCH  22  25
ATOM     25  O   LIG    1        2.366   1.166   0.633  0.00  0.00    -0.310 OA
BRANCH  25  26
ATOM     26  C   LIG    1        3.525   1.942   0.946  0.00  0.00    +0.600 C 
ATOM     27  F   LIG    1        3.686   2.947  -0.014  0.00  0.00    -0.160 F 
ATOM     28  F   LIG    1        4.653   1.114   0.948  0.00  0.00    -0.130 F 
ATOM     29  F   LIG    1        3.371   2.523   2.209  0.00  0.00    -0.160 F 
ENDBRANCH  25  26
ENDBRANCH  22  25
ENDBRANCH  18  19
ENDBRANCH   4  17
TORSDOF 8
