REMARK  Name = ZINCnE000008J3Xm.1
REMARK                            x       y       z     vdW  Elec       q    Type
REMARK                         _______ _______ _______ _____ _____    ______ ____
ROOT
ATOM      1  C   LIG    1        6.043   1.939  -0.045  0.00  0.00    +0.470 C 
ATOM      2  N   LIG    1        7.297   1.446  -0.060  0.00  0.00    -0.680 NA
ATOM      3  O   LIG    1        5.863   3.139  -0.037  0.00  0.00    -0.550 OA
ENDROOT
BRANCH   2   4
ATOM      4  C   LIG    1        8.381   2.309  -0.066  0.00  0.00    +0.400 A 
ATOM      5  N   LIG    1        8.297   3.594  -0.063  0.00  0.00    -0.560 NA
ATOM      6  C   LIG    1        9.444   4.301  -0.065  0.00  0.00    +0.150 A 
ATOM      7  C   LIG    1        9.619   5.701  -0.059  0.00  0.00    +0.010 A 
ATOM      8  C   LIG    1       10.879   6.244  -0.070  0.00  0.00    +0.020 A 
ATOM      9  C   LIG    1       12.000   5.428  -0.085  0.00  0.00    -0.040 A 
ATOM     10  C   LIG    1       11.854   4.058  -0.090  0.00  0.00    +0.060 A 
ATOM     11  C   LIG    1       10.583   3.489  -0.080  0.00  0.00    -0.220 A 
ATOM     12  S   LIG    1       10.065   1.805  -0.084  0.00  0.00    -0.030 S 
ENDBRANCH   2   4
BRANCH   1  13
ATOM     13  C   LIG    1        4.864   1.000  -0.039  0.00  0.00    +0.260 C 
BRANCH  13  14
ATOM     14  O   LIG    1        3.633   1.770  -0.023  0.00  0.00    -0.330 OA
BRANCH  14  15
ATOM     15  C   LIG    1        2.478   1.076  -0.016  0.00  0.00    +0.500 C 
ATOM     16  O   LIG    1        2.499  -0.139  -0.022  0.00  0.00    -0.510 OA
BRANCH  15  21
ATOM     17  C   LIG    1       -2.554   3.865   0.045  0.00  0.00    +0.090 C 
ATOM     18  C   LIG    1       -1.236   3.134   0.029  0.00  0.00    -0.060 A 
ATOM     19  C   LIG    1       -1.216   1.751   0.017  0.00  0.00    -0.010 A 
ATOM     20  C   LIG    1       -0.013   1.076   0.008  0.00  0.00    +0.090 A 
ATOM     21  C   LIG    1        1.186   1.792   0.000  0.00  0.00    -0.130 A 
ATOM     22  C   LIG    1        1.158   3.188   0.008  0.00  0.00    +0.090 A 
ATOM     23  C   LIG    1       -0.052   3.850   0.022  0.00  0.00    -0.010 A 
ENDBRANCH  15  21
ENDBRANCH  14  15
ENDBRANCH  13  14
ENDBRANCH   1  13
TORSDOF 5
