REMARK  Name = ZINCrD000000AteR.0
REMARK                            x       y       z     vdW  Elec       q    Type
REMARK                         _______ _______ _______ _____ _____    ______ ____
ROOT
ATOM      1  O   LIG    1        1.239   8.126  -0.677  0.00  0.00    -0.520 OA
ATOM      2  C   LIG    1        1.086   7.355  -1.601  0.00  0.00    +0.530 C 
ATOM      3  N   LIG    1        0.847   6.051  -1.358  0.00  0.00    -0.720 N 
ATOM      4  H   LIG    1        0.725   5.435  -2.097  0.00  0.00    +0.410 HD
ENDROOT
BRANCH   3   5
ATOM      5  C   LIG    1        0.771   5.565   0.022  0.00  0.00    +0.340 C 
BRANCH   5   6
ATOM      6  C   LIG    1        0.496   4.083   0.018  0.00  0.00    -0.110 A 
ATOM      7  C   LIG    1       -0.808   3.624   0.028  0.00  0.00    +0.050 A 
ATOM      8  C   LIG    1       -1.065   2.265   0.019  0.00  0.00    +0.040 A 
ATOM      9  C   LIG    1       -0.016   1.361   0.009  0.00  0.00    +0.040 A 
ATOM     10  O   LIG    1        0.002  -0.004   0.002  0.00  0.00    -0.310 OA
ATOM     11  C   LIG    1        1.336  -0.373   0.399  0.00  0.00    +0.440 C 
ATOM     12  O   LIG    1        2.139   0.749  -0.014  0.00  0.00    -0.310 OA
ATOM     13  C   LIG    1        1.297   1.824  -0.001  0.00  0.00    +0.030 A 
ATOM     14  C   LIG    1        1.548   3.186   0.004  0.00  0.00    +0.060 A 
ENDBRANCH   5   6
ENDBRANCH   3   5
BRANCH   2  15
ATOM     15  C   LIG    1        1.164   7.855  -3.020  0.00  0.00    +0.100 C 
BRANCH  15  16
ATOM     16  S   LIG    1        1.495   9.635  -3.015  0.00  0.00    +0.120 S 
BRANCH  16  17
ATOM     17  C   LIG    1        1.534   9.943  -4.750  0.00  0.00    +0.080 A 
ATOM     18  N   LIG    1        1.364   9.047  -5.661  0.00  0.00    -0.480 NA
ATOM     19  C   LIG    1        1.418   9.440  -6.949  0.00  0.00    +0.150 A 
ATOM     20  C   LIG    1        1.262   8.663  -8.116  0.00  0.00    +0.100 A 
ATOM     21  C   LIG    1        1.357   9.245  -9.356  0.00  0.00    +0.120 A 
ATOM     22  C   LIG    1        1.608  10.602  -9.482  0.00  0.00    -0.040 A 
ATOM     23  C   LIG    1        1.764  11.381  -8.355  0.00  0.00    +0.170 A 
ATOM     24  C   LIG    1        1.670  10.808  -7.090  0.00  0.00    -0.200 A 
ATOM     25  S   LIG    1        1.818  11.516  -5.483  0.00  0.00    +0.170 S 
BRANCH  22  26
ATOM     26  N   LIG    1        1.708  11.216 -10.825  0.00  0.00    +0.030 N 
ATOM     27  O   LIG    1        1.571  10.527 -11.820  0.00  0.00    -0.150 OA
ATOM     28  O   LIG    1        1.929  12.408 -10.935  0.00  0.00    -0.160 OA
ENDBRANCH  22  26
ENDBRANCH  16  17
ENDBRANCH  15  16
ENDBRANCH   2  15
TORSDOF 6
