REMARK  Name = ZINCpk000000oE5D.2
REMARK                            x       y       z     vdW  Elec       q    Type
REMARK                         _______ _______ _______ _____ _____    ______ ____
ROOT
ATOM      1  N   LIG    1        0.062  -1.988   1.314  0.00  0.00    -0.520 NA
ENDROOT
BRANCH   1   3
ATOM      2  C   LIG    1       -1.076  -2.188  -0.846  0.00  0.00    +0.030 C 
ATOM      3  C   LIG    1       -1.151  -2.487   0.653  0.00  0.00    +0.170 C 
ENDBRANCH   1   3
BRANCH   1   4
ATOM      4  C   LIG    1        0.258  -2.638   2.616  0.00  0.00    +0.210 C 
BRANCH   4   5
ATOM      5  C   LIG    1        0.544  -4.126   2.406  0.00  0.00    +0.150 C 
ATOM      6  C   LIG    1        0.625  -4.835   3.765  0.00  0.00    +0.230 C 
ATOM      7  O   LIG    1        0.906  -6.219   3.533  0.00  0.00    -0.310 OA
ATOM      8  C   LIG    1        1.893  -6.502   2.641  0.00  0.00    +0.040 A 
ATOM      9  C   LIG    1        2.460  -7.768   2.630  0.00  0.00    +0.020 A 
ATOM     10  C   LIG    1        3.461  -8.070   1.726  0.00  0.00    +0.010 A 
ATOM     11  C   LIG    1        3.901  -7.113   0.832  0.00  0.00    +0.020 A 
ATOM     12  C   LIG    1        3.342  -5.849   0.838  0.00  0.00    +0.030 A 
ATOM     13  C   LIG    1        2.338  -5.538   1.742  0.00  0.00    +0.050 A 
ATOM     14  O   LIG    1        1.801  -4.287   1.741  0.00  0.00    -0.290 OA
ENDBRANCH   4   5
ENDBRANCH   1   4
BRANCH   1  15
ATOM     15  C   LIG    1        0.022  -0.526   1.455  0.00  0.00    +0.170 C 
BRANCH  15  16
ATOM     16  C   LIG    1        1.440   0.004   1.675  0.00  0.00    +0.320 C 
BRANCH  16  17
ATOM     17  N   LIG    1        1.415   1.469   1.694  0.00  0.00    -0.580 N 
ATOM     18  C   LIG    1        1.572   2.237   0.609  0.00  0.00    +0.700 C 
ATOM     19  N   LIG    1        1.506   3.550   0.895  0.00  0.00    -0.720 N 
ATOM     20  H   LIG    1        1.590   4.285   0.268  0.00  0.00    +0.440 HD
ATOM     21  C   LIG    1        1.286   3.654   2.348  0.00  0.00    +0.120 C 
ATOM     22  C   LIG    1        2.445   4.393   3.020  0.00  0.00    +0.090 C 
ATOM     23  C   LIG    1       -0.041   4.356   2.643  0.00  0.00    +0.090 C 
ATOM     24  O   LIG    1        1.752   1.798  -0.509  0.00  0.00    -0.530 OA
ATOM     25  C   LIG    1        1.238   2.209   2.806  0.00  0.00    +0.530 C 
ATOM     26  O   LIG    1        1.073   1.804   3.937  0.00  0.00    -0.460 OA
ENDBRANCH  16  17
ENDBRANCH  15  16
ENDBRANCH   1  15
TORSDOF 6
