REMARK  Name = ZINCpk00000eb2JE.0
REMARK                            x       y       z     vdW  Elec       q    Type
REMARK                         _______ _______ _______ _____ _____    ______ ____
ROOT
ATOM      1  N   LIG    1        0.110   4.228  -0.079  0.00  0.00    -0.710 N 
ATOM      2  H   LIG    1       -0.744   3.768  -0.073  0.00  0.00    +0.420 HD
ATOM      3  C   LIG    1        1.256   3.525   0.009  0.00  0.00    +0.580 C 
ATOM      4  O   LIG    1        2.321   4.105   0.095  0.00  0.00    -0.530 OA
ENDROOT
BRANCH   3   5
ATOM      5  C   LIG    1        1.218   2.051  -0.001  0.00  0.00    -0.240 A 
ATOM      6  C   LIG    1        2.390   1.297  -0.032  0.00  0.00    +0.050 A 
ATOM      7  C   LIG    1        2.274  -0.098  -0.039  0.00  0.00    +0.060 A 
ATOM      8  N   LIG    1        1.100  -0.668  -0.017  0.00  0.00    -0.200 NA
ATOM      9  N   LIG    1        0.003  -0.004   0.011  0.00  0.00    -0.440 N 
ATOM     10  H   LIG    1       -0.839  -0.487   0.025  0.00  0.00    +0.450 HD
ATOM     11  C   LIG    1        3.517  -0.950  -0.072  0.00  0.00    +0.180 C 
ATOM     12  C   LIG    1        3.741   1.964  -0.057  0.00  0.00    +0.160 C 
ATOM     13  C   LIG    1       -0.016   1.342   0.021  0.00  0.00    +0.500 A 
ATOM     14  O   LIG    1       -1.075   1.946   0.043  0.00  0.00    -0.530 OA
ENDBRANCH   3   5
BRANCH   1  18
ATOM     15  N   LIG    1       -1.013   8.255   0.443  0.00  0.00    -0.480 N 
ATOM     16  C   LIG    1       -1.096   7.721  -0.922  0.00  0.00    +0.210 C 
ATOM     17  C   LIG    1       -1.119   6.191  -0.871  0.00  0.00    +0.030 C 
ATOM     18  C   LIG    1        0.153   5.689  -0.182  0.00  0.00    +0.230 C 
ATOM     19  C   LIG    1        0.240   6.299   1.220  0.00  0.00    +0.030 C 
ATOM     20  C   LIG    1        0.223   7.825   1.108  0.00  0.00    +0.200 C 
BRANCH  15  26
ATOM     21  C   LIG    1       -1.561  12.289  -2.077  0.00  0.00    +0.130 C 
ATOM     22  C   LIG    1       -1.385  11.601  -0.747  0.00  0.00    +0.150 A 
ATOM     23  C   LIG    1       -1.339  12.355   0.408  0.00  0.00    -0.070 A 
ATOM     24  C   LIG    1       -1.177  11.716   1.631  0.00  0.00    +0.090 A 
ATOM     25  C   LIG    1       -1.073  10.337   1.647  0.00  0.00    -0.050 A 
ATOM     26  C   LIG    1       -1.122   9.641   0.443  0.00  0.00    +0.320 A 
ATOM     27  N   LIG    1       -1.278  10.287  -0.703  0.00  0.00    -0.520 NA
ENDBRANCH  15  26
ENDBRANCH   1  18
TORSDOF 3
