REMARK  Name = ZINCnE00000rhnSz.1
REMARK                            x       y       z     vdW  Elec       q    Type
REMARK                         _______ _______ _______ _____ _____    ______ ____
ROOT
ATOM      1  C   LIG    1       -9.964   1.498   0.059  0.00  0.00    +0.650 C 
ATOM      2  N   LIG    1       -8.889   0.685   0.050  0.00  0.00    -0.590 N 
ATOM      3  C   LIG    1       -8.285   0.227   1.308  0.00  0.00    +0.290 C 
ATOM      4  C   LIG    1       -6.790   0.560   1.288  0.00  0.00    +0.020 C 
ATOM      5  C   LIG    1       -6.155  -0.040   0.032  0.00  0.00    +0.100 C 
ATOM      6  C   LIG    1       -6.803   0.573  -1.212  0.00  0.00    +0.020 C 
ATOM      7  C   LIG    1       -8.298   0.240  -1.220  0.00  0.00    +0.270 C 
ATOM      8  O   LIG    1      -10.443   1.858   1.116  0.00  0.00    -0.570 OA
ENDROOT
BRANCH   5   9
ATOM      9  C   LIG    1       -4.677   0.257   0.026  0.00  0.00    -0.320 A 
ATOM     10  C   LIG    1       -3.696  -0.648   0.016  0.00  0.00    +0.230 A 
ATOM     11  N   LIG    1       -2.479  -0.138   0.007  0.00  0.00    -0.560 NA
ATOM     12  C   LIG    1       -2.385   1.155   0.020  0.00  0.00    +0.340 A 
ATOM     13  S   LIG    1       -3.943   1.858   0.031  0.00  0.00    +0.020 S 
BRANCH  12  14
ATOM     14  N   LIG    1       -1.191   1.867   0.018  0.00  0.00    -0.690 NA
ATOM     15  C   LIG    1       -0.014   1.209   0.009  0.00  0.00    +0.450 C 
ATOM     16  O   LIG    1        0.002  -0.004   0.002  0.00  0.00    -0.560 OA
BRANCH  15  17
ATOM     17  C   LIG    1        1.280   1.980   0.001  0.00  0.00    +0.180 C 
ATOM     18 CL   LIG    1        2.667   0.827  -0.019  0.00  0.00    -0.180 Cl
ENDBRANCH  15  17
ENDBRANCH  12  14
ENDBRANCH   5   9
BRANCH   1  19
ATOM     19  O   LIG    1      -10.507   1.910  -1.101  0.00  0.00    -0.360 OA
BRANCH  19  21
ATOM     20  C   LIG    1      -11.282   4.060  -0.263  0.00  0.00    +0.040 C 
ATOM     21  C   LIG    1      -11.663   2.783  -1.015  0.00  0.00    +0.140 C 
ATOM     22  C   LIG    1      -12.789   2.067  -0.266  0.00  0.00    +0.040 C 
ATOM     23  C   LIG    1      -12.137   3.143  -2.425  0.00  0.00    +0.080 C 
ENDBRANCH  19  21
ENDBRANCH   1  19
TORSDOF 5
