REMARK  Name = ZINCtj00001UqOvJ.0
REMARK                            x       y       z     vdW  Elec       q    Type
REMARK                         _______ _______ _______ _____ _____    ______ ____
ROOT
ATOM      1  C   LIG    1       -0.994   3.515   1.844  0.00  0.00    +0.580 C 
ATOM      2  N   LIG    1       -0.603   2.812   0.763  0.00  0.00    -0.600 N 
ATOM      3  C   LIG    1        0.352   1.688   0.769  0.00  0.00    +0.260 C 
ATOM      4  C   LIG    1        0.921   1.645  -0.671  0.00  0.00    +0.040 C 
ATOM      5  C   LIG    1       -0.329   2.015  -1.512  0.00  0.00    +0.060 C 
ATOM      6  C   LIG    1       -1.059   3.037  -0.616  0.00  0.00    +0.170 C 
ATOM      7  O   LIG    1       -1.699   4.497   1.709  0.00  0.00    -0.460 OA
ENDROOT
BRANCH   6   8
ATOM      8  C   LIG    1       -0.716   4.438  -1.051  0.00  0.00    +0.550 C 
ATOM      9  N   LIG    1       -0.969   4.833  -2.314  0.00  0.00    -0.630 N 
ATOM     10  C   LIG    1       -1.666   4.038  -3.337  0.00  0.00    +0.270 C 
ATOM     11  C   LIG    1       -1.702   4.883  -4.628  0.00  0.00    +0.070 C 
ATOM     12  C   LIG    1       -0.521   5.870  -4.428  0.00  0.00    +0.160 C 
ATOM     13  C   LIG    1       -0.589   6.130  -2.902  0.00  0.00    +0.280 C 
ATOM     14  O   LIG    1       -0.211   5.210  -0.264  0.00  0.00    -0.480 OA
BRANCH  12  15
ATOM     15  N   LIG    1       -0.739   7.111  -5.183  0.00  0.00    -0.380 N 
ATOM     16  C   LIG    1       -0.668   6.827  -6.623  0.00  0.00    +0.320 C 
ATOM     17  C   LIG    1        0.297   8.090  -4.826  0.00  0.00    +0.320 C 
ATOM     18  H   LIG    1       -1.648   7.487  -4.959  0.00  0.00    +0.430 HD
ENDBRANCH  12  15
ENDBRANCH   6   8
BRANCH   1  22
ATOM     19  C   LIG    1        0.238   2.304   5.726  0.00  0.00    -0.010 A 
ATOM     20  C   LIG    1        0.489   1.489   4.634  0.00  0.00    -0.040 A 
ATOM     21  C   LIG    1        0.087   1.874   3.373  0.00  0.00    +0.080 A 
ATOM     22  C   LIG    1       -0.566   3.095   3.192  0.00  0.00    -0.180 A 
ATOM     23  C   LIG    1       -0.818   3.916   4.300  0.00  0.00    +0.190 A 
ATOM     24  C   LIG    1       -0.412   3.511   5.562  0.00  0.00    -0.090 A 
BRANCH  19  26
ATOM     25  C   LIG    1       -0.444   1.066   7.763  0.00  0.00    +0.030 C 
ATOM     26  C   LIG    1        0.677   1.869   7.101  0.00  0.00    +0.070 C 
ENDBRANCH  19  26
BRANCH  23  27
ATOM     27  O   LIG    1       -1.457   5.102   4.138  0.00  0.00    -0.280 OA
ATOM     28  C   LIG    1       -1.679   5.885   5.312  0.00  0.00    +0.240 C 
ENDBRANCH  23  27
ENDBRANCH   1  22
BRANCH   6  29
ATOM     29  C   LIG    1       -2.571   2.820  -0.706  0.00  0.00    +0.180 C 
BRANCH  29  30
ATOM     30  O   LIG    1       -3.243   3.828   0.053  0.00  0.00    -0.530 OA
ATOM     31  H   LIG    1       -4.207   3.753   0.041  0.00  0.00    +0.380 HD
ENDBRANCH  29  30
ENDBRANCH   6  29
TORSDOF 7
