REMARK  Name = ZINCkj000005ktCF.0
REMARK                            x       y       z     vdW  Elec       q    Type
REMARK                         _______ _______ _______ _____ _____    ______ ____
ROOT
ATOM      1  C   LIG    1       -0.013   1.086   0.008  0.00  0.00    +0.180 C 
ENDROOT
BRANCH   1   6
ATOM      2  C   LIG    1       -2.010   5.378   2.940  0.00  0.00    +0.100 C 
ATOM      3  C   LIG    1       -2.135   3.967   3.455  0.00  0.00    -0.030 A 
ATOM      4  C   LIG    1       -1.628   2.902   2.707  0.00  0.00    +0.050 A 
ATOM      5  N   LIG    1       -0.988   2.817   1.512  0.00  0.00    -0.480 NA
ATOM      6  C   LIG    1       -0.718   1.572   1.248  0.00  0.00    +0.270 A 
ATOM      7  N   LIG    1       -1.171   0.772   2.251  0.00  0.00    -0.600 N 
ATOM      8  H   LIG    1       -1.097  -0.194   2.293  0.00  0.00    +0.420 HD
ATOM      9  C   LIG    1       -1.751   1.591   3.199  0.00  0.00    +0.050 A 
ATOM     10  C   LIG    1       -2.373   1.367   4.419  0.00  0.00    +0.000 A 
ATOM     11  C   LIG    1       -2.866   2.434   5.141  0.00  0.00    +0.040 A 
ATOM     12  C   LIG    1       -2.744   3.728   4.654  0.00  0.00    +0.000 A 
ENDBRANCH   1   6
BRANCH   1  13
ATOM     13  C   LIG    1       -0.753   1.593  -1.232  0.00  0.00    +0.090 C 
BRANCH  13  14
ATOM     14  C   LIG    1       -0.047   1.107  -2.471  0.00  0.00    +0.540 C 
ATOM     15  N   LIG    1       -0.524   1.433  -3.689  0.00  0.00    -0.630 N 
ATOM     16  C   LIG    1       -1.720   2.246  -3.952  0.00  0.00    +0.280 C 
ATOM     17  C   LIG    1       -1.857   2.378  -5.483  0.00  0.00    +0.070 C 
ATOM     18  C   LIG    1       -0.417   2.098  -5.989  0.00  0.00    +0.170 C 
ATOM     19  C   LIG    1        0.064   1.027  -4.979  0.00  0.00    +0.290 C 
ATOM     20  O   LIG    1        0.949   0.422  -2.373  0.00  0.00    -0.520 OA
BRANCH  18  21
ATOM     21  N   LIG    1       -0.434   1.562  -7.357  0.00  0.00    -0.630 N 
ATOM     22  H   LIG    1        0.497   1.270  -7.614  0.00  0.00    +0.440 HD
ATOM     23  H   LIG    1       -0.750   2.278  -7.994  0.00  0.00    +0.440 HD
ATOM     24  H   LIG    1       -1.059   0.772  -7.401  0.00  0.00    +0.440 HD
ENDBRANCH  18  21
ENDBRANCH  13  14
ENDBRANCH   1  13
TORSDOF 4
