REMARK  Name = ZINCvU0000000CrK.0
REMARK                            x       y       z     vdW  Elec       q    Type
REMARK                         _______ _______ _______ _____ _____    ______ ____
ROOT
ATOM      1  C   LIG    1       -5.132  -2.928   1.908  0.00  0.00    +0.600 C 
ATOM      2  N   LIG    1       -4.849  -1.853   2.670  0.00  0.00    -0.670 N 
ATOM      3  H   LIG    1       -5.369  -1.675   3.469  0.00  0.00    +0.410 HD
ATOM      4  O   LIG    1       -4.420  -3.207   0.962  0.00  0.00    -0.510 OA
ENDROOT
BRANCH   1   8
ATOM      5  N   LIG    1       -7.584  -5.337   3.065  0.00  0.00    -0.350 N 
ATOM      6  N   LIG    1       -8.367  -4.531   2.231  0.00  0.00    -0.290 NA
ATOM      7  C   LIG    1       -7.617  -3.590   1.727  0.00  0.00    +0.120 A 
ATOM      8  C   LIG    1       -6.304  -3.766   2.220  0.00  0.00    -0.290 A 
ATOM      9  C   LIG    1       -8.069  -2.506   0.782  0.00  0.00    +0.160 C 
ATOM     10  C   LIG    1       -6.327  -4.865   3.055  0.00  0.00    +0.140 A 
ATOM     11  C   LIG    1       -5.156  -5.432   3.815  0.00  0.00    +0.160 C 
BRANCH   5  12
ATOM     12  C   LIG    1       -8.056  -6.499   3.821  0.00  0.00    +0.380 C 
BRANCH  12  17
ATOM     13  C   LIG    1       -9.855  -4.800   9.043  0.00  0.00    +0.090 C 
ATOM     14  C   LIG    1       -9.386  -5.243   7.681  0.00  0.00    -0.070 A 
ATOM     15  C   LIG    1      -10.274  -5.279   6.623  0.00  0.00    +0.010 A 
ATOM     16  C   LIG    1       -9.844  -5.686   5.373  0.00  0.00    +0.050 A 
ATOM     17  C   LIG    1       -8.525  -6.056   5.183  0.00  0.00    -0.130 A 
ATOM     18  C   LIG    1       -7.638  -6.024   6.243  0.00  0.00    +0.020 A 
ATOM     19  C   LIG    1       -8.067  -5.612   7.490  0.00  0.00    +0.010 A 
ENDBRANCH  12  17
ENDBRANCH   5  12
ENDBRANCH   1   8
BRANCH   2  20
ATOM     20  C   LIG    1       -3.804  -0.994   2.308  0.00  0.00    +0.120 A 
ATOM     21  C   LIG    1       -3.034  -0.385   3.291  0.00  0.00    +0.010 A 
ATOM     22  C   LIG    1       -2.004   0.462   2.935  0.00  0.00    +0.010 A 
ATOM     23  C   LIG    1       -1.737   0.706   1.593  0.00  0.00    +0.110 A 
ATOM     24  C   LIG    1       -2.511   0.101   0.611  0.00  0.00    -0.030 A 
ATOM     25  C   LIG    1       -3.538  -0.750   0.968  0.00  0.00    +0.040 A 
BRANCH  23  26
ATOM     26  N   LIG    1       -0.694   1.565   1.232  0.00  0.00    -0.500 N 
ATOM     27  C   LIG    1        0.582   1.137   1.848  0.00  0.00    +0.220 C 
ATOM     28  C   LIG    1        1.292   0.083   1.042  0.00  0.00    -0.010 C 
ATOM     29  C   LIG    1        2.301   0.780   0.105  0.00  0.00    +0.000 C 
ATOM     30  C   LIG    1        1.654   1.357  -1.069  0.00  0.00    +0.000 C 
ATOM     31  C   LIG    1        0.617   2.436  -0.693  0.00  0.00    +0.040 C 
ATOM     32  C   LIG    1       -0.641   1.749  -0.234  0.00  0.00    +0.190 C 
ENDBRANCH  23  26
ENDBRANCH   2  20
TORSDOF 5
