REMARK  Name = ZINCc70000001v1R.0
REMARK                            x       y       z     vdW  Elec       q    Type
REMARK                         _______ _______ _______ _____ _____    ______ ____
ROOT
ATOM      1  C   LIG    1        1.101   1.948   0.002  0.00  0.00    -0.010 A 
ATOM      2  N   LIG    1        0.627   3.175   0.011  0.00  0.00    -0.250 NA
ATOM      3  N   LIG    1       -0.666   3.158   0.020  0.00  0.00    -0.310 N 
ATOM      4  C   LIG    1       -1.804   4.096   0.027  0.00  0.00    +0.320 C 
ATOM      5  C   LIG    1       -3.025   3.266   0.475  0.00  0.00    +0.070 C 
ATOM      6  C   LIG    1       -2.614   1.841   0.041  0.00  0.00    +0.140 C 
ATOM      7  C   LIG    1       -1.101   1.881   0.017  0.00  0.00    -0.010 A 
ATOM      8  C   LIG    1       -0.013   1.076   0.008  0.00  0.00    +0.000 A 
ENDROOT
BRANCH   1  12
ATOM      9  C   LIG    1        4.897   2.111  -0.030  0.00  0.00    +0.290 C 
ATOM     10  N   LIG    1        3.485   2.501  -0.016  0.00  0.00    -0.720 N 
ATOM     11  H   LIG    1        3.241   3.439  -0.010  0.00  0.00    +0.410 HD
ATOM     12  C   LIG    1        2.525   1.555  -0.012  0.00  0.00    +0.610 C 
ATOM     13  O   LIG    1        2.830   0.378  -0.019  0.00  0.00    -0.530 OA
ENDBRANCH   1  12
TORSDOF 1
