REMARK  Name = ZINCrD00000l7ezy.0
REMARK                            x       y       z     vdW  Elec       q    Type
REMARK                         _______ _______ _______ _____ _____    ______ ____
ROOT
ATOM      1  C   LIG    1       -0.718   1.572   1.248  0.00  0.00    +0.490 C 
ATOM      2  N   LIG    1       -0.242   1.246   2.466  0.00  0.00    -0.730 N 
ATOM      3  H   LIG    1        0.555   0.699   2.544  0.00  0.00    +0.400 HD
ATOM      4  O   LIG    1       -1.714   2.256   1.150  0.00  0.00    -0.510 OA
ENDROOT
BRANCH   1   5
ATOM      5  C   LIG    1       -0.013   1.086   0.008  0.00  0.00    +0.330 C 
BRANCH   5  16
ATOM      6  C   LIG    1        0.583   3.754  -1.403  0.00  0.00    +0.150 C 
ATOM      7  C   LIG    1       -0.467   2.756  -1.818  0.00  0.00    +0.130 A 
ATOM      8  C   LIG    1       -1.292   2.895  -2.868  0.00  0.00    -0.180 A 
ATOM      9  C   LIG    1       -2.144   1.704  -2.904  0.00  0.00    -0.080 A 
ATOM     10  C   LIG    1       -3.175   1.274  -3.742  0.00  0.00    +0.060 A 
ATOM     11  C   LIG    1       -3.779   0.070  -3.511  0.00  0.00    -0.010 A 
ATOM     12  C   LIG    1       -3.384  -0.724  -2.443  0.00  0.00    +0.040 A 
ATOM     13  C   LIG    1       -2.372  -0.316  -1.601  0.00  0.00    -0.010 A 
ATOM     14  C   LIG    1       -1.738   0.902  -1.822  0.00  0.00    +0.110 A 
ATOM     15 BR   LIG    1       -1.344   4.353  -4.071  0.00  0.00    -0.020 Br
ATOM     16  N   LIG    1       -0.721   1.571  -1.179  0.00  0.00    -0.460 N 
ENDBRANCH   5  16
ENDBRANCH   1   5
BRANCH   2  17
ATOM     17  C   LIG    1       -0.927   1.718   3.671  0.00  0.00    +0.280 C 
BRANCH  17  18
ATOM     18  C   LIG    1       -0.187   1.212   4.911  0.00  0.00    +0.160 C 
BRANCH  18  19
ATOM     19  C   LIG    1       -0.893   1.698   6.151  0.00  0.00    +0.170 A 
ATOM     20  N   LIG    1       -1.851   1.081   6.790  0.00  0.00    -0.280 NA
ATOM     21  N   LIG    1       -2.213   1.781   7.809  0.00  0.00    -0.290 NA
ATOM     22  C   LIG    1       -1.501   2.870   7.864  0.00  0.00    +0.190 A 
ATOM     23  C   LIG    1       -1.582   3.958   8.903  0.00  0.00    +0.150 C 
ATOM     24  C   LIG    1       -1.610   5.319   8.200  0.00  0.00    +0.030 C 
ATOM     25  C   LIG    1       -0.183   5.810   7.979  0.00  0.00    +0.020 C 
ATOM     26  C   LIG    1        0.754   4.631   7.720  0.00  0.00    +0.030 C 
ATOM     27  C   LIG    1        0.315   3.890   6.454  0.00  0.00    +0.290 C 
ATOM     28  N   LIG    1       -0.649   2.850   6.813  0.00  0.00    -0.460 N 
ENDBRANCH  18  19
ENDBRANCH  17  18
ENDBRANCH   2  17
TORSDOF 5
