REMARK  Name = ZINCrH00000tj1kI.1
REMARK                            x       y       z     vdW  Elec       q    Type
REMARK                         _______ _______ _______ _____ _____    ______ ____
ROOT
ATOM      1  S   LIG    1        8.139   2.098  -0.069  0.00  0.00    +0.150 S 
ENDROOT
BRANCH   1   2
ATOM      2  C   LIG    1        6.384   1.946  -0.064  0.00  0.00    +0.260 A 
ATOM      3  N   LIG    1        5.651   3.046  -0.059  0.00  0.00    -0.350 NA
ATOM      4  N   LIG    1        4.362   3.024  -0.054  0.00  0.00    -0.220 N 
ATOM      5  H   LIG    1        3.860   3.853  -0.051  0.00  0.00    +0.460 HD
ATOM      6  C   LIG    1        3.721   1.848  -0.055  0.00  0.00    +0.040 A 
ATOM      7  C   LIG    1        2.374   1.426  -0.052  0.00  0.00    -0.190 A 
ATOM      8  C   LIG    1        1.147   2.099  -0.046  0.00  0.00    +0.080 A 
ATOM      9  C   LIG    1       -0.018   1.388  -0.044  0.00  0.00    -0.020 A 
ATOM     10  C   LIG    1        0.001  -0.003  -0.048  0.00  0.00    +0.080 A 
ATOM     11  C   LIG    1        1.179  -0.689  -0.053  0.00  0.00    +0.020 A 
ATOM     12  C   LIG    1        2.399   0.007  -0.056  0.00  0.00    +0.200 A 
ATOM     13  N   LIG    1        3.674  -0.418  -0.061  0.00  0.00    -0.500 NA
ATOM     14  C   LIG    1        4.520   0.608  -0.061  0.00  0.00    +0.360 A 
ATOM     15  N   LIG    1        5.849   0.732  -0.065  0.00  0.00    -0.430 NA
ENDBRANCH   1   2
BRANCH   1  16
ATOM     16  C   LIG    1        8.299   3.901  -0.064  0.00  0.00    +0.090 C 
BRANCH  16  18
ATOM     17  O   LIG    1       10.607   3.409  -0.073  0.00  0.00    -0.500 OA
ATOM     18  C   LIG    1        9.758   4.276  -0.068  0.00  0.00    +0.530 C 
ATOM     19  N   LIG    1       10.120   5.574  -0.065  0.00  0.00    -0.660 N 
ATOM     20  H   LIG    1        9.444   6.266  -0.129  0.00  0.00    +0.410 HD
BRANCH  19  21
ATOM     21  C   LIG    1       11.472   5.923   0.029  0.00  0.00    +0.140 A 
ATOM     22  C   LIG    1       12.440   5.132  -0.576  0.00  0.00    +0.020 A 
ATOM     23  C   LIG    1       13.772   5.481  -0.479  0.00  0.00    +0.040 A 
ATOM     24  C   LIG    1       14.148   6.617   0.218  0.00  0.00    -0.110 A 
ATOM     25  C   LIG    1       15.521   7.205   0.464  0.00  0.00    +0.080 C 
ATOM     26  C   LIG    1       15.335   8.186   1.641  0.00  0.00    +0.030 C 
ATOM     27  C   LIG    1       13.848   8.579   1.514  0.00  0.00    +0.080 C 
ATOM     28  C   LIG    1       13.186   7.407   0.821  0.00  0.00    -0.080 A 
ATOM     29  C   LIG    1       11.850   7.064   0.723  0.00  0.00    -0.010 A 
ENDBRANCH  19  21
ENDBRANCH  16  18
ENDBRANCH   1  16
TORSDOF 4
