REMARK  Name = ZINCrH00000tj1ki.0
REMARK                            x       y       z     vdW  Elec       q    Type
REMARK                         _______ _______ _______ _____ _____    ______ ____
ROOT
ATOM      1  C   LIG    1       12.445  -1.972  -0.180  0.00  0.00    +0.000 C 
ATOM      2  C   LIG    1       12.093  -3.178  -1.056  0.00  0.00    +0.020 C 
ATOM      3  C   LIG    1       10.792  -3.804  -0.551  0.00  0.00    +0.080 C 
ATOM      4  C   LIG    1        9.745  -2.710  -0.408  0.00  0.00    -0.070 A 
ATOM      5  C   LIG    1       10.041  -1.406  -0.367  0.00  0.00    -0.270 A 
ATOM      6  S   LIG    1        8.583  -0.441  -0.204  0.00  0.00    +0.370 S 
ATOM      7  C   LIG    1        7.578  -1.815  -0.181  0.00  0.00    -0.010 A 
ATOM      8  C   LIG    1        8.319  -2.958  -0.301  0.00  0.00    -0.170 A 
ATOM      9  C   LIG    1       11.447  -0.845  -0.457  0.00  0.00    +0.120 C 
ENDROOT
BRANCH   8  10
ATOM     10  C   LIG    1        7.731  -4.301  -0.320  0.00  0.00    +0.580 C 
ATOM     11  O   LIG    1        7.399  -4.805  -1.377  0.00  0.00    -0.530 OA
ATOM     12  N   LIG    1        7.559  -4.977   0.833  0.00  0.00    -0.850 N 
ATOM     13  H   LIG    1        7.170  -5.865   0.821  0.00  0.00    +0.400 HD
ATOM     14  H   LIG    1        7.824  -4.575   1.675  0.00  0.00    +0.400 HD
ENDBRANCH   8  10
BRANCH   1  16
ATOM     15  C   LIG    1       14.206  -0.283   0.358  0.00  0.00    +0.020 C 
ATOM     16  C   LIG    1       13.861  -1.495  -0.510  0.00  0.00    -0.060 C 
ATOM     17  C   LIG    1       13.935  -1.101  -1.987  0.00  0.00    +0.020 C 
ATOM     18  C   LIG    1       14.857  -2.622  -0.232  0.00  0.00    +0.020 C 
ENDBRANCH   1  16
BRANCH   7  19
ATOM     19  N   LIG    1        6.198  -1.780  -0.064  0.00  0.00    -0.560 N 
ATOM     20  H   LIG    1        5.696  -2.607   0.013  0.00  0.00    +0.410 HD
BRANCH  19  21
ATOM     21  C   LIG    1        5.552  -0.597  -0.057  0.00  0.00    +0.470 C 
ATOM     22  S   LIG    1        6.443   0.865  -0.056  0.00  0.00    -0.370 S 
BRANCH  21  23
ATOM     23  N   LIG    1        4.205  -0.565  -0.052  0.00  0.00    -0.630 N 
ATOM     24  H   LIG    1        3.700  -1.393  -0.053  0.00  0.00    +0.420 HD
ATOM     25  C   LIG    1        3.559   0.618  -0.045  0.00  0.00    +0.590 C 
ATOM     26  O   LIG    1        4.192   1.657  -0.044  0.00  0.00    -0.390 OA
BRANCH  25  27
ATOM     27  C   LIG    1        2.094   0.653  -0.039  0.00  0.00    -0.100 A 
ATOM     28  C   LIG    1        1.318   1.777  -0.031  0.00  0.00    +0.080 A 
ATOM     29  C   LIG    1       -0.018   1.345  -0.027  0.00  0.00    -0.060 A 
ATOM     30  C   LIG    1        0.001  -0.006  -0.033  0.00  0.00    +0.230 A 
ATOM     31  O   LIG    1        1.275  -0.419  -0.040  0.00  0.00    -0.170 OA
ENDBRANCH  25  27
ENDBRANCH  21  23
ENDBRANCH  19  21
ENDBRANCH   7  19
TORSDOF 6
