REMARK  Name = ZINCqH0000002Npm.0
REMARK                            x       y       z     vdW  Elec       q    Type
REMARK                         _______ _______ _______ _____ _____    ______ ____
ROOT
ATOM      1  N   LIG    1        3.837   1.568   0.076  0.00  0.00    -0.520 N 
ATOM      2  C   LIG    1        4.414   1.899  -1.108  0.00  0.00    +0.600 A 
ATOM      3  N   LIG    1        5.323   2.824  -1.193  0.00  0.00    -0.500 NA
ATOM      4  C   LIG    1        5.752   3.499  -0.106  0.00  0.00    +0.070 A 
ATOM      5  C   LIG    1        5.209   3.210   1.145  0.00  0.00    -0.220 A 
ATOM      6  C   LIG    1        5.756   3.993   2.171  0.00  0.00    -0.020 A 
ATOM      7  C   LIG    1        6.689   4.869   1.789  0.00  0.00    -0.170 A 
ATOM      8  C   LIG    1        5.321   3.855   3.607  0.00  0.00    +0.120 C 
ATOM      9  S   LIG    1        6.956   4.772   0.057  0.00  0.00    +0.230 S 
ATOM     10  C   LIG    1        4.204   2.191   1.212  0.00  0.00    +0.570 A 
ATOM     11  O   LIG    1        3.692   1.893   2.277  0.00  0.00    -0.510 OA
ENDROOT
BRANCH   7  12
ATOM     12  C   LIG    1        7.398   5.793   2.700  0.00  0.00    -0.020 A 
ATOM     13  C   LIG    1        7.516   7.145   2.374  0.00  0.00    +0.010 A 
ATOM     14  C   LIG    1        8.174   8.003   3.230  0.00  0.00    +0.010 A 
ATOM     15  C   LIG    1        8.726   7.524   4.405  0.00  0.00    +0.020 A 
ATOM     16  C   LIG    1        8.617   6.184   4.731  0.00  0.00    +0.010 A 
ATOM     17  C   LIG    1        7.957   5.316   3.886  0.00  0.00    +0.030 A 
ENDBRANCH   7  12
BRANCH   1  18
ATOM     18  C   LIG    1        2.811   0.523   0.118  0.00  0.00    +0.330 C 
BRANCH  18  21
ATOM     19  N   LIG    1        0.350   0.368  -0.076  0.00  0.00    -0.720 N 
ATOM     20  H   LIG    1        0.432  -0.590   0.052  0.00  0.00    +0.400 HD
ATOM     21  C   LIG    1        1.452   1.144  -0.078  0.00  0.00    +0.500 C 
ATOM     22  O   LIG    1        1.350   2.342  -0.238  0.00  0.00    -0.520 OA
BRANCH  19  23
ATOM     23  C   LIG    1       -0.971   0.971  -0.273  0.00  0.00    +0.230 C 
ATOM     24  C   LIG    1       -1.247   1.116  -1.771  0.00  0.00    +0.030 C 
BRANCH  23  25
ATOM     25  C   LIG    1       -2.039   0.076   0.358  0.00  0.00    +0.020 C 
BRANCH  25  27
ATOM     26  C   LIG    1       -2.905  -0.863   2.505  0.00  0.00    +0.010 C 
ATOM     27  C   LIG    1       -1.836   0.032   1.874  0.00  0.00    -0.010 C 
ENDBRANCH  25  27
ENDBRANCH  23  25
ENDBRANCH  19  23
ENDBRANCH  18  21
ENDBRANCH   1  18
TORSDOF 6
