REMARK  Name = ZINCrH000004tD8R.0
REMARK                            x       y       z     vdW  Elec       q    Type
REMARK                         _______ _______ _______ _____ _____    ______ ____
ROOT
ATOM      1  O   LIG    1        0.114   0.023  -0.681  0.00  0.00    -0.490 OA
ATOM      2  C   LIG    1        0.031   1.194  -0.379  0.00  0.00    +0.530 C 
ATOM      3  N   LIG    1       -1.169   1.807  -0.378  0.00  0.00    -0.600 N 
ATOM      4  C   LIG    1       -1.413   3.219  -0.034  0.00  0.00    +0.260 C 
ATOM      5  C   LIG    1       -2.895   3.268   0.416  0.00  0.00    +0.040 C 
ATOM      6  C   LIG    1       -3.549   2.250  -0.555  0.00  0.00    +0.060 C 
ATOM      7  C   LIG    1       -2.452   1.178  -0.726  0.00  0.00    +0.320 C 
ENDROOT
BRANCH   7   8
ATOM      8  C   LIG    1       -2.417   0.700  -2.155  0.00  0.00    +0.170 A 
ATOM      9  N   LIG    1       -1.964   1.364  -3.185  0.00  0.00    -0.280 NA
ATOM     10  N   LIG    1       -2.084   0.650  -4.249  0.00  0.00    -0.290 NA
ATOM     11  C   LIG    1       -2.614  -0.500  -3.945  0.00  0.00    +0.180 A 
ATOM     12  C   LIG    1       -2.908  -1.644  -4.880  0.00  0.00    +0.150 C 
ATOM     13  C   LIG    1       -4.313  -2.171  -4.604  0.00  0.00    +0.020 C 
ATOM     14  C   LIG    1       -4.260  -3.238  -3.515  0.00  0.00    +0.020 C 
ATOM     15  C   LIG    1       -3.157  -2.920  -2.507  0.00  0.00    +0.030 C 
ATOM     16  C   LIG    1       -3.448  -1.578  -1.829  0.00  0.00    +0.280 C 
ATOM     17  N   LIG    1       -2.844  -0.499  -2.611  0.00  0.00    -0.460 N 
ENDBRANCH   7   8
BRANCH   2  18
ATOM     18  C   LIG    1        1.271   1.968  -0.011  0.00  0.00    +0.140 C 
BRANCH  18  19
ATOM     19  C   LIG    1        2.455   1.006   0.110  0.00  0.00    -0.070 C 
ATOM     20  S   LIG    1        4.013   1.938   0.282  0.00  0.00    -0.180 S 
ATOM     21  C   LIG    1        4.938   1.411  -1.196  0.00  0.00    +0.150 C 
ATOM     22  C   LIG    1        3.894   1.068  -2.282  0.00  0.00    +0.120 C 
ATOM     23  S   LIG    1        2.646   0.038  -1.430  0.00  0.00    -0.110 S 
BRANCH  19  24
ATOM     24  C   LIG    1        2.258   0.070   1.304  0.00  0.00    +0.480 C 
ATOM     25  F   LIG    1        2.065   0.828   2.464  0.00  0.00    -0.170 F 
ATOM     26  F   LIG    1        3.392  -0.736   1.457  0.00  0.00    -0.160 F 
ATOM     27  F   LIG    1        1.138  -0.739   1.083  0.00  0.00    -0.150 F 
ENDBRANCH  19  24
ENDBRANCH  18  19
ENDBRANCH   2  18
TORSDOF 4
