REMARK  Name = ZINCkj000005jHGh.0
REMARK                            x       y       z     vdW  Elec       q    Type
REMARK                         _______ _______ _______ _____ _____    ______ ____
ROOT
ATOM      1  N   LIG    1        2.122   5.610  -1.510  0.00  0.00    -0.730 N 
ATOM      2  H   LIG    1        2.700   5.263  -0.813  0.00  0.00    +0.390 HD
ATOM      3  C   LIG    1        0.926   5.035  -1.743  0.00  0.00    +0.710 C 
ATOM      4  N   LIG    1        0.488   4.043  -0.942  0.00  0.00    -0.650 N 
ATOM      5  C   LIG    1        1.345   3.495   0.120  0.00  0.00    +0.310 C 
ATOM      6  C   LIG    1        1.359   1.968  -0.006  0.00  0.00    +0.250 C 
ATOM      7  N   LIG    1       -0.021   1.464   0.007  0.00  0.00    -0.380 N 
ATOM      8  C   LIG    1       -0.743   1.952  -1.174  0.00  0.00    +0.250 C 
ATOM      9  H   LIG    1       -0.487   1.788   0.841  0.00  0.00    +0.420 HD
ATOM     10  C   LIG    1       -0.860   3.478  -1.106  0.00  0.00    +0.340 C 
ATOM     11  O   LIG    1        0.241   5.410  -2.675  0.00  0.00    -0.560 OA
ENDROOT
BRANCH   7  12
ATOM     12  C   LIG    1       -0.004  -0.005  -0.003  0.00  0.00    +0.150 C 
ATOM     13  C   LIG    1       -1.307  -0.639   0.511  0.00  0.00    +0.050 C 
ATOM     14  C   LIG    1       -0.425  -1.681   1.223  0.00  0.00    +0.070 C 
ATOM     15  C   LIG    1        0.690  -0.622   1.223  0.00  0.00    +0.050 C 
ENDBRANCH   7  12
BRANCH   1  17
ATOM     16  C   LIG    1        1.979   8.044  -1.706  0.00  0.00    +0.030 C 
ATOM     17  C   LIG    1        2.550   6.760  -2.312  0.00  0.00    +0.340 C 
BRANCH  17  18
ATOM     18  C   LIG    1        4.055   6.834  -2.320  0.00  0.00    -0.260 A 
ATOM     19  C   LIG    1        4.831   7.145  -3.384  0.00  0.00    +0.270 A 
ATOM     20  N   LIG    1        6.118   7.106  -2.979  0.00  0.00    -0.470 N 
ATOM     21  H   LIG    1        6.895   7.287  -3.531  0.00  0.00    +0.450 HD
ATOM     22  N   LIG    1        6.134   6.750  -1.625  0.00  0.00    -0.280 NA
ATOM     23  C   LIG    1        4.897   6.588  -1.230  0.00  0.00    +0.230 A 
ENDBRANCH  17  18
ENDBRANCH   1  17
TORSDOF 3
