REMARK  Name = ZINCtV00000qqhYI.0
REMARK                            x       y       z     vdW  Elec       q    Type
REMARK                         _______ _______ _______ _____ _____    ______ ____
ROOT
ATOM      1  C   LIG    1        1.672   3.418  -2.716  0.00  0.00    -0.020 A 
ATOM      2  C   LIG    1        2.009   4.292  -3.663  0.00  0.00    -0.010 A 
ATOM      3  S   LIG    1        1.877   5.941  -3.083  0.00  0.00    +0.190 S 
ATOM      4  C   LIG    1        1.344   5.417  -1.493  0.00  0.00    +0.090 A 
ATOM      5  N   LIG    1        1.014   6.118  -0.400  0.00  0.00    -0.490 NA
ATOM      6  C   LIG    1        0.636   5.515   0.703  0.00  0.00    +0.530 A 
ATOM      7  N   LIG    1        0.562   4.199   0.795  0.00  0.00    -0.550 NA
ATOM      8  C   LIG    1        0.869   3.422  -0.234  0.00  0.00    +0.410 A 
ATOM      9  C   LIG    1        1.288   4.023  -1.447  0.00  0.00    -0.150 A 
ENDROOT
BRANCH   1  14
ATOM     10 CL   LIG    1        1.757  -2.504  -3.592  0.00  0.00    -0.070 Cl
ATOM     11  C   LIG    1        1.732  -0.787  -3.338  0.00  0.00    -0.030 A 
ATOM     12  C   LIG    1        0.974   0.022  -4.167  0.00  0.00    +0.020 A 
ATOM     13  C   LIG    1        0.951   1.387  -3.970  0.00  0.00    +0.040 A 
ATOM     14  C   LIG    1        1.693   1.952  -2.933  0.00  0.00    -0.020 A 
ATOM     15  C   LIG    1        2.459   1.133  -2.104  0.00  0.00    +0.090 A 
ATOM     16  C   LIG    1        2.470  -0.232  -2.307  0.00  0.00    +0.020 A 
ENDBRANCH   1  14
BRANCH   8  17
ATOM     17  N   LIG    1        0.787   2.046  -0.124  0.00  0.00    -0.480 N 
ATOM     18  C   LIG    1       -0.613   1.603  -0.099  0.00  0.00    +0.190 C 
ATOM     19  C   LIG    1       -0.665   0.073  -0.123  0.00  0.00    +0.040 C 
ATOM     20  C   LIG    1        0.086  -0.478   1.092  0.00  0.00    -0.010 C 
ATOM     21  C   LIG    1        1.527   0.038   1.068  0.00  0.00    +0.050 C 
ATOM     22  C   LIG    1        1.516   1.568   1.058  0.00  0.00    +0.190 C 
BRANCH  20  23
ATOM     23  C   LIG    1        0.089  -2.007   1.041  0.00  0.00    +0.070 C 
BRANCH  23  24
ATOM     24  C   LIG    1        0.720  -2.550   2.297  0.00  0.00    -0.080 A 
ATOM     25  C   LIG    1        2.082  -2.785   2.340  0.00  0.00    +0.000 A 
ATOM     26  C   LIG    1        2.661  -3.279   3.494  0.00  0.00    +0.000 A 
ATOM     27  C   LIG    1        1.878  -3.548   4.601  0.00  0.00    -0.010 A 
ATOM     28  C   LIG    1        0.515  -3.318   4.555  0.00  0.00    +0.000 A 
ATOM     29  C   LIG    1       -0.063  -2.820   3.403  0.00  0.00    +0.000 A 
ENDBRANCH  23  24
ENDBRANCH  20  23
ENDBRANCH   8  17
TORSDOF 4
