REMARK  Name = ZINCpk00000eb5Ua.0
REMARK                            x       y       z     vdW  Elec       q    Type
REMARK                         _______ _______ _______ _____ _____    ______ ____
ROOT
ATOM      1  C   LIG    1        7.694   3.692  -0.331  0.00  0.00    +0.180 C 
ATOM      2  C   LIG    1        6.165   3.757  -0.299  0.00  0.00    +0.160 C 
ATOM      3  N   LIG    1        5.626   2.402  -0.116  0.00  0.00    -0.520 NA
ATOM      4  C   LIG    1        6.070   1.514  -1.200  0.00  0.00    +0.160 C 
ATOM      5  C   LIG    1        7.601   1.471  -1.222  0.00  0.00    +0.230 C 
ATOM      6  O   LIG    1        8.107   2.800  -1.369  0.00  0.00    -0.380 OA
ENDROOT
BRANCH   1   7
ATOM      7  C   LIG    1        8.260   5.088  -0.601  0.00  0.00    +0.350 C 
BRANCH   7  11
ATOM      8  C   LIG    1       13.120   5.558  -1.733  0.00  0.00    +0.110 C 
ATOM      9  C   LIG    1       11.840   5.250  -1.000  0.00  0.00    -0.240 A 
ATOM     10  C   LIG    1       10.586   5.450  -1.468  0.00  0.00    +0.230 A 
ATOM     11  N   LIG    1        9.722   5.048  -0.512  0.00  0.00    -0.370 N 
ATOM     12  N   LIG    1       10.469   4.592   0.581  0.00  0.00    -0.290 NA
ATOM     13  C   LIG    1       11.738   4.708   0.286  0.00  0.00    +0.230 A 
ENDBRANCH   7  11
ENDBRANCH   1   7
BRANCH   3  14
ATOM     14  C   LIG    1        4.160   2.427  -0.024  0.00  0.00    +0.230 C 
BRANCH  14  15
ATOM     15  C   LIG    1        3.748   3.134   1.242  0.00  0.00    +0.520 C 
ATOM     16  N   LIG    1        2.443   3.358   1.494  0.00  0.00    -0.550 N 
ATOM     17  C   LIG    1        1.923   4.033   2.686  0.00  0.00    +0.280 C 
ATOM     18  C   LIG    1        0.395   4.042   2.509  0.00  0.00    +0.090 C 
ATOM     19  C   LIG    1        0.161   3.348   1.186  0.00  0.00    -0.130 A 
ATOM     20  C   LIG    1       -1.007   3.068   0.505  0.00  0.00    +0.060 A 
ATOM     21  C   LIG    1       -0.962   2.409  -0.710  0.00  0.00    -0.010 A 
ATOM     22  C   LIG    1        0.257   2.039  -1.246  0.00  0.00    +0.050 A 
ATOM     23  C   LIG    1        1.427   2.320  -0.571  0.00  0.00    -0.030 A 
ATOM     24  C   LIG    1        1.388   2.981   0.658  0.00  0.00    +0.140 A 
ATOM     25  O   LIG    1        4.591   3.502   2.032  0.00  0.00    -0.490 OA
ENDBRANCH  14  15
ENDBRANCH   3  14
TORSDOF 4
