REMARK  Name = ZINCpk00000y6yEd.0
REMARK                            x       y       z     vdW  Elec       q    Type
REMARK                         _______ _______ _______ _____ _____    ______ ____
ROOT
ATOM      1  C   LIG    1        1.429   1.640  -0.003  0.00  0.00    +0.020 C 
ATOM      2  C   LIG    1        1.675   1.850  -1.515  0.00  0.00    +0.080 C 
ATOM      3  C   LIG    1        0.289   2.022  -2.096  0.00  0.00    +0.520 C 
ATOM      4  N   LIG    1       -0.636   1.592  -1.220  0.00  0.00    -0.580 N 
ATOM      5  O   LIG    1        0.047   2.483  -3.191  0.00  0.00    -0.510 OA
ATOM      6  C   LIG    1       -0.013   1.086   0.008  0.00  0.00    +0.350 C 
ENDROOT
BRANCH   6   7
ATOM      7  C   LIG    1       -0.756   1.590   1.218  0.00  0.00    -0.270 A 
ATOM      8  C   LIG    1       -0.678   1.081   2.469  0.00  0.00    +0.110 A 
ATOM      9  N   LIG    1       -1.493   1.810   3.261  0.00  0.00    -0.370 N 
ATOM     10  N   LIG    1       -2.090   2.799   2.470  0.00  0.00    -0.290 NA
ATOM     11  C   LIG    1       -1.713   1.602   4.695  0.00  0.00    +0.360 C 
ATOM     12  C   LIG    1        0.166  -0.091   2.901  0.00  0.00    +0.160 C 
ATOM     13  C   LIG    1       -1.644   2.671   1.248  0.00  0.00    +0.260 A 
ENDBRANCH   6   7
BRANCH   1  16
ATOM     14  N   LIG    1        3.710   0.933   0.644  0.00  0.00    -0.620 N 
ATOM     15  H   LIG    1        4.031   1.794   0.333  0.00  0.00    +0.430 HD
ATOM     16  C   LIG    1        2.397   0.635   0.567  0.00  0.00    +0.540 C 
ATOM     17  O   LIG    1        1.996  -0.441   0.956  0.00  0.00    -0.520 OA
BRANCH  14  23
ATOM     18  C   LIG    1        7.897  -1.132   2.151  0.00  0.00    +0.140 C 
ATOM     19  C   LIG    1        6.436  -0.926   1.841  0.00  0.00    +0.020 A 
ATOM     20  C   LIG    1        5.451  -1.814   2.062  0.00  0.00    +0.130 A 
ATOM     21  N   LIG    1        4.282  -1.229   1.638  0.00  0.00    -0.560 N 
ATOM     22  H   LIG    1        3.396  -1.623   1.667  0.00  0.00    +0.430 HD
ATOM     23  C   LIG    1        4.602   0.007   1.169  0.00  0.00    +0.430 A 
ATOM     24  N   LIG    1        5.897   0.174   1.292  0.00  0.00    -0.500 NA
ENDBRANCH  14  23
ENDBRANCH   1  16
BRANCH   4  25
ATOM     25  C   LIG    1       -2.081   1.624  -1.462  0.00  0.00    +0.210 C 
ATOM     26  C   LIG    1       -2.554   1.994  -2.869  0.00  0.00    +0.040 C 
ATOM     27  C   LIG    1       -2.724   2.989  -1.719  0.00  0.00    +0.000 C 
ENDBRANCH   4  25
TORSDOF 4
