REMARK  Name = ZINCrg00000AhDCG.0
REMARK                            x       y       z     vdW  Elec       q    Type
REMARK                         _______ _______ _______ _____ _____    ______ ____
ROOT
ATOM      1  C   LIG    1       -1.276  -0.566  -0.624  0.00  0.00    +0.060 C 
ATOM      2  C   LIG    1        0.002  -0.004   0.002  0.00  0.00    +0.160 C 
ATOM      3  C   LIG    1       -0.019   1.547   0.011  0.00  0.00    +0.050 C 
ATOM      4  C   LIG    1        1.480   1.913  -0.002  0.00  0.00    +0.240 C 
ATOM      5  N   LIG    1        2.207   0.757  -0.545  0.00  0.00    -0.620 N 
ATOM      6  C   LIG    1        3.543   0.672  -0.701  0.00  0.00    +0.530 C 
ATOM      7  O   LIG    1        4.037  -0.335  -1.163  0.00  0.00    -0.540 OA
ATOM      8  C   LIG    1        1.233  -0.293  -0.893  0.00  0.00    +0.280 C 
ENDROOT
BRANCH   2   9
ATOM      9  N   LIG    1        0.199  -0.534   1.354  0.00  0.00    -0.720 N 
ATOM     10  H   LIG    1        0.980  -1.073   1.554  0.00  0.00    +0.400 HD
ATOM     11  C   LIG    1       -0.705  -0.272   2.318  0.00  0.00    +0.520 C 
ATOM     12  O   LIG    1       -1.682   0.402   2.067  0.00  0.00    -0.520 OA
BRANCH  11  13
ATOM     13  C   LIG    1       -0.503  -0.818   3.708  0.00  0.00    +0.090 C 
BRANCH  13  14
ATOM     14  C   LIG    1       -1.646  -0.384   4.590  0.00  0.00    -0.090 C 
ATOM     15  C   LIG    1       -2.656  -1.188   4.744  0.00  0.00    -0.070 C 
ATOM     16  C   LIG    1       -3.845  -0.849   5.597  0.00  0.00    +0.250 C 
ATOM     17  O   LIG    1       -3.542   0.260   6.447  0.00  0.00    -0.380 OA
ATOM     18  C   LIG    1       -2.972   1.368   5.740  0.00  0.00    +0.220 C 
ATOM     19  C   LIG    1       -1.577   0.964   5.252  0.00  0.00    +0.050 C 
ENDBRANCH  13  14
ENDBRANCH  11  13
ENDBRANCH   2   9
BRANCH   6  20
ATOM     20  C   LIG    1        4.424   1.828  -0.302  0.00  0.00    +0.040 C 
BRANCH  20  21
ATOM     21  C   LIG    1        5.886   1.475  -0.580  0.00  0.00    +0.040 C 
BRANCH  21  22
ATOM     22  C   LIG    1        6.780   2.648  -0.174  0.00  0.00    +0.020 C 
BRANCH  22  23
ATOM     23  C   LIG    1        8.243   2.295  -0.452  0.00  0.00    +0.010 C 
BRANCH  23  24
ATOM     24  C   LIG    1        9.137   3.469  -0.047  0.00  0.00    +0.280 C 
BRANCH  24  25
ATOM     25  N   LIG    1       10.537   3.131  -0.313  0.00  0.00    -0.750 N 
ATOM     26  H   LIG    1       10.764   2.267  -0.691  0.00  0.00    +0.400 HD
ATOM     27  C   LIG    1       11.510   4.020  -0.032  0.00  0.00    +0.700 C 
ATOM     28  O   LIG    1       11.226   5.103   0.442  0.00  0.00    -0.590 OA
ATOM     29  N   LIG    1       12.798   3.709  -0.277  0.00  0.00    -0.870 N 
ATOM     30  H   LIG    1       13.499   4.350  -0.075  0.00  0.00    +0.420 HD
ATOM     31  H   LIG    1       13.025   2.846  -0.656  0.00  0.00    +0.400 HD
ENDBRANCH  24  25
ENDBRANCH  23  24
ENDBRANCH  22  23
ENDBRANCH  21  22
ENDBRANCH  20  21
ENDBRANCH   6  20
TORSDOF 9
