REMARK  Name = ZINCyk0000000aWe.1
REMARK                            x       y       z     vdW  Elec       q    Type
REMARK                         _______ _______ _______ _____ _____    ______ ____
ROOT
ATOM      1  N   LIG    1        1.283  -0.414  -0.012  0.00  0.00    -0.570 N 
ATOM      2  C   LIG    1        0.325   0.086   0.788  0.00  0.00    +0.570 C 
ATOM      3  C   LIG    1        0.187   1.531   0.509  0.00  0.00    -0.090 A 
ATOM      4  C   LIG    1       -0.613   2.541   1.014  0.00  0.00    +0.080 A 
ATOM      5  C   LIG    1       -0.493   3.832   0.517  0.00  0.00    +0.100 A 
ATOM      6  C   LIG    1        0.425   4.121  -0.470  0.00  0.00    -0.030 A 
ATOM      7  C   LIG    1        1.243   3.118  -0.989  0.00  0.00    +0.200 A 
ATOM      8  C   LIG    1        1.128   1.819  -0.502  0.00  0.00    -0.180 A 
ATOM      9  O   LIG    1       -0.318  -0.543   1.604  0.00  0.00    -0.450 OA
ATOM     10  C   LIG    1        1.804   0.544  -0.801  0.00  0.00    +0.590 C 
ATOM     11  O   LIG    1        2.684   0.384  -1.623  0.00  0.00    -0.450 OA
ENDROOT
BRANCH   1  16
ATOM     12  O   LIG    1       -0.059  -3.243   3.346  0.00  0.00    -0.490 OA
ATOM     13  C   LIG    1        0.466  -2.814   2.341  0.00  0.00    +0.540 C 
ATOM     14  C   LIG    1        1.679  -1.930   2.462  0.00  0.00    +0.080 C 
ATOM     15  C   LIG    1        2.556  -2.106   1.217  0.00  0.00    +0.070 C 
ATOM     16  C   LIG    1        1.705  -1.817  -0.024  0.00  0.00    +0.280 C 
ATOM     17  C   LIG    1        0.490  -2.707  -0.009  0.00  0.00    +0.520 C 
ATOM     18  O   LIG    1       -0.013  -3.043  -1.060  0.00  0.00    -0.480 OA
ATOM     19  N   LIG    1       -0.045  -3.136   1.143  0.00  0.00    -0.660 N 
ATOM     20  H   LIG    1       -0.832  -3.702   1.110  0.00  0.00    +0.420 HD
ENDBRANCH   1  16
BRANCH   7  21
ATOM     21  O   LIG    1        2.144   3.405  -1.960  0.00  0.00    -0.290 OA
BRANCH  21  22
ATOM     22  C   LIG    1        2.204   4.761  -2.409  0.00  0.00    +0.260 C 
BRANCH  22  23
ATOM     23  C   LIG    1        3.255   4.889  -3.482  0.00  0.00    -0.060 A 
ATOM     24  C   LIG    1        4.559   5.193  -3.139  0.00  0.00    +0.050 A 
ATOM     25  C   LIG    1        5.524   5.306  -4.123  0.00  0.00    +0.050 A 
ATOM     26  C   LIG    1        5.182   5.124  -5.450  0.00  0.00    -0.150 A 
ATOM     27  C   LIG    1        3.876   4.826  -5.793  0.00  0.00    +0.040 A 
ATOM     28  C   LIG    1        2.913   4.708  -4.809  0.00  0.00    +0.050 A 
BRANCH  26  29
ATOM     29  C   LIG    1        6.232   5.252  -6.523  0.00  0.00    +0.320 C 
BRANCH  29  30
ATOM     30  N   LIG    1        6.294   6.645  -6.984  0.00  0.00    -0.380 N 
ATOM     31  C   LIG    1        5.027   7.002  -7.637  0.00  0.00    +0.230 C 
ATOM     32  C   LIG    1        5.094   8.454  -8.117  0.00  0.00    +0.260 C 
ATOM     33  O   LIG    1        6.204   8.606  -9.006  0.00  0.00    -0.360 OA
ATOM     34  C   LIG    1        7.460   8.248  -8.422  0.00  0.00    +0.260 C 
ATOM     35  C   LIG    1        7.397   6.795  -7.943  0.00  0.00    +0.240 C 
ATOM     36  H   LIG    1        6.449   7.255  -6.195  0.00  0.00    +0.420 HD
ENDBRANCH  29  30
ENDBRANCH  26  29
ENDBRANCH  22  23
ENDBRANCH  21  22
ENDBRANCH   7  21
TORSDOF 6
