REMARK  Name = ZINC9p0000002mUh.0
REMARK                            x       y       z     vdW  Elec       q    Type
REMARK                         _______ _______ _______ _____ _____    ______ ____
ROOT
ATOM      1  C   LIG    1        2.217   0.099   1.149  0.00  0.00    +0.170 C 
ATOM      2  C   LIG    1        0.810  -0.500   1.205  0.00  0.00    +0.060 C 
ATOM      3  C   LIG    1        0.002  -0.004   0.002  0.00  0.00    +0.040 C 
ATOM      4  C   LIG    1       -0.019   1.527   0.010  0.00  0.00    +0.050 C 
ATOM      5  C   LIG    1        1.419   2.051  -0.001  0.00  0.00    +0.250 C 
ATOM      6  N   LIG    1        2.130   1.564   1.187  0.00  0.00    -0.510 N 
ATOM      7  H   LIG    1        3.061   1.954   1.205  0.00  0.00    +0.430 HD
ATOM      8  H   LIG    1        1.632   1.849   2.017  0.00  0.00    +0.430 HD
ENDROOT
BRANCH   1   9
ATOM      9  C   LIG    1        3.028  -0.395   2.349  0.00  0.00    +0.050 C 
BRANCH   9  11
ATOM     10  C   LIG    1        5.281  -0.391   3.429  0.00  0.00    +0.030 C 
ATOM     11  C   LIG    1        4.470   0.103   2.229  0.00  0.00    -0.000 C 
ENDBRANCH   9  11
ENDBRANCH   1   9
TORSDOF 2
