REMARK  Name = ZINCqH0000051nEm.0
REMARK                            x       y       z     vdW  Elec       q    Type
REMARK                         _______ _______ _______ _____ _____    ______ ____
ROOT
ATOM      1  O   LIG    1       -4.252   5.864  -1.040  0.00  0.00    -0.530 OA
ATOM      2  C   LIG    1       -4.352   4.786  -1.587  0.00  0.00    +0.550 C 
ATOM      3  N   LIG    1       -5.214   4.628  -2.612  0.00  0.00    -0.720 N 
ATOM      4  H   LIG    1       -5.294   3.766  -3.049  0.00  0.00    +0.410 HD
ENDROOT
BRANCH   2   5
ATOM      5  C   LIG    1       -3.515   3.623  -1.121  0.00  0.00    -0.050 C 
ATOM      6  C   LIG    1       -3.824   3.036   0.257  0.00  0.00    +0.080 C 
ATOM      7  C   LIG    1       -2.556   3.866   0.046  0.00  0.00    +0.050 C 
BRANCH   7   8
ATOM      8  C   LIG    1       -1.240   3.133   0.030  0.00  0.00    -0.040 A 
ATOM      9  C   LIG    1       -1.219   1.751   0.017  0.00  0.00    +0.040 A 
ATOM     10  C   LIG    1       -0.013   1.076   0.008  0.00  0.00    +0.030 A 
ATOM     11  C   LIG    1        1.176   1.784   0.000  0.00  0.00    +0.070 A 
ATOM     12  C   LIG    1        1.156   3.171   0.008  0.00  0.00    +0.070 A 
ATOM     13  F   LIG    1        2.315   3.864   0.001  0.00  0.00    -0.130 F 
ATOM     14  F   LIG    1        2.356   1.125  -0.013  0.00  0.00    -0.130 F 
ATOM     15  C   LIG    1       -0.053   3.843   0.022  0.00  0.00    +0.040 A 
ENDBRANCH   7   8
ENDBRANCH   2   5
BRANCH   3  16
ATOM     16  C   LIG    1       -6.028   5.759  -3.065  0.00  0.00    +0.400 C 
BRANCH  16  17
ATOM     17  C   LIG    1       -6.900   5.321  -4.214  0.00  0.00    +0.190 A 
ATOM     18  N   LIG    1       -6.541   5.291  -5.467  0.00  0.00    -0.460 NA
ATOM     19  C   LIG    1       -7.574   4.847  -6.212  0.00  0.00    +0.040 A 
ATOM     20  C   LIG    1       -8.612   4.595  -5.372  0.00  0.00    +0.160 A 
ATOM     21  N   LIG    1       -8.177   4.892  -4.111  0.00  0.00    -0.560 N 
ATOM     22  H   LIG    1       -8.691   4.811  -3.292  0.00  0.00    +0.420 HD
BRANCH  19  23
ATOM     23  C   LIG    1       -7.576   4.667  -7.685  0.00  0.00    -0.010 A 
ATOM     24  C   LIG    1       -8.717   4.192  -8.329  0.00  0.00    +0.010 A 
ATOM     25  C   LIG    1       -8.716   4.031  -9.700  0.00  0.00    +0.000 A 
ATOM     26  C   LIG    1       -7.581   4.329 -10.433  0.00  0.00    +0.000 A 
ATOM     27  C   LIG    1       -6.444   4.795  -9.797  0.00  0.00    +0.000 A 
ATOM     28  C   LIG    1       -6.436   4.965  -8.428  0.00  0.00    +0.040 A 
ENDBRANCH  19  23
ENDBRANCH  16  17
ENDBRANCH   3  16
TORSDOF 5
