REMARK  Name = ZINCpe00000Rb1Ya.0
REMARK                            x       y       z     vdW  Elec       q    Type
REMARK                         _______ _______ _______ _____ _____    ______ ____
ROOT
ATOM      1  N   LIG    1       -2.055  -6.005   0.783  0.00  0.00    -0.660 N 
ATOM      2  H   LIG    1       -1.281  -6.572   0.926  0.00  0.00    +0.420 HD
ATOM      3  C   LIG    1       -3.293  -6.537   0.802  0.00  0.00    +0.710 C 
ATOM      4  N   LIG    1       -3.461  -7.843   1.089  0.00  0.00    -0.600 N 
ATOM      5  C   LIG    1       -2.280  -8.607   1.468  0.00  0.00    +0.260 C 
ATOM      6  C   LIG    1       -2.365 -10.009   0.868  0.00  0.00    +0.040 C 
ATOM      7  C   LIG    1       -3.695 -10.635   1.290  0.00  0.00    +0.040 C 
ATOM      8  C   LIG    1       -4.857  -9.875   0.650  0.00  0.00    +0.000 C 
ATOM      9  C   LIG    1       -6.139 -10.332   1.329  0.00  0.00    +0.520 C 
ATOM     10  N   LIG    1       -6.487  -9.450   2.284  0.00  0.00    -0.620 N 
ATOM     11  C   LIG    1       -5.543  -8.324   2.336  0.00  0.00    +0.260 C 
ATOM     12  C   LIG    1       -7.654  -9.593   3.158  0.00  0.00    +0.310 C 
ATOM     13  O   LIG    1       -6.755 -11.340   1.052  0.00  0.00    -0.520 OA
ATOM     14  C   LIG    1       -4.792  -8.380   0.992  0.00  0.00    +0.270 C 
ATOM     15  O   LIG    1       -4.258  -5.838   0.560  0.00  0.00    -0.550 OA
ENDROOT
BRANCH   1  19
ATOM     16  C   LIG    1       -1.528  -1.974   0.136  0.00  0.00    -0.220 A 
ATOM     17  C   LIG    1       -2.725  -2.570  -0.286  0.00  0.00    +0.150 A 
ATOM     18  C   LIG    1       -2.896  -3.922  -0.072  0.00  0.00    -0.010 A 
ATOM     19  C   LIG    1       -1.887  -4.644   0.560  0.00  0.00    +0.390 A 
ATOM     20  N   LIG    1       -0.768  -4.050   0.951  0.00  0.00    -0.520 NA
ATOM     21  C   LIG    1       -0.562  -2.764   0.762  0.00  0.00    +0.330 A 
BRANCH  16  24
ATOM     22  C   LIG    1        0.195   1.391  -0.225  0.00  0.00    +0.290 C 
ATOM     23  N   LIG    1       -0.035  -0.051  -0.104  0.00  0.00    -0.620 N 
ATOM     24  C   LIG    1       -1.294  -0.532  -0.074  0.00  0.00    +0.570 C 
ATOM     25  O   LIG    1       -2.237   0.222  -0.220  0.00  0.00    -0.530 OA
ATOM     26  C   LIG    1        1.103  -0.969  -0.016  0.00  0.00    +0.300 C 
ENDBRANCH  16  24
ENDBRANCH   1  19
TORSDOF 2
