REMARK  Name = ZINCpe00000MJL8R.0
REMARK                            x       y       z     vdW  Elec       q    Type
REMARK                         _______ _______ _______ _____ _____    ______ ____
ROOT
ATOM      1  N   LIG    1        0.112   5.178   0.027  0.00  0.00    -0.570 N 
ATOM      2  C   LIG    1       -1.126   5.964  -0.068  0.00  0.00    +0.290 C 
ATOM      3  C   LIG    1       -1.173   6.952   1.103  0.00  0.00    +0.020 C 
ATOM      4  C   LIG    1        0.106   7.792   1.108  0.00  0.00    +0.010 C 
ATOM      5  C   LIG    1        1.318   6.877   1.297  0.00  0.00    +0.220 C 
ATOM      6  C   LIG    1        1.393   5.889   0.135  0.00  0.00    +0.300 C 
ENDROOT
BRANCH   1  12
ATOM      7  C   LIG    1       -2.412   0.984  -0.505  0.00  0.00    +0.320 C 
ATOM      8  N   LIG    1       -1.181   1.733  -0.243  0.00  0.00    -0.480 N 
ATOM      9  C   LIG    1       -0.013   1.076   0.007  0.00  0.00    +0.160 A 
ATOM     10  C   LIG    1        1.128   1.757   0.244  0.00  0.00    +0.190 A 
ATOM     11  N   LIG    1        1.161   3.090   0.249  0.00  0.00    -0.510 NA
ATOM     12  C   LIG    1        0.071   3.790   0.020  0.00  0.00    +0.350 A 
ATOM     13  C   LIG    1       -1.189   3.084  -0.241  0.00  0.00    +0.480 A 
ATOM     14  O   LIG    1       -2.218   3.703  -0.456  0.00  0.00    -0.520 OA
ENDBRANCH   1  12
BRANCH   5  15
ATOM     15  N   LIG    1        2.539   7.685   1.334  0.00  0.00    -0.730 N 
ATOM     16  H   LIG    1        3.057   7.818   0.525  0.00  0.00    +0.400 HD
ATOM     17  C   LIG    1        2.943   8.244   2.492  0.00  0.00    +0.520 C 
ATOM     18  O   LIG    1        2.295   8.077   3.504  0.00  0.00    -0.540 OA
BRANCH  17  19
ATOM     19  C   LIG    1        4.199   9.075   2.530  0.00  0.00    +0.070 C 
BRANCH  19  20
ATOM     20  C   LIG    1        4.429   9.587   3.953  0.00  0.00    +0.130 C 
BRANCH  20  21
ATOM     21  C   LIG    1        5.686  10.419   3.991  0.00  0.00    +0.130 A 
ATOM     22  C   LIG    1        5.634  11.713   4.472  0.00  0.00    -0.030 A 
ATOM     23  C   LIG    1        6.797  12.468   4.507  0.00  0.00    +0.060 A 
ATOM     24  C   LIG    1        7.971  11.893   4.045  0.00  0.00    -0.040 A 
ATOM     25  C   LIG    1        7.944  10.594   3.574  0.00  0.00    +0.260 A 
ATOM     26  N   LIG    1        6.821   9.904   3.560  0.00  0.00    -0.480 NA
ENDBRANCH  20  21
ENDBRANCH  19  20
ENDBRANCH  17  19
ENDBRANCH   5  15
TORSDOF 5
