REMARK  Name = ZINCpe00000gMNQ6.0
REMARK                            x       y       z     vdW  Elec       q    Type
REMARK                         _______ _______ _______ _____ _____    ______ ____
ROOT
ATOM      1  C   LIG    1       -1.837   2.288  -1.392  0.00  0.00    +0.520 C 
ATOM      2  N   LIG    1       -3.004   2.919  -1.629  0.00  0.00    -0.720 N 
ATOM      3  H   LIG    1       -3.519   3.280  -0.890  0.00  0.00    +0.400 HD
ATOM      4  O   LIG    1       -1.193   1.837  -2.316  0.00  0.00    -0.530 OA
ENDROOT
BRANCH   2   5
ATOM      5  C   LIG    1       -3.495   3.061  -3.002  0.00  0.00    +0.250 C 
ATOM      6  C   LIG    1       -4.364   1.849  -3.401  0.00  0.00    +0.070 C 
ATOM      7  C   LIG    1       -5.448   2.416  -4.292  0.00  0.00    -0.070 A 
ATOM      8  C   LIG    1       -6.302   1.782  -5.179  0.00  0.00    +0.020 A 
ATOM      9  C   LIG    1       -7.229   2.512  -5.898  0.00  0.00    +0.030 A 
ATOM     10  C   LIG    1       -7.307   3.881  -5.734  0.00  0.00    -0.020 A 
ATOM     11  C   LIG    1       -6.454   4.520  -4.847  0.00  0.00    +0.120 A 
ATOM     12  C   LIG    1       -5.523   3.785  -4.124  0.00  0.00    -0.130 A 
ATOM     13  C   LIG    1       -4.489   4.237  -3.110  0.00  0.00    +0.100 C 
BRANCH  11  14
ATOM     14  O   LIG    1       -6.530   5.867  -4.684  0.00  0.00    -0.500 OA
ATOM     15  H   LIG    1       -7.142   6.146  -3.989  0.00  0.00    +0.390 HD
ENDBRANCH  11  14
ENDBRANCH   2   5
BRANCH   1  16
ATOM     16  C   LIG    1       -1.331   2.143   0.020  0.00  0.00    +0.160 C 
BRANCH  16  19
ATOM     17  C   LIG    1        1.131   3.601   0.010  0.00  0.00    +0.160 C 
ATOM     18  C   LIG    1        1.147   2.094   0.002  0.00  0.00    +0.230 A 
ATOM     19  C   LIG    1       -0.017   1.405   0.010  0.00  0.00    -0.260 A 
ATOM     20  C   LIG    1        0.002  -0.004   0.002  0.00  0.00    +0.580 A 
ATOM     21  N   LIG    1        1.180  -0.658  -0.013  0.00  0.00    -0.360 N 
ATOM     22  N   LIG    1        1.501  -2.022  -0.023  0.00  0.00    -0.260 NA
ATOM     23  C   LIG    1        2.805  -2.140  -0.035  0.00  0.00    +0.290 A 
ATOM     24  C   LIG    1        3.368  -0.863  -0.034  0.00  0.00    -0.120 A 
ATOM     25  C   LIG    1        2.351   0.043  -0.020  0.00  0.00    +0.300 A 
ATOM     26  O   LIG    1       -1.044  -0.629   0.008  0.00  0.00    -0.490 OA
ATOM     27  N   LIG    1        2.334   1.425  -0.013  0.00  0.00    -0.600 N 
ATOM     28  H   LIG    1        3.168   1.920  -0.019  0.00  0.00    +0.430 HD
ENDBRANCH  16  19
ENDBRANCH   1  16
TORSDOF 4
