REMARK  Name = ZINCtV00000L6kaU.0
REMARK                            x       y       z     vdW  Elec       q    Type
REMARK                         _______ _______ _______ _____ _____    ______ ____
ROOT
ATOM      1  C   LIG    1        0.260   5.251   4.215  0.00  0.00    +0.120 C 
ATOM      2  C   LIG    1       -1.136   5.595   3.765  0.00  0.00    +0.030 A 
ATOM      3  C   LIG    1       -1.845   6.575   4.380  0.00  0.00    -0.210 A 
ATOM      4  C   LIG    1       -3.151   6.879   3.939  0.00  0.00    +0.520 A 
ATOM      5  O   LIG    1       -3.723   6.222   2.919  0.00  0.00    -0.270 OA
ATOM      6  C   LIG    1       -3.074   5.234   2.262  0.00  0.00    +0.170 A 
ATOM      7  C   LIG    1       -3.687   4.572   1.212  0.00  0.00    +0.030 A 
ATOM      8  C   LIG    1       -3.017   3.560   0.541  0.00  0.00    +0.110 A 
ATOM      9  O   LIG    1       -3.358   2.763  -0.493  0.00  0.00    -0.180 OA
ATOM     10  C   LIG    1       -2.361   1.919  -0.806  0.00  0.00    +0.260 A 
ATOM     11  C   LIG    1       -1.310   2.116   0.020  0.00  0.00    -0.130 A 
ATOM     12  C   LIG    1       -1.710   3.207   0.930  0.00  0.00    -0.130 A 
ATOM     13  C   LIG    1       -1.086   3.862   1.979  0.00  0.00    +0.150 A 
ATOM     14  O   LIG    1       -3.775   7.762   4.500  0.00  0.00    -0.450 OA
ATOM     15  C   LIG    1       -1.766   4.880   2.650  0.00  0.00    -0.150 A 
ENDROOT
BRANCH  11  16
ATOM     16  C   LIG    1       -0.017   1.390   0.010  0.00  0.00    -0.030 A 
ATOM     17  C   LIG    1        1.183   2.099   0.002  0.00  0.00    +0.050 A 
ATOM     18  C   LIG    1        2.384   1.419  -0.013  0.00  0.00    -0.010 A 
ATOM     19  C   LIG    1        2.398   0.034  -0.021  0.00  0.00    +0.100 A 
ATOM     20  C   LIG    1        1.207  -0.675  -0.013  0.00  0.00    -0.010 A 
ATOM     21  F   LIG    1        3.575  -0.628  -0.036  0.00  0.00    -0.140 F 
ATOM     22  C   LIG    1        0.002  -0.004   0.002  0.00  0.00    +0.060 A 
ENDBRANCH  11  16
BRANCH   3  23
ATOM     23  C   LIG    1       -1.239   7.338   5.529  0.00  0.00    +0.160 C 
BRANCH  23  24
ATOM     24  C   LIG    1       -0.614   8.609   5.015  0.00  0.00    -0.080 A 
ATOM     25  C   LIG    1        0.711   8.617   4.620  0.00  0.00    +0.000 A 
ATOM     26  C   LIG    1        1.283   9.782   4.144  0.00  0.00    +0.000 A 
ATOM     27  C   LIG    1        0.533  10.941   4.072  0.00  0.00    +0.000 A 
ATOM     28  C   LIG    1       -0.790  10.934   4.472  0.00  0.00    +0.000 A 
ATOM     29  C   LIG    1       -1.363   9.768   4.944  0.00  0.00    +0.020 A 
ENDBRANCH  23  24
ENDBRANCH   3  23
TORSDOF 3
