REMARK  Name = ZINCqH0000008lyB.0
REMARK                            x       y       z     vdW  Elec       q    Type
REMARK                         _______ _______ _______ _____ _____    ______ ____
ROOT
ATOM      1  N   LIG    1        2.222  -1.737   5.339  0.00  0.00    -0.730 N 
ATOM      2  H   LIG    1        2.274  -2.651   5.017  0.00  0.00    +0.400 HD
ATOM      3  C   LIG    1        2.224  -0.713   4.462  0.00  0.00    +0.520 C 
ATOM      4  O   LIG    1        2.159   0.429   4.864  0.00  0.00    -0.530 OA
ENDROOT
BRANCH   1   6
ATOM      5  C   LIG    1        3.545  -1.195   7.324  0.00  0.00    +0.040 C 
ATOM      6  C   LIG    1        2.142  -1.469   6.777  0.00  0.00    +0.290 C 
BRANCH   6   7
ATOM      7  C   LIG    1        1.554  -2.667   7.478  0.00  0.00    -0.140 A 
ATOM      8  C   LIG    1        1.663  -3.922   6.910  0.00  0.00    +0.080 A 
ATOM      9  C   LIG    1        1.125  -5.021   7.553  0.00  0.00    -0.010 A 
ATOM     10  C   LIG    1        0.477  -4.865   8.767  0.00  0.00    +0.130 A 
ATOM     11  C   LIG    1        0.367  -3.608   9.336  0.00  0.00    -0.040 A 
ATOM     12  F   LIG    1       -0.049  -5.940   9.395  0.00  0.00    -0.130 F 
ATOM     13  C   LIG    1        0.911  -2.509   8.695  0.00  0.00    +0.140 A 
ATOM     14  F   LIG    1        0.810  -1.283   9.252  0.00  0.00    -0.120 F 
ENDBRANCH   6   7
ENDBRANCH   1   6
BRANCH   3  15
ATOM     15  C   LIG    1        2.306  -0.988   2.982  0.00  0.00    +0.050 C 
BRANCH  15  16
ATOM     16  C   LIG    1        2.290   0.336   2.216  0.00  0.00    +0.080 C 
BRANCH  16  17
ATOM     17  C   LIG    1        2.374   0.056   0.714  0.00  0.00    +0.010 C 
ATOM     18  C   LIG    1        2.491   1.380  -0.042  0.00  0.00    +0.110 C 
ATOM     19  C   LIG    1        1.173   2.109   0.002  0.00  0.00    -0.120 A 
ATOM     20  C   LIG    1        1.148   3.489   0.027  0.00  0.00    +0.050 A 
ATOM     21  C   LIG    1       -0.061   4.160   0.050  0.00  0.00    -0.010 A 
ATOM     22  C   LIG    1       -1.248   3.451   0.047  0.00  0.00    +0.040 A 
ATOM     23  C   LIG    1       -1.230   2.070   0.031  0.00  0.00    -0.020 A 
ATOM     24  C   LIG    1       -0.017   1.393   0.010  0.00  0.00    +0.160 A 
ATOM     25  N   LIG    1        0.002  -0.004   0.002  0.00  0.00    -0.660 N 
ATOM     26  H   LIG    1       -0.810  -0.494  -0.199  0.00  0.00    +0.410 HD
ATOM     27  C   LIG    1        1.135  -0.676   0.271  0.00  0.00    +0.530 C 
ATOM     28  O   LIG    1        1.159  -1.883   0.156  0.00  0.00    -0.520 OA
ENDBRANCH  16  17
ENDBRANCH  15  16
ENDBRANCH   3  15
TORSDOF 5
