REMARK  Name = ZINCrD0000074gAC.0
REMARK                            x       y       z     vdW  Elec       q    Type
REMARK                         _______ _______ _______ _____ _____    ______ ____
ROOT
ATOM      1  N   LIG    1        2.831   0.495   5.904  0.00  0.00    -0.690 N 
ATOM      2  H   LIG    1        2.580   0.815   6.785  0.00  0.00    +0.400 HD
ATOM      3  C   LIG    1        3.478  -0.679   5.771  0.00  0.00    +0.700 C 
ATOM      4  N   LIG    1        3.690  -1.457   6.851  0.00  0.00    -0.620 N 
ATOM      5  C   LIG    1        3.126  -1.094   8.158  0.00  0.00    +0.260 C 
ATOM      6  C   LIG    1        2.324  -2.283   8.697  0.00  0.00    +0.010 C 
ATOM      7  C   LIG    1        3.217  -3.526   8.722  0.00  0.00    +0.020 C 
ATOM      8  C   LIG    1        3.673  -3.856   7.299  0.00  0.00    +0.020 C 
ATOM      9  C   LIG    1        4.486  -2.688   6.743  0.00  0.00    +0.320 C 
ATOM     10  O   LIG    1        3.870  -1.038   4.678  0.00  0.00    -0.540 OA
ENDROOT
BRANCH   1  14
ATOM     11  C   LIG    1        1.906   2.759   2.525  0.00  0.00    +0.090 A 
ATOM     12  C   LIG    1        1.035   2.739   3.606  0.00  0.00    -0.020 A 
ATOM     13  C   LIG    1        1.339   1.984   4.722  0.00  0.00    +0.000 A 
ATOM     14  C   LIG    1        2.520   1.256   4.768  0.00  0.00    +0.140 A 
ATOM     15  C   LIG    1        3.393   1.281   3.689  0.00  0.00    +0.050 A 
ATOM     16  C   LIG    1        3.087   2.030   2.570  0.00  0.00    +0.000 A 
BRANCH  11  20
ATOM     17  C   LIG    1       -1.341   5.726   0.449  0.00  0.00    +0.050 C 
ATOM     18  C   LIG    1        0.035   5.071   0.320  0.00  0.00    +0.160 C 
ATOM     19  C   LIG    1        0.307   4.207   1.554  0.00  0.00    +0.170 C 
ATOM     20  N   LIG    1        1.596   3.519   1.391  0.00  0.00    -0.490 N 
ATOM     21  C   LIG    1        1.592   2.684   0.181  0.00  0.00    +0.160 C 
ATOM     22  C   LIG    1        1.307   3.564  -1.039  0.00  0.00    +0.220 C 
ATOM     23  O   LIG    1        0.065   4.247  -0.849  0.00  0.00    -0.380 OA
ENDBRANCH  11  20
ENDBRANCH   1  14
BRANCH   9  24
ATOM     24  C   LIG    1        4.818  -2.949   5.296  0.00  0.00    -0.210 A 
ATOM     25  C   LIG    1        6.051  -2.902   4.742  0.00  0.00    +0.220 A 
ATOM     26  N   LIG    1        5.924  -3.199   3.431  0.00  0.00    -0.480 N 
ATOM     27  H   LIG    1        6.645  -3.243   2.784  0.00  0.00    +0.430 HD
ATOM     28  N   LIG    1        4.567  -3.426   3.170  0.00  0.00    -0.300 NA
ATOM     29  C   LIG    1        3.905  -3.276   4.289  0.00  0.00    +0.280 A 
ENDBRANCH   9  24
TORSDOF 3
