REMARK  Name = ZINCkj00000y7BJN.1
REMARK                            x       y       z     vdW  Elec       q    Type
REMARK                         _______ _______ _______ _____ _____    ______ ____
ROOT
ATOM      1  C   LIG    1       -3.283  -1.223   1.173  0.00  0.00    +0.130 C 
ATOM      2  C   LIG    1       -3.067  -2.719   0.931  0.00  0.00    +0.000 C 
ATOM      3  C   LIG    1       -2.252  -2.909  -0.351  0.00  0.00    +0.070 C 
ATOM      4  C   LIG    1       -0.923  -2.162  -0.221  0.00  0.00    +0.210 C 
ATOM      5  N   LIG    1       -1.183  -0.735   0.009  0.00  0.00    -0.450 NA
ATOM      6  C   LIG    1       -1.924  -0.524   1.259  0.00  0.00    +0.260 C 
ENDROOT
BRANCH   5   7
ATOM      7  C   LIG    1        0.002  -0.004   0.002  0.00  0.00    +0.240 C 
ATOM      8  C   LIG    1        1.239  -0.647   0.025  0.00  0.00    +0.010 C 
ATOM      9  C   LIG    1        2.390   0.113   0.017  0.00  0.00    +0.380 C 
ATOM     10  N   LIG    1        2.331   1.431  -0.011  0.00  0.00    -0.460 NA
ATOM     11  C   LIG    1        1.180   2.078  -0.033  0.00  0.00    +0.380 C 
ATOM     12  H   LIG    1        3.157   1.939  -0.015  0.00  0.00    +0.460 HD
ATOM     13  C   LIG    1       -0.017   1.391  -0.027  0.00  0.00    -0.090 C 
ATOM     14 CL   LIG    1       -1.525   2.251  -0.057  0.00  0.00    +0.040 Cl
ENDBRANCH   5   7
BRANCH   1  15
ATOM     15  O   LIG    1       -4.036  -0.668   0.092  0.00  0.00    -0.540 OA
ATOM     16  H   LIG    1       -4.911  -1.065  -0.021  0.00  0.00    +0.400 HD
ENDBRANCH   1  15
BRANCH   1  17
ATOM     17  C   LIG    1       -4.045  -1.022   2.484  0.00  0.00    +0.320 C 
BRANCH  17  18
ATOM     18  N   LIG    1       -5.293  -1.789   2.446  0.00  0.00    -0.300 N 
ATOM     19  C   LIG    1       -5.686  -2.707   3.358  0.00  0.00    +0.150 A 
ATOM     20  C   LIG    1       -6.889  -3.165   2.938  0.00  0.00    +0.160 A 
ATOM     21  N   LIG    1       -7.168  -2.513   1.804  0.00  0.00    -0.250 NA
ATOM     22  N   LIG    1       -6.205  -1.700   1.543  0.00  0.00    -0.100 NA
ENDBRANCH  17  18
ENDBRANCH   1  17
TORSDOF 4
