REMARK  Name = ZINCrH000004rtTG.0
REMARK                            x       y       z     vdW  Elec       q    Type
REMARK                         _______ _______ _______ _____ _____    ______ ____
ROOT
ATOM      1  C   LIG    1       -0.603   3.018   5.743  0.00  0.00    +0.320 A 
ATOM      2  C   LIG    1        0.104   3.365   6.888  0.00  0.00    -0.020 A 
ATOM      3  C   LIG    1       -0.580   3.909   7.962  0.00  0.00    -0.040 A 
ATOM      4  C   LIG    1       -1.952   4.088   7.851  0.00  0.00    -0.050 A 
ATOM      5  C   LIG    1       -2.589   3.720   6.683  0.00  0.00    +0.300 A 
ATOM      6  N   LIG    1       -1.910   3.208   5.674  0.00  0.00    -0.520 NA
ENDROOT
BRANCH   1   7
ATOM      7  O   LIG    1        0.056   2.484   4.684  0.00  0.00    -0.250 OA
BRANCH   7  12
ATOM      8  C   LIG    1       -2.862   1.593  -0.051  0.00  0.00    +0.090 C 
ATOM      9  C   LIG    1       -2.078   1.831   1.214  0.00  0.00    -0.080 A 
ATOM     10  C   LIG    1       -1.646   0.758   1.970  0.00  0.00    +0.030 A 
ATOM     11  C   LIG    1       -0.932   0.974   3.134  0.00  0.00    +0.010 A 
ATOM     12  C   LIG    1       -0.645   2.269   3.540  0.00  0.00    +0.090 A 
ATOM     13  C   LIG    1       -1.076   3.344   2.776  0.00  0.00    +0.010 A 
ATOM     14  C   LIG    1       -1.789   3.123   1.614  0.00  0.00    -0.070 A 
ATOM     15  C   LIG    1       -2.257   4.291   0.784  0.00  0.00    +0.090 C 
ENDBRANCH   7  12
ENDBRANCH   1   7
BRANCH   3  16
ATOM     16  C   LIG    1        0.150   4.299   9.222  0.00  0.00    +0.350 C 
BRANCH  16  17
ATOM     17  N   LIG    1        0.592   5.691   9.119  0.00  0.00    -0.690 N 
ATOM     18  H   LIG    1        0.397   6.205   8.319  0.00  0.00    +0.410 HD
BRANCH  17  19
ATOM     19  C   LIG    1        1.287   6.274  10.161  0.00  0.00    +0.520 A 
ATOM     20  C   LIG    1        1.720   7.611  10.081  0.00  0.00    -0.330 A 
ATOM     21  C   LIG    1        1.622   8.630   9.109  0.00  0.00    +0.290 A 
ATOM     22  N   LIG    1        2.213   9.697   9.568  0.00  0.00    -0.250 NA
ATOM     23  N   LIG    1        2.723   9.440  10.847  0.00  0.00    -0.380 N 
ATOM     24  C   LIG    1        3.453  10.393  11.687  0.00  0.00    +0.370 C 
ATOM     25  C   LIG    1        2.424   8.151  11.175  0.00  0.00    +0.370 A 
ATOM     26  N   LIG    1        2.651   7.380  12.237  0.00  0.00    -0.580 NA
ATOM     27  C   LIG    1        2.227   6.135  12.265  0.00  0.00    +0.590 A 
ATOM     28  N   LIG    1        1.558   5.588  11.266  0.00  0.00    -0.610 NA
ENDBRANCH  17  19
ENDBRANCH  16  17
ENDBRANCH   3  16
TORSDOF 5
