REMARK  Name = ZINCqH0000003b9w.0
REMARK                            x       y       z     vdW  Elec       q    Type
REMARK                         _______ _______ _______ _____ _____    ______ ____
ROOT
ATOM      1  N   LIG    1       -0.016   1.344   0.009  0.00  0.00    -0.630 N 
ATOM      2  C   LIG    1        0.002  -0.004   0.002  0.00  0.00    +0.710 C 
ATOM      3  N   LIG    1       -1.156  -0.694   0.009  0.00  0.00    -0.740 N 
ATOM      4  H   LIG    1       -2.002  -0.220   0.020  0.00  0.00    +0.400 HD
ATOM      5  O   LIG    1        1.063  -0.598  -0.011  0.00  0.00    -0.590 OA
ATOM      6  C   LIG    1       -1.295   2.059   0.019  0.00  0.00    +0.280 C 
ENDROOT
BRANCH   1   7
ATOM      7  C   LIG    1        1.242   2.093   0.001  0.00  0.00    +0.350 C 
BRANCH   7  10
ATOM      8  N   LIG    1        3.457   3.219  -2.860  0.00  0.00    -0.480 N 
ATOM      9  C   LIG    1        3.045   3.036  -1.463  0.00  0.00    +0.220 C 
ATOM     10  C   LIG    1        1.667   2.362  -1.444  0.00  0.00    +0.120 C 
ATOM     11  O   LIG    1        0.733   3.251  -2.065  0.00  0.00    -0.300 OA
ATOM     12  C   LIG    1        1.128   3.835  -3.230  0.00  0.00    +0.090 A 
ATOM     13  C   LIG    1        0.172   4.447  -4.027  0.00  0.00    -0.010 A 
ATOM     14  C   LIG    1        0.540   5.054  -5.213  0.00  0.00    +0.030 A 
ATOM     15  C   LIG    1        1.864   5.052  -5.609  0.00  0.00    -0.010 A 
ATOM     16  C   LIG    1        2.822   4.443  -4.822  0.00  0.00    +0.040 A 
ATOM     17  C   LIG    1        2.460   3.829  -3.628  0.00  0.00    +0.030 A 
BRANCH   8  19
ATOM     18  C   LIG    1        4.527   2.205  -4.816  0.00  0.00    +0.040 C 
ATOM     19  C   LIG    1        3.874   1.943  -3.457  0.00  0.00    +0.170 C 
ENDBRANCH   8  19
ENDBRANCH   7  10
ENDBRANCH   1   7
BRANCH   3  20
ATOM     20  C   LIG    1       -1.136  -2.159   0.001  0.00  0.00    +0.340 C 
BRANCH  20  21
ATOM     21  C   LIG    1       -2.550  -2.680   0.012  0.00  0.00    -0.100 A 
ATOM     22  C   LIG    1       -3.209  -2.913  -1.180  0.00  0.00    +0.030 A 
ATOM     23  C   LIG    1       -4.506  -3.392  -1.171  0.00  0.00    +0.030 A 
ATOM     24  C   LIG    1       -5.144  -3.639   0.030  0.00  0.00    +0.040 A 
ATOM     25  C   LIG    1       -4.484  -3.406   1.224  0.00  0.00    -0.040 A 
ATOM     26 CL   LIG    1       -5.284  -3.715   2.733  0.00  0.00    -0.060 Cl
ATOM     27  C   LIG    1       -3.185  -2.931   1.214  0.00  0.00    +0.050 A 
ENDBRANCH  20  21
ENDBRANCH   3  20
TORSDOF 5
