REMARK  Name = ZINCrH000004uj29.0
REMARK                            x       y       z     vdW  Elec       q    Type
REMARK                         _______ _______ _______ _____ _____    ______ ____
ROOT
ATOM      1  C   LIG    1        4.971   1.148   0.189  0.00  0.00    +0.160 A 
ATOM      2  C   LIG    1        4.964  -0.238   0.282  0.00  0.00    +0.010 A 
ATOM      3  C   LIG    1        3.766  -0.928   0.294  0.00  0.00    +0.040 A 
ATOM      4  C   LIG    1        2.570  -0.245   0.221  0.00  0.00    +0.030 A 
ATOM      5  C   LIG    1        2.566   1.147   0.122  0.00  0.00    -0.120 A 
ATOM      6  C   LIG    1        3.775   1.844   0.109  0.00  0.00    +0.100 A 
ENDROOT
BRANCH   1   9
ATOM      7  O   LIG    1        5.289   3.571   1.246  0.00  0.00    -0.560 OA
ATOM      8  C   LIG    1        6.280   3.048   0.772  0.00  0.00    +0.700 C 
ATOM      9  N   LIG    1        6.186   1.843   0.177  0.00  0.00    -0.690 N 
ATOM     10  H   LIG    1        6.962   1.456  -0.259  0.00  0.00    +0.410 HD
ATOM     11  N   LIG    1        7.471   3.675   0.842  0.00  0.00    -0.740 N 
ATOM     12  H   LIG    1        8.261   3.258   0.464  0.00  0.00    +0.400 HD
BRANCH  11  13
ATOM     13  C   LIG    1        7.572   4.986   1.489  0.00  0.00    +0.290 C 
BRANCH  13  14
ATOM     14  C   LIG    1        9.022   5.471   1.433  0.00  0.00    +0.020 C 
BRANCH  14  15
ATOM     15  C   LIG    1        9.128   6.840   2.108  0.00  0.00    +0.170 C 
ATOM     16  C   LIG    1       10.562   7.390   1.956  0.00  0.00    +0.010 C 
ATOM     17  C   LIG    1       10.811   8.051   3.339  0.00  0.00    +0.000 C 
ATOM     18  C   LIG    1       10.018   7.097   4.267  0.00  0.00    +0.200 C 
ATOM     19  O   LIG    1        8.860   6.712   3.510  0.00  0.00    -0.380 OA
ENDBRANCH  14  15
ENDBRANCH  13  14
ENDBRANCH  11  13
ENDBRANCH   1   9
BRANCH   5  20
ATOM     20  C   LIG    1        1.286   1.882   0.037  0.00  0.00    +0.560 C 
ATOM     21  N   LIG    1        0.120   1.207   0.050  0.00  0.00    -0.670 N 
ATOM     22  H   LIG    1        0.121   0.237   0.047  0.00  0.00    +0.410 HD
ATOM     23  O   LIG    1        1.285   3.095  -0.044  0.00  0.00    -0.500 OA
BRANCH  21  24
ATOM     24  C   LIG    1       -1.092   1.904   0.062  0.00  0.00    +0.180 A 
ATOM     25  C   LIG    1       -2.180   1.397   0.760  0.00  0.00    -0.030 A 
ATOM     26  C   LIG    1       -3.375   2.090   0.774  0.00  0.00    +0.070 A 
ATOM     27  C   LIG    1       -3.493   3.283   0.087  0.00  0.00    -0.030 A 
ATOM     28  C   LIG    1       -2.411   3.790  -0.615  0.00  0.00    +0.120 A 
ATOM     29  F   LIG    1       -2.529   4.957  -1.286  0.00  0.00    -0.140 F 
ATOM     30  C   LIG    1       -1.211   3.103  -0.629  0.00  0.00    -0.010 A 
ENDBRANCH  21  24
ENDBRANCH   5  20
TORSDOF 6
