REMARK  Name = ZINCAx0000000ceW.0
REMARK                            x       y       z     vdW  Elec       q    Type
REMARK                         _______ _______ _______ _____ _____    ______ ____
ROOT
ATOM      1  C   LIG    1       -0.627  -4.926   0.774  0.00  0.00    -0.100 C 
ATOM      2  C   LIG    1       -0.662  -6.270   0.653  0.00  0.00    +0.140 C 
ENDROOT
BRANCH   2   3
ATOM      3  C   LIG    1       -1.353  -7.081   1.666  0.00  0.00    -0.140 A 
ATOM      4  C   LIG    1       -1.976  -6.463   2.756  0.00  0.00    +0.130 A 
ATOM      5  C   LIG    1       -2.622  -7.227   3.701  0.00  0.00    -0.090 A 
ATOM      6  C   LIG    1       -2.657  -8.611   3.575  0.00  0.00    +0.240 A 
ATOM      7  C   LIG    1       -2.039  -9.230   2.494  0.00  0.00    -0.710 A 
ATOM      8  C   LIG    1       -1.396  -8.475   1.540  0.00  0.00    +0.200 A 
BRANCH   7   9
ATOM      9  S   LIG    1       -2.088 -10.985   2.341  0.00  0.00    +2.700 S 
ATOM     10  O   LIG    1       -1.349 -11.306   1.170  0.00  0.00    -0.950 OA
ATOM     11  O   LIG    1       -3.443 -11.367   2.535  0.00  0.00    -0.940 OA
BRANCH   9  12
ATOM     12  N   LIG    1       -1.238 -11.612   3.617  0.00  0.00    -0.990 NA
ATOM     13  C   LIG    1        0.203 -11.870   3.501  0.00  0.00    +0.290 C 
ATOM     14  C   LIG    1        0.921 -11.162   4.660  0.00  0.00    -0.000 C 
ATOM     15  C   LIG    1        0.306 -11.614   5.986  0.00  0.00    +0.010 C 
ATOM     16  C   LIG    1       -1.173 -11.222   6.024  0.00  0.00    +0.000 C 
ATOM     17  C   LIG    1       -1.913 -11.926   4.883  0.00  0.00    +0.290 C 
ENDBRANCH   9  12
ENDBRANCH   7   9
BRANCH   6  18
ATOM     18  O   LIG    1       -3.295  -9.359   4.510  0.00  0.00    -0.300 OA
ATOM     19  C   LIG    1       -3.908  -8.659   5.594  0.00  0.00    +0.250 C 
ENDBRANCH   6  18
ENDBRANCH   2   3
BRANCH   1  22
ATOM     20  N   LIG    1        0.096  -2.778  -0.113  0.00  0.00    -0.660 N 
ATOM     21  H   LIG    1       -0.265  -2.352   0.681  0.00  0.00    +0.420 HD
ATOM     22  C   LIG    1        0.061  -4.120  -0.234  0.00  0.00    +0.550 C 
ATOM     23  O   LIG    1        0.602  -4.660  -1.181  0.00  0.00    -0.520 OA
BRANCH  20  29
ATOM     24  C   LIG    1        1.164  -0.733  -0.848  0.00  0.00    +0.150 A 
ATOM     25  C   LIG    1        1.708   0.036  -1.863  0.00  0.00    -0.070 A 
ATOM     26  C   LIG    1        1.751  -0.454  -3.155  0.00  0.00    +0.150 A 
ATOM     27  C   LIG    1        1.243  -1.708  -3.440  0.00  0.00    -0.690 A 
ATOM     28  C   LIG    1        0.694  -2.480  -2.434  0.00  0.00    +0.170 A 
ATOM     29  C   LIG    1        0.652  -1.997  -1.134  0.00  0.00    +0.100 A 
BRANCH  27  30
ATOM     30  S   LIG    1        1.296  -2.322  -5.091  0.00  0.00    +2.690 S 
ATOM     31  O   LIG    1        1.244  -3.739  -4.993  0.00  0.00    -0.950 OA
ATOM     32  O   LIG    1        2.347  -1.626  -5.745  0.00  0.00    -0.950 OA
BRANCH  30  33
ATOM     33  N   LIG    1       -0.108  -1.853  -5.833  0.00  0.00    -1.000 NA
ATOM     34  C   LIG    1       -1.290  -2.719  -5.780  0.00  0.00    +0.300 C 
ATOM     35  C   LIG    1       -0.170  -0.574  -6.543  0.00  0.00    +0.300 C 
ENDBRANCH  30  33
ENDBRANCH  27  30
BRANCH  24  37
ATOM     36  C   LIG    1        1.669   1.048   0.644  0.00  0.00    +0.250 C 
ATOM     37  O   LIG    1        1.126  -0.255   0.425  0.00  0.00    -0.310 OA
ENDBRANCH  24  37
ENDBRANCH  20  29
ENDBRANCH   1  22
TORSDOF 9
