REMARK  Name = ZINCrg00001JduS2.0
REMARK                            x       y       z     vdW  Elec       q    Type
REMARK                         _______ _______ _______ _____ _____    ______ ____
ROOT
ATOM      1  C   LIG    1       -3.997   2.704   0.010  0.00  0.00    -0.010 C 
ATOM      2  C   LIG    1       -3.109   2.957  -1.211  0.00  0.00    +0.070 C 
ATOM      3  C   LIG    1       -1.943   1.965  -1.202  0.00  0.00    +0.200 C 
ATOM      4  N   LIG    1       -1.167   2.132   0.034  0.00  0.00    -0.490 N 
ATOM      5  C   LIG    1       -1.987   1.848   1.218  0.00  0.00    +0.190 C 
ATOM      6  C   LIG    1       -3.154   2.836   1.281  0.00  0.00    +0.060 C 
ENDROOT
BRANCH   4   7
ATOM      7  C   LIG    1       -0.024   1.338   0.016  0.00  0.00    +0.340 A 
ATOM      8  C   LIG    1        0.010  -0.022  -0.051  0.00  0.00    -0.220 A 
ATOM      9  C   LIG    1        1.351  -0.417  -0.039  0.00  0.00    +0.140 A 
ATOM     10  N   LIG    1        2.096   0.656   0.032  0.00  0.00    -0.260 NA
ATOM     11  C   LIG    1        1.853  -1.837  -0.097  0.00  0.00    +0.170 C 
ATOM     12  N   LIG    1        1.255   1.776   0.068  0.00  0.00    -0.330 N 
ATOM     13  C   LIG    1        1.685   3.174   0.147  0.00  0.00    +0.400 C 
BRANCH   8  14
ATOM     14  N   LIG    1       -1.163  -0.921  -0.123  0.00  0.00    +0.050 N 
ATOM     15  O   LIG    1       -1.671  -1.343   0.901  0.00  0.00    -0.140 OA
ATOM     16  O   LIG    1       -1.622  -1.239  -1.206  0.00  0.00    -0.140 OA
ENDBRANCH   8  14
ENDBRANCH   4   7
BRANCH   1  21
ATOM     17  C   LIG    1       -6.030   3.483   1.266  0.00  0.00    -0.030 C 
ATOM     18  C   LIG    1       -5.972   4.814   2.054  0.00  0.00    +0.020 C 
ATOM     19  C   LIG    1       -5.520   5.818   0.963  0.00  0.00    +0.210 C 
ATOM     20  O   LIG    1       -4.587   5.055   0.169  0.00  0.00    -0.360 OA
ATOM     21  C   LIG    1       -5.131   3.731   0.040  0.00  0.00    +0.200 C 
BRANCH  17  24
ATOM     22  N   LIG    1       -8.394   2.942   1.756  0.00  0.00    -0.730 N 
ATOM     23  H   LIG    1       -8.168   2.954   2.699  0.00  0.00    +0.410 HD
ATOM     24  C   LIG    1       -7.443   3.188   0.833  0.00  0.00    +0.520 C 
ATOM     25  O   LIG    1       -7.725   3.173  -0.347  0.00  0.00    -0.530 OA
BRANCH  22  26
ATOM     26  C   LIG    1       -9.767   2.655   1.335  0.00  0.00    +0.410 C 
BRANCH  26  28
ATOM     27  C   LIG    1      -11.275   2.237   3.468  0.00  0.00    +0.060 C 
ATOM     28  C   LIG    1      -10.606   2.422   2.522  0.00  0.00    -0.220 C 
ENDBRANCH  26  28
ENDBRANCH  22  26
ENDBRANCH  17  24
ENDBRANCH   1  21
TORSDOF 6
