REMARK  Name = ZINCrg00001JduNj.0
REMARK                            x       y       z     vdW  Elec       q    Type
REMARK                         _______ _______ _______ _____ _____    ______ ____
ROOT
ATOM      1  C   LIG    1       -0.234   1.656   2.438  0.00  0.00    +0.620 C 
ATOM      2  N   LIG    1       -0.737   1.578   1.191  0.00  0.00    -0.600 N 
ATOM      3  C   LIG    1       -2.098   1.971   0.792  0.00  0.00    +0.280 C 
ATOM      4  C   LIG    1       -2.234   1.685  -0.723  0.00  0.00    +0.000 C 
ATOM      5  C   LIG    1       -3.018   0.397  -0.896  0.00  0.00    +0.030 C 
ATOM      6  C   LIG    1       -2.794  -0.234  -2.263  0.00  0.00    +0.020 C 
ATOM      7  C   LIG    1       -1.300  -0.532  -2.429  0.00  0.00    +0.020 C 
ATOM      8  C   LIG    1       -0.544   0.792  -2.442  0.00  0.00    +0.040 C 
ATOM      9  C   LIG    1       -0.793   1.614  -1.208  0.00  0.00    +0.190 C 
ATOM     10  C   LIG    1       -0.013   1.086   0.008  0.00  0.00    +0.280 C 
ATOM     11  O   LIG    1        0.909   1.302   2.656  0.00  0.00    -0.520 OA
ENDROOT
BRANCH   1  14
ATOM     12  C   LIG    1        0.707   1.932   5.416  0.00  0.00    +0.190 C 
ATOM     13  C   LIG    1       -0.642   2.287   4.846  0.00  0.00    -0.190 A 
ATOM     14  C   LIG    1       -1.069   2.171   3.539  0.00  0.00    -0.040 A 
ATOM     15  N   LIG    1       -2.323   2.584   3.394  0.00  0.00    -0.210 NA
ATOM     16  N   LIG    1       -2.944   3.003   4.425  0.00  0.00    -0.290 NA
ATOM     17  S   LIG    1       -2.007   2.930   5.675  0.00  0.00    +0.460 S 
ENDBRANCH   1  14
BRANCH   9  18
ATOM     18  N   LIG    1       -0.350   2.985  -1.471  0.00  0.00    -0.720 N 
ATOM     19  H   LIG    1       -0.983   3.718  -1.419  0.00  0.00    +0.400 HD
ATOM     20  C   LIG    1        0.938   3.227  -1.786  0.00  0.00    +0.510 C 
ATOM     21  O   LIG    1        1.730   2.311  -1.851  0.00  0.00    -0.520 OA
BRANCH  20  22
ATOM     22  C   LIG    1        1.395   4.638  -2.058  0.00  0.00    +0.230 C 
ATOM     23  C   LIG    1        1.596   5.368  -0.729  0.00  0.00    +0.040 C 
ATOM     24  C   LIG    1        2.270   6.717  -1.008  0.00  0.00    +0.040 C 
ATOM     25  C   LIG    1        3.693   6.453  -1.505  0.00  0.00    +0.070 C 
ATOM     26  C   LIG    1        3.670   5.421  -2.596  0.00  0.00    +0.520 C 
ATOM     27  O   LIG    1        4.641   5.327  -3.318  0.00  0.00    -0.550 OA
ATOM     28  N   LIG    1        2.640   4.604  -2.815  0.00  0.00    -0.700 N 
ATOM     29  H   LIG    1        2.724   3.945  -3.522  0.00  0.00    +0.410 HD
ENDBRANCH  20  22
ENDBRANCH   9  18
TORSDOF 3
