REMARK  Name = ZINCtV00000jXhNT.0
REMARK                            x       y       z     vdW  Elec       q    Type
REMARK                         _______ _______ _______ _____ _____    ______ ____
ROOT
ATOM      1  C   LIG    1        2.015   4.279   0.730  0.00  0.00    -0.030 A 
ATOM      2  C   LIG    1        1.676   5.587   0.434  0.00  0.00    +0.060 A 
ATOM      3  C   LIG    1        0.586   5.496  -0.451  0.00  0.00    +0.070 A 
ATOM      4  N   LIG    1        0.334   4.218  -0.644  0.00  0.00    -0.240 NA
ATOM      5  N   LIG    1        1.149   3.486   0.025  0.00  0.00    -0.210 N 
ENDROOT
BRANCH   3   6
ATOM      6  C   LIG    1       -0.147   6.636  -1.056  0.00  0.00    -0.010 A 
ATOM      7  C   LIG    1        0.225   7.945  -0.758  0.00  0.00    +0.030 A 
ATOM      8  C   LIG    1       -0.457   9.001  -1.328  0.00  0.00    +0.010 A 
ATOM      9  C   LIG    1       -1.516   8.761  -2.186  0.00  0.00    +0.010 A 
ATOM     10  C   LIG    1       -1.893   7.463  -2.481  0.00  0.00    +0.010 A 
ATOM     11  C   LIG    1       -1.214   6.400  -1.921  0.00  0.00    +0.040 A 
ENDBRANCH   3   6
BRANCH   5  12
ATOM     12  C   LIG    1        1.148   2.086   0.038  0.00  0.00    +0.110 A 
ATOM     13  C   LIG    1        1.237   1.401   1.242  0.00  0.00    +0.060 A 
ATOM     14  C   LIG    1        1.235   0.019   1.251  0.00  0.00    +0.030 A 
ATOM     15  C   LIG    1        1.146  -0.681   0.062  0.00  0.00    +0.030 A 
ATOM     16  C   LIG    1        1.057  -0.001  -1.139  0.00  0.00    +0.020 A 
ATOM     17  C   LIG    1        1.059   1.379  -1.155  0.00  0.00    +0.040 A 
ENDBRANCH   5  12
BRANCH   1  19
ATOM     18  O   LIG    1        3.721   4.640   2.274  0.00  0.00    -0.480 OA
ATOM     19  C   LIG    1        3.094   3.829   1.621  0.00  0.00    +0.540 C 
BRANCH  19  20
ATOM     20  O   LIG    1        3.387   2.517   1.715  0.00  0.00    -0.330 OA
BRANCH  20  21
ATOM     21  C   LIG    1        4.465   2.145   2.615  0.00  0.00    +0.280 C 
BRANCH  21  22
ATOM     22  C   LIG    1        4.647   0.649   2.589  0.00  0.00    -0.080 A 
ATOM     23  C   LIG    1        3.949  -0.149   3.477  0.00  0.00    -0.000 A 
ATOM     24  C   LIG    1        4.113  -1.522   3.449  0.00  0.00    +0.040 A 
ATOM     25  C   LIG    1        4.984  -2.096   2.542  0.00  0.00    +0.070 A 
ATOM     26  C   LIG    1        5.686  -1.299   1.658  0.00  0.00    +0.030 A 
ATOM     27 CL   LIG    1        2.861   0.572   4.621  0.00  0.00    -0.050 Cl
ATOM     28  C   LIG    1        5.519   0.074   1.681  0.00  0.00    -0.000 A 
ATOM     29 CL   LIG    1        6.401   1.076   0.571  0.00  0.00    -0.050 Cl
ENDBRANCH  21  22
ENDBRANCH  20  21
ENDBRANCH  19  20
ENDBRANCH   1  19
TORSDOF 6
