REMARK  Name = ZINCrg000000s6yG.0
REMARK                            x       y       z     vdW  Elec       q    Type
REMARK                         _______ _______ _______ _____ _____    ______ ____
ROOT
ATOM      1  C   LIG    1        6.621  -0.037  -3.011  0.00  0.00    +0.110 C 
ENDROOT
BRANCH   1   2
ATOM      2  C   LIG    1        6.831   1.048  -4.035  0.00  0.00    +0.540 C 
ATOM      3  N   LIG    1        7.990   1.114  -4.720  0.00  0.00    -0.710 N 
ATOM      4  H   LIG    1        8.689   0.462  -4.553  0.00  0.00    +0.420 HD
ATOM      5  O   LIG    1        5.957   1.863  -4.243  0.00  0.00    -0.520 OA
BRANCH   3   6
ATOM      6  C   LIG    1        8.194   2.169  -5.715  0.00  0.00    +0.240 C 
ATOM      7  C   LIG    1        7.597   1.729  -7.054  0.00  0.00    +0.060 C 
BRANCH   6   8
ATOM      8  C   LIG    1        9.669   2.424  -5.882  0.00  0.00    +0.520 C 
ATOM      9  N   LIG    1       10.096   3.572  -6.445  0.00  0.00    -0.610 N 
ATOM     10  C   LIG    1        9.146   4.635  -6.808  0.00  0.00    +0.260 C 
ATOM     11  C   LIG    1        9.658   5.958  -6.216  0.00  0.00    +0.220 C 
ATOM     12  O   LIG    1       11.016   6.156  -6.617  0.00  0.00    -0.380 OA
ATOM     13  C   LIG    1       11.920   5.158  -6.136  0.00  0.00    +0.220 C 
ATOM     14  C   LIG    1       11.524   3.797  -6.719  0.00  0.00    +0.260 C 
ATOM     15  O   LIG    1       10.474   1.595  -5.511  0.00  0.00    -0.530 OA
ENDBRANCH   6   8
ENDBRANCH   3   6
ENDBRANCH   1   2
BRANCH   1  16
ATOM     16  S   LIG    1        4.980   0.142  -2.269  0.00  0.00    +0.090 S 
BRANCH  16  21
ATOM     17  N   LIG    1        3.998  -1.581  -0.291  0.00  0.00    -0.420 N 
ATOM     18  C   LIG    1        4.463  -2.685   0.374  0.00  0.00    +0.400 A 
ATOM     19  N   LIG    1        5.663  -2.928  -0.071  0.00  0.00    -0.280 NA
ATOM     20  N   LIG    1        5.988  -2.063  -0.964  0.00  0.00    -0.290 NA
ATOM     21  C   LIG    1        5.003  -1.214  -1.144  0.00  0.00    +0.140 A 
BRANCH  17  26
ATOM     22  C   LIG    1       -1.050   0.936   0.340  0.00  0.00    +0.100 C 
ATOM     23  C   LIG    1        0.290   0.267   0.177  0.00  0.00    -0.070 A 
ATOM     24  C   LIG    1        1.448   1.022   0.218  0.00  0.00    +0.040 A 
ATOM     25  C   LIG    1        2.678   0.413   0.063  0.00  0.00    +0.040 A 
ATOM     26  C   LIG    1        2.751  -0.959  -0.134  0.00  0.00    +0.100 A 
ATOM     27  C   LIG    1        1.587  -1.715  -0.174  0.00  0.00    +0.030 A 
ATOM     28  C   LIG    1        0.360  -1.100  -0.018  0.00  0.00    +0.040 A 
ENDBRANCH  17  26
ENDBRANCH  16  21
ENDBRANCH   1  16
TORSDOF 6
