REMARK  Name = ZINCvU00000008OT.0
REMARK                            x       y       z     vdW  Elec       q    Type
REMARK                         _______ _______ _______ _____ _____    ______ ____
ROOT
ATOM      1  C   LIG    1       -3.071   3.598   6.201  0.00  0.00    +0.500 C 
ATOM      2  N   LIG    1       -3.411   2.388   5.715  0.00  0.00    -0.640 N 
ATOM      3  H   LIG    1       -3.772   1.711   6.309  0.00  0.00    +0.420 HD
ATOM      4  O   LIG    1       -2.620   4.444   5.459  0.00  0.00    -0.450 OA
ENDROOT
BRANCH   2   5
ATOM      5  C   LIG    1       -3.244   2.109   4.364  0.00  0.00    +0.270 A 
ATOM      6  N   LIG    1       -2.772   2.939   3.488  0.00  0.00    -0.470 NA
ATOM      7  C   LIG    1       -2.675   2.506   2.245  0.00  0.00    +0.260 A 
ATOM      8  C   LIG    1       -3.097   1.253   2.060  0.00  0.00    -0.240 A 
ATOM      9  S   LIG    1       -3.632   0.622   3.615  0.00  0.00    +0.130 S 
BRANCH   8  10
ATOM     10  C   LIG    1       -3.106   0.506   0.751  0.00  0.00    +0.200 C 
BRANCH  10  11
ATOM     11  C   LIG    1       -1.796  -0.216   0.575  0.00  0.00    -0.060 A 
ATOM     12  C   LIG    1       -1.709  -1.567   0.854  0.00  0.00    +0.050 A 
ATOM     13  C   LIG    1       -0.507  -2.232   0.688  0.00  0.00    -0.030 A 
ATOM     14  C   LIG    1        0.608  -1.545   0.242  0.00  0.00    +0.040 A 
ATOM     15  C   LIG    1        0.520  -0.194  -0.038  0.00  0.00    +0.060 A 
ATOM     16 CL   LIG    1       -0.398  -3.929   1.039  0.00  0.00    -0.060 Cl
ATOM     17  C   LIG    1       -0.681   0.471   0.129  0.00  0.00    -0.030 A 
ATOM     18 CL   LIG    1       -0.790   2.167  -0.222  0.00  0.00    -0.050 Cl
ENDBRANCH  10  11
ENDBRANCH   8  10
ENDBRANCH   2   5
BRANCH   1  19
ATOM     19  C   LIG    1       -3.252   3.900   7.666  0.00  0.00    +0.090 C 
BRANCH  19  20
ATOM     20  C   LIG    1       -2.793   5.331   7.953  0.00  0.00    +0.320 C 
BRANCH  20  24
ATOM     21  C   LIG    1       -3.628   6.306  12.029  0.00  0.00    +0.130 A 
ATOM     22  C   LIG    1       -4.466   6.758  11.021  0.00  0.00    -0.020 A 
ATOM     23  C   LIG    1       -4.194   6.442   9.704  0.00  0.00    +0.070 A 
ATOM     24  C   LIG    1       -3.087   5.675   9.390  0.00  0.00    -0.140 A 
ATOM     25  C   LIG    1       -2.253   5.218  10.394  0.00  0.00    +0.060 A 
ATOM     26  C   LIG    1       -2.518   5.537  11.712  0.00  0.00    -0.080 A 
BRANCH  21  28
ATOM     27  C   LIG    1       -2.986   6.117  14.310  0.00  0.00    +0.250 C 
ATOM     28  O   LIG    1       -3.893   6.616  13.325  0.00  0.00    -0.320 OA
ENDBRANCH  21  28
ENDBRANCH  20  24
BRANCH  20  29
ATOM     29  N   LIG    1       -1.353   5.440   7.710  0.00  0.00    -0.720 N 
ATOM     30  H   LIG    1       -0.789   4.653   7.777  0.00  0.00    +0.400 HD
ATOM     31  C   LIG    1       -0.811   6.632   7.393  0.00  0.00    +0.520 C 
ATOM     32  O   LIG    1       -1.499   7.631   7.397  0.00  0.00    -0.540 OA
ATOM     33  C   LIG    1        0.650   6.725   7.034  0.00  0.00    +0.090 C 
ENDBRANCH  20  29
ENDBRANCH  19  20
ENDBRANCH   1  19
TORSDOF 8
