REMARK  Name = ZINCqH0000002P89.0
REMARK                            x       y       z     vdW  Elec       q    Type
REMARK                         _______ _______ _______ _____ _____    ______ ____
ROOT
ATOM      1  C   LIG    1       -1.466   3.603   2.534  0.00  0.00    +0.250 C 
ENDROOT
BRANCH   1   2
ATOM      2  C   LIG    1       -1.379   5.105   2.605  0.00  0.00    +0.520 C 
ATOM      3  N   LIG    1       -0.175   5.709   2.657  0.00  0.00    -0.720 N 
ATOM      4  H   LIG    1        0.635   5.177   2.649  0.00  0.00    +0.410 HD
ATOM      5  O   LIG    1       -2.393   5.771   2.615  0.00  0.00    -0.530 OA
BRANCH   3   6
ATOM      6  C   LIG    1       -0.091   7.170   2.726  0.00  0.00    +0.310 C 
BRANCH   6   7
ATOM      7  C   LIG    1        1.378   7.595   2.775  0.00  0.00    +0.040 C 
ATOM      8  C   LIG    1        1.463   9.117   2.847  0.00  0.00    +0.130 C 
ATOM      9  S   LIG    1        3.189   9.648   2.699  0.00  0.00    -0.240 S 
ATOM     10  C   LIG    1        3.978   8.915   4.155  0.00  0.00    +0.130 C 
ATOM     11  C   LIG    1        3.893   7.392   4.083  0.00  0.00    +0.130 C 
ATOM     12  S   LIG    1        2.167   6.861   4.232  0.00  0.00    -0.230 S 
ENDBRANCH   6   7
ENDBRANCH   3   6
ENDBRANCH   1   2
BRANCH   1  13
ATOM     13  N   LIG    1       -2.872   3.196   2.487  0.00  0.00    -0.710 N 
ATOM     14  H   LIG    1       -3.543   3.808   2.146  0.00  0.00    +0.410 HD
ATOM     15  C   LIG    1       -3.235   1.971   2.917  0.00  0.00    +0.600 C 
ATOM     16  O   LIG    1       -2.394   1.203   3.345  0.00  0.00    -0.520 OA
BRANCH  15  17
ATOM     17  C   LIG    1       -4.646   1.563   2.869  0.00  0.00    -0.230 A 
ATOM     18  C   LIG    1       -5.108   0.375   3.271  0.00  0.00    +0.130 A 
ATOM     19  C   LIG    1       -6.494   0.187   3.140  0.00  0.00    -0.090 A 
ATOM     20  C   LIG    1       -7.272  -0.947   3.474  0.00  0.00    +0.070 A 
ATOM     21  C   LIG    1       -8.616  -0.944   3.274  0.00  0.00    +0.010 A 
ATOM     22  C   LIG    1       -9.252   0.170   2.740  0.00  0.00    +0.040 A 
ATOM     23  C   LIG    1       -8.524   1.286   2.405  0.00  0.00    +0.040 A 
ATOM     24  C   LIG    1       -7.139   1.308   2.602  0.00  0.00    -0.120 A 
ATOM     25  S   LIG    1       -5.958   2.573   2.285  0.00  0.00    +0.120 S 
ENDBRANCH  15  17
ENDBRANCH   1  13
BRANCH   1  26
ATOM     26  C   LIG    1       -0.750   3.109   1.275  0.00  0.00    +0.020 C 
BRANCH  26  28
ATOM     27  C   LIG    1       -0.013   1.086   0.008  0.00  0.00    +0.010 C 
ATOM     28  C   LIG    1       -0.729   1.579   1.267  0.00  0.00    +0.020 C 
ENDBRANCH  26  28
ENDBRANCH   1  26
TORSDOF 7
