REMARK  Name = ZINCpe000000XQfA.0
REMARK                            x       y       z     vdW  Elec       q    Type
REMARK                         _______ _______ _______ _____ _____    ______ ____
ROOT
ATOM      1  C   LIG    1       -1.309   4.664   3.173  0.00  0.00    +0.440 C 
ATOM      2  O   LIG    1       -1.804   4.990   4.234  0.00  0.00    -0.490 OA
ENDROOT
BRANCH   1   3
ATOM      3  C   LIG    1       -1.334   3.312   2.769  0.00  0.00    -0.440 A 
ATOM      4  C   LIG    1       -1.813   2.307   3.627  0.00  0.00    +0.550 A 
ATOM      5  N   LIG    1       -1.817   1.013   3.190  0.00  0.00    -0.540 N 
ATOM      6  C   LIG    1       -1.376   0.688   1.965  0.00  0.00    +0.710 A 
ATOM      7  N   LIG    1       -0.908   1.605   1.102  0.00  0.00    -0.560 N 
ATOM      8  C   LIG    1       -0.442   1.181  -0.221  0.00  0.00    +0.340 C 
ATOM      9  O   LIG    1       -1.401  -0.478   1.624  0.00  0.00    -0.530 OA
ATOM     10  C   LIG    1       -2.315  -0.042   4.077  0.00  0.00    +0.350 C 
ATOM     11  C   LIG    1       -0.856   2.910   1.439  0.00  0.00    +0.580 A 
ATOM     12  O   LIG    1       -0.427   3.737   0.657  0.00  0.00    -0.500 OA
BRANCH   4  13
ATOM     13  N   LIG    1       -2.264   2.618   4.872  0.00  0.00    -0.800 N 
ATOM     14  H   LIG    1       -2.894   2.033   5.320  0.00  0.00    +0.410 HD
ATOM     15  H   LIG    1       -1.955   3.425   5.312  0.00  0.00    +0.440 HD
ENDBRANCH   4  13
ENDBRANCH   1   3
BRANCH   1  16
ATOM     16  C   LIG    1       -0.669   5.703   2.289  0.00  0.00    +0.210 C 
BRANCH  16  17
ATOM     17  N   LIG    1       -0.773   7.021   2.929  0.00  0.00    -0.520 NA
ATOM     18  C   LIG    1       -2.174   7.454   3.020  0.00  0.00    +0.190 C 
BRANCH  17  19
ATOM     19  C   LIG    1        0.041   8.017   2.219  0.00  0.00    +0.170 C 
ATOM     20  C   LIG    1        1.507   7.580   2.232  0.00  0.00    +0.050 C 
BRANCH  19  25
ATOM     21  C   LIG    1       -0.461  13.142   4.842  0.00  0.00    +0.080 C 
ATOM     22  C   LIG    1       -0.331  11.805   4.158  0.00  0.00    -0.090 A 
ATOM     23  C   LIG    1       -0.304  11.735   2.778  0.00  0.00    +0.000 A 
ATOM     24  C   LIG    1       -0.184  10.509   2.151  0.00  0.00    +0.010 A 
ATOM     25  C   LIG    1       -0.090   9.354   2.903  0.00  0.00    -0.080 A 
ATOM     26  C   LIG    1       -0.122   9.423   4.284  0.00  0.00    +0.040 A 
ATOM     27  C   LIG    1       -0.238  10.649   4.911  0.00  0.00    -0.010 A 
ENDBRANCH  19  25
ENDBRANCH  17  19
ENDBRANCH  16  17
ENDBRANCH   1  16
TORSDOF 6
