REMARK  Name = ZINCpe00000MJIOk.0
REMARK                            x       y       z     vdW  Elec       q    Type
REMARK                         _______ _______ _______ _____ _____    ______ ____
ROOT
ATOM      1  N   LIG    1       -8.471   9.983  -2.215  0.00  0.00    -0.570 N 
ATOM      2  C   LIG    1       -7.377  10.652  -1.498  0.00  0.00    +0.300 C 
ATOM      3  C   LIG    1       -6.055   9.971  -1.868  0.00  0.00    +0.010 C 
ATOM      4  C   LIG    1       -6.165   8.470  -1.590  0.00  0.00    +0.250 C 
ATOM      5  C   LIG    1       -7.277   7.869  -2.452  0.00  0.00    -0.000 C 
ATOM      6  C   LIG    1       -8.611   8.526  -2.088  0.00  0.00    +0.290 C 
ENDROOT
BRANCH   1  12
ATOM      7  C   LIG    1      -12.565  10.225  -4.940  0.00  0.00    +0.320 C 
ATOM      8  N   LIG    1      -11.372  10.822  -4.334  0.00  0.00    -0.480 N 
ATOM      9  C   LIG    1      -11.088  12.142  -4.525  0.00  0.00    +0.150 A 
ATOM     10  C   LIG    1       -9.991  12.700  -3.972  0.00  0.00    +0.190 A 
ATOM     11  N   LIG    1       -9.145  11.993  -3.223  0.00  0.00    -0.510 NA
ATOM     12  C   LIG    1       -9.356  10.714  -2.996  0.00  0.00    +0.350 A 
ATOM     13  C   LIG    1      -10.535  10.070  -3.585  0.00  0.00    +0.480 A 
ATOM     14  O   LIG    1      -10.757   8.885  -3.399  0.00  0.00    -0.520 OA
ENDBRANCH   1  12
BRANCH   4  15
ATOM     15  N   LIG    1       -4.892   7.820  -1.912  0.00  0.00    -0.740 N 
ATOM     16  H   LIG    1       -4.291   8.223  -2.558  0.00  0.00    +0.390 HD
ATOM     17  C   LIG    1       -4.556   6.661  -1.311  0.00  0.00    +0.700 C 
ATOM     18  N   LIG    1       -3.385   6.063  -1.607  0.00  0.00    -0.750 N 
ATOM     19  H   LIG    1       -2.784   6.467  -2.253  0.00  0.00    +0.390 HD
ATOM     20  O   LIG    1       -5.309   6.155  -0.501  0.00  0.00    -0.590 OA
BRANCH  18  21
ATOM     21  C   LIG    1       -3.019   4.804  -0.954  0.00  0.00    +0.280 C 
BRANCH  21  22
ATOM     22  C   LIG    1       -1.653   4.342  -1.464  0.00  0.00    +0.040 C 
BRANCH  22  23
ATOM     23  C   LIG    1       -1.271   3.027  -0.782  0.00  0.00    +0.150 C 
ATOM     24  C   LIG    1        0.046   2.477  -1.372  0.00  0.00    +0.010 C 
ATOM     25  C   LIG    1        0.777   1.866  -0.156  0.00  0.00    +0.000 C 
ATOM     26  C   LIG    1       -0.182   2.119   1.028  0.00  0.00    +0.190 C 
ATOM     27  O   LIG    1       -0.984   3.251   0.616  0.00  0.00    -0.370 OA
ENDBRANCH  22  23
ENDBRANCH  21  22
ENDBRANCH  18  21
ENDBRANCH   4  15
TORSDOF 5
