REMARK  Name = ZINCvU0000000Bef.0
REMARK                            x       y       z     vdW  Elec       q    Type
REMARK                         _______ _______ _______ _____ _____    ______ ____
ROOT
ATOM      1  C   LIG    1       -1.129  11.418  -0.900  0.00  0.00    +0.580 C 
ATOM      2  N   LIG    1       -0.369  12.520  -1.061  0.00  0.00    -0.460 N 
ATOM      3  N   LIG    1        1.022  12.559  -1.001  0.00  0.00    -0.220 NA
ATOM      4  C   LIG    1        1.524  13.735  -1.188  0.00  0.00    +0.180 C 
ATOM      5  C   LIG    1        0.408  14.728  -1.421  0.00  0.00    +0.100 C 
ATOM      6  C   LIG    1       -0.873  13.875  -1.335  0.00  0.00    +0.310 C 
ATOM      7  O   LIG    1       -2.338  11.499  -0.974  0.00  0.00    -0.490 OA
ENDROOT
BRANCH   4   8
ATOM      8  C   LIG    1        2.954  14.056  -1.176  0.00  0.00    +0.020 A 
ATOM      9  C   LIG    1        3.973  13.172  -0.967  0.00  0.00    +0.030 A 
ATOM     10  C   LIG    1        5.169  13.909  -1.042  0.00  0.00    -0.060 A 
ATOM     11  C   LIG    1        4.831  15.191  -1.289  0.00  0.00    +0.200 A 
ATOM     12  O   LIG    1        3.493  15.276  -1.374  0.00  0.00    -0.160 OA
ENDBRANCH   4   8
BRANCH   6  13
ATOM     13  C   LIG    1       -1.751  14.352  -0.206  0.00  0.00    -0.200 A 
ATOM     14  C   LIG    1       -2.864  15.072  -0.350  0.00  0.00    +0.030 A 
ATOM     15  C   LIG    1       -3.508  15.393   0.833  0.00  0.00    +0.000 A 
ATOM     16  C   LIG    1       -2.913  14.941   1.937  0.00  0.00    -0.030 A 
ATOM     17  S   LIG    1       -1.460  14.051   1.502  0.00  0.00    +0.110 S 
ENDBRANCH   6  13
BRANCH   1  18
ATOM     18  C   LIG    1       -0.478  10.086  -0.629  0.00  0.00    +0.140 C 
BRANCH  18  19
ATOM     19  S   LIG    1       -1.755   8.814  -0.464  0.00  0.00    +0.050 S 
BRANCH  19  25
ATOM     20  C   LIG    1       -2.588   5.693   0.056  0.00  0.00    +0.330 C 
ATOM     21  N   LIG    1       -1.191   6.135   0.045  0.00  0.00    -0.440 N 
ATOM     22  C   LIG    1       -0.074   5.341   0.243  0.00  0.00    +0.020 A 
ATOM     23  C   LIG    1        1.006   6.161   0.154  0.00  0.00    +0.190 A 
ATOM     24  N   LIG    1        0.570   7.402  -0.096  0.00  0.00    -0.480 NA
ATOM     25  C   LIG    1       -0.743   7.403  -0.161  0.00  0.00    +0.180 A 
BRANCH  22  26
ATOM     26  C   LIG    1       -0.060   3.886   0.505  0.00  0.00    -0.010 A 
ATOM     27  C   LIG    1       -1.207   3.248   0.980  0.00  0.00    -0.010 A 
ATOM     28  C   LIG    1       -1.186   1.890   1.222  0.00  0.00    +0.020 A 
ATOM     29  C   LIG    1       -0.032   1.161   0.995  0.00  0.00    +0.010 A 
ATOM     30  C   LIG    1        1.109   1.788   0.528  0.00  0.00    +0.020 A 
ATOM     31  C   LIG    1        1.101   3.145   0.277  0.00  0.00    +0.030 A 
ENDBRANCH  22  26
ENDBRANCH  19  25
ENDBRANCH  18  19
ENDBRANCH   1  18
TORSDOF 6
