REMARK  Name = ZINCqH0000004ABW.0
REMARK                            x       y       z     vdW  Elec       q    Type
REMARK                         _______ _______ _______ _____ _____    ______ ____
ROOT
ATOM      1  C   LIG    1        0.305   8.285  -0.320  0.00  0.00    +0.510 C 
ATOM      2  N   LIG    1        1.456   7.596  -0.189  0.00  0.00    -0.670 N 
ATOM      3  H   LIG    1        2.300   8.070  -0.124  0.00  0.00    +0.410 HD
ATOM      4  O   LIG    1       -0.757   7.700  -0.305  0.00  0.00    -0.490 OA
ENDROOT
BRANCH   2   5
ATOM      5  C   LIG    1        1.433   6.196  -0.147  0.00  0.00    +0.120 A 
ATOM      6  C   LIG    1        0.483   5.495  -0.879  0.00  0.00    +0.050 A 
ATOM      7  C   LIG    1        0.460   4.115  -0.837  0.00  0.00    +0.010 A 
ATOM      8  C   LIG    1        1.387   3.428  -0.064  0.00  0.00    +0.100 A 
ATOM      9  C   LIG    1        2.333   4.129   0.672  0.00  0.00    -0.020 A 
ATOM     10  C   LIG    1        2.360   5.509   0.626  0.00  0.00    +0.020 A 
BRANCH   8  11
ATOM     11  N   LIG    1        1.364   2.030  -0.021  0.00  0.00    -0.490 N 
ATOM     12  C   LIG    1        2.426   1.511   0.853  0.00  0.00    +0.160 C 
ATOM     13  C   LIG    1        2.327  -0.015   0.917  0.00  0.00    +0.220 C 
ATOM     14  O   LIG    1        2.407  -0.549  -0.407  0.00  0.00    -0.380 OA
ATOM     15  C   LIG    1        1.387  -0.066  -1.285  0.00  0.00    +0.220 C 
ATOM     16  C   LIG    1        1.477   1.460  -1.372  0.00  0.00    +0.160 C 
ENDBRANCH   8  11
ENDBRANCH   2   5
BRANCH   1  17
ATOM     17  C   LIG    1        0.338   9.783  -0.484  0.00  0.00    +0.240 C 
BRANCH  17  18
ATOM     18  O   LIG    1       -0.997  10.279  -0.603  0.00  0.00    -0.290 OA
BRANCH  18  21
ATOM     19  C   LIG    1       -2.562  13.534  -1.038  0.00  0.00    -0.030 A 
ATOM     20  C   LIG    1       -2.413  12.170  -0.880  0.00  0.00    +0.010 A 
ATOM     21  C   LIG    1       -1.145  11.621  -0.759  0.00  0.00    +0.140 A 
ATOM     22  C   LIG    1       -0.029  12.444  -0.791  0.00  0.00    -0.070 A 
ATOM     23  C   LIG    1       -0.181  13.807  -0.954  0.00  0.00    +0.080 A 
ATOM     24  C   LIG    1       -1.447  14.353  -1.075  0.00  0.00    -0.070 A 
ATOM     25 CL   LIG    1       -1.636  16.067  -1.273  0.00  0.00    -0.060 Cl
BRANCH  19  27
ATOM     26  C   LIG    1       -4.372  14.718   0.176  0.00  0.00    +0.030 C 
ATOM     27  C   LIG    1       -3.939  14.132  -1.169  0.00  0.00    +0.070 C 
ENDBRANCH  19  27
ENDBRANCH  18  21
ENDBRANCH  17  18
ENDBRANCH   1  17
TORSDOF 6
