REMARK  Name = ZINCqH0000036Tuu.0
REMARK                            x       y       z     vdW  Elec       q    Type
REMARK                         _______ _______ _______ _____ _____    ______ ____
ROOT
ATOM      1  C   LIG    1        1.373  -0.641  -0.096  0.00  0.00    +0.080 A 
ATOM      2  C   LIG    1        2.502   0.065   0.313  0.00  0.00    +0.080 A 
ATOM      3  C   LIG    1        2.420   1.444   0.404  0.00  0.00    -0.010 A 
ATOM      4  C   LIG    1        1.222   2.072   0.088  0.00  0.00    +0.290 A 
ATOM      5  N   LIG    1        0.170   1.370  -0.297  0.00  0.00    -0.510 NA
ATOM      6  C   LIG    1        0.212   0.055  -0.395  0.00  0.00    +0.320 A 
ENDROOT
BRANCH   1  16
ATOM      7  C   LIG    1       -3.009  -5.211   1.234  0.00  0.00    +0.040 C 
ATOM      8  C   LIG    1       -1.518  -4.899   1.370  0.00  0.00    +0.010 C 
ATOM      9  C   LIG    1       -0.888  -4.873  -0.035  0.00  0.00    +0.300 C 
ATOM     10  N   LIG    1        0.335  -4.100  -0.001  0.00  0.00    -0.620 N 
ATOM     11  C   LIG    1        1.634  -4.768   0.100  0.00  0.00    +0.300 C 
ATOM     12  C   LIG    1        1.685  -5.933   1.108  0.00  0.00    -0.240 C 
ATOM     13  S   LIG    1        0.831  -5.513   2.635  0.00  0.00    +1.240 S 
ATOM     14  O   LIG    1        1.281  -6.366   3.679  0.00  0.00    -0.850 OA
ATOM     15  C   LIG    1        0.278  -2.755  -0.067  0.00  0.00    +0.710 C 
ATOM     16  N   LIG    1        1.411  -2.039  -0.203  0.00  0.00    -0.680 N 
ATOM     17  H   LIG    1        2.252  -2.490  -0.374  0.00  0.00    +0.410 HD
ATOM     18  O   LIG    1       -0.796  -2.189  -0.004  0.00  0.00    -0.560 OA
ATOM     19  C   LIG    1       -0.912  -5.886   2.255  0.00  0.00    -0.230 C 
ENDBRANCH   1  16
BRANCH   4  20
ATOM     20  O   LIG    1        1.131   3.424   0.174  0.00  0.00    -0.250 OA
BRANCH  20  21
ATOM     21  C   LIG    1       -0.022   4.014  -0.238  0.00  0.00    +0.100 A 
ATOM     22  C   LIG    1       -0.070   4.663  -1.464  0.00  0.00    +0.030 A 
ATOM     23  C   LIG    1       -1.245   5.257  -1.883  0.00  0.00    +0.040 A 
ATOM     24  C   LIG    1       -2.369   5.214  -1.078  0.00  0.00    -0.030 A 
ATOM     25  C   LIG    1       -2.321   4.572   0.147  0.00  0.00    +0.040 A 
ATOM     26 CL   LIG    1       -3.842   5.967  -1.604  0.00  0.00    -0.060 Cl
ATOM     27  C   LIG    1       -1.150   3.972   0.568  0.00  0.00    +0.040 A 
ENDBRANCH  20  21
ENDBRANCH   4  20
TORSDOF 3
