REMARK  Name = ZINCvU00000007r7.0
REMARK                            x       y       z     vdW  Elec       q    Type
REMARK                         _______ _______ _______ _____ _____    ______ ____
ROOT
ATOM      1  N   LIG    1       -1.386   0.850  -2.120  0.00  0.00    -0.320 N 
ATOM      2  N   LIG    1       -1.976   1.743  -3.029  0.00  0.00    -0.290 NA
ATOM      3  C   LIG    1       -1.703   2.956  -2.599  0.00  0.00    +0.260 A 
ATOM      4  N   LIG    1       -0.982   2.862  -1.473  0.00  0.00    -0.500 NA
ATOM      5  C   LIG    1       -0.782   1.604  -1.180  0.00  0.00    +0.310 A 
ENDROOT
BRANCH   5   6
ATOM      6  C   LIG    1       -0.013   1.086   0.008  0.00  0.00    +0.130 C 
ATOM      7  C   LIG    1       -0.636   1.606   1.321  0.00  0.00    +0.060 C 
ATOM      8  C   LIG    1        0.174   2.892   1.586  0.00  0.00    +0.090 C 
ATOM      9  C   LIG    1        1.507   2.669   0.904  0.00  0.00    -0.070 A 
ATOM     10  C   LIG    1        2.717   3.321   1.064  0.00  0.00    +0.010 A 
ATOM     11  C   LIG    1        3.817   2.939   0.321  0.00  0.00    +0.020 A 
ATOM     12  C   LIG    1        3.710   1.901  -0.586  0.00  0.00    +0.010 A 
ATOM     13  C   LIG    1        2.503   1.248  -0.746  0.00  0.00    +0.020 A 
ATOM     14  C   LIG    1        1.400   1.630  -0.003  0.00  0.00    -0.100 A 
ENDBRANCH   5   6
BRANCH   3  15
ATOM     15  C   LIG    1       -2.127   4.220  -3.249  0.00  0.00    +0.050 A 
ATOM     16  C   LIG    1       -2.885   4.203  -4.424  0.00  0.00    +0.010 A 
ATOM     17  C   LIG    1       -3.260   5.401  -4.996  0.00  0.00    +0.290 A 
ATOM     18  N   LIG    1       -2.912   6.551  -4.451  0.00  0.00    -0.470 NA
ATOM     19  C   LIG    1       -2.197   6.611  -3.342  0.00  0.00    +0.170 A 
ATOM     20 CL   LIG    1       -1.775   8.159  -2.679  0.00  0.00    -0.020 Cl
ATOM     21  C   LIG    1       -1.786   5.459  -2.701  0.00  0.00    +0.050 A 
ENDBRANCH   3  15
BRANCH   1  25
ATOM     22  C   LIG    1       -1.480  -3.320  -2.291  0.00  0.00    +0.110 A 
ATOM     23  C   LIG    1       -0.354  -2.670  -1.812  0.00  0.00    +0.000 A 
ATOM     24  C   LIG    1       -0.323  -1.289  -1.755  0.00  0.00    +0.020 A 
ATOM     25  C   LIG    1       -1.420  -0.551  -2.178  0.00  0.00    +0.140 A 
ATOM     26  C   LIG    1       -2.552  -1.199  -2.654  0.00  0.00    -0.010 A 
ATOM     27  C   LIG    1       -2.581  -2.582  -2.717  0.00  0.00    +0.120 A 
BRANCH  22  29
ATOM     28  C   LIG    1       -0.345  -5.371  -1.893  0.00  0.00    +0.250 C 
ATOM     29  O   LIG    1       -1.509  -4.678  -2.346  0.00  0.00    -0.300 OA
ENDBRANCH  22  29
BRANCH  27  30
ATOM     30  O   LIG    1       -3.687  -3.219  -3.188  0.00  0.00    -0.300 OA
ATOM     31  C   LIG    1       -4.779  -2.398  -3.607  0.00  0.00    +0.250 C 
ENDBRANCH  27  30
ENDBRANCH   1  25
TORSDOF 5
