REMARK  Name = ZINCqH0000006WKB.0
REMARK                            x       y       z     vdW  Elec       q    Type
REMARK                         _______ _______ _______ _____ _____    ______ ____
ROOT
ATOM      1  C   LIG    1       -3.102  -3.772   0.197  0.00  0.00    +0.100 A 
ATOM      2  C   LIG    1       -4.373  -4.304   0.296  0.00  0.00    +0.000 A 
ATOM      3  C   LIG    1       -5.479  -3.458   0.305  0.00  0.00    -0.090 A 
ATOM      4  C   LIG    1       -5.309  -2.070   0.214  0.00  0.00    +0.070 A 
ATOM      5  O   LIG    1       -6.529  -1.486   0.245  0.00  0.00    -0.190 OA
ATOM      6  C   LIG    1       -7.515  -2.403   0.350  0.00  0.00    +0.090 A 
ATOM      7  C   LIG    1       -8.898  -2.285   0.417  0.00  0.00    +0.020 A 
ATOM      8  C   LIG    1       -9.684  -3.414   0.524  0.00  0.00    +0.060 A 
ATOM      9  C   LIG    1       -9.107  -4.673   0.568  0.00  0.00    -0.010 A 
ATOM     10  C   LIG    1       -7.736  -4.810   0.503  0.00  0.00    +0.070 A 
ATOM     11  C   LIG    1       -4.027  -1.545   0.122  0.00  0.00    +0.080 A 
ATOM     12  C   LIG    1       -6.935  -3.678   0.395  0.00  0.00    -0.130 A 
ATOM     13  C   LIG    1       -2.930  -2.390   0.107  0.00  0.00    +0.150 A 
ENDROOT
BRANCH  13  14
ATOM     14  N   LIG    1       -1.640  -1.854   0.008  0.00  0.00    -0.650 N 
ATOM     15  H   LIG    1       -0.954  -2.331  -0.485  0.00  0.00    +0.420 HD
ATOM     16  C   LIG    1       -1.352  -0.676   0.596  0.00  0.00    +0.540 C 
ATOM     17  O   LIG    1       -2.229  -0.040   1.142  0.00  0.00    -0.500 OA
BRANCH  16  18
ATOM     18  C   LIG    1        0.059  -0.149   0.576  0.00  0.00    +0.100 C 
BRANCH  18  19
ATOM     19  S   LIG    1        0.123   1.443   1.443  0.00  0.00    +0.120 S 
BRANCH  19  20
ATOM     20  C   LIG    1        1.821   1.895   1.319  0.00  0.00    +0.010 A 
ATOM     21  N   LIG    1        2.783   1.226   0.736  0.00  0.00    -0.270 NA
ATOM     22  N   LIG    1        4.048   1.768   0.757  0.00  0.00    -0.370 NA
ATOM     23  C   LIG    1        4.210   2.918   1.358  0.00  0.00    +0.340 A 
ATOM     24  N   LIG    1        5.390   3.640   1.497  0.00  0.00    -0.800 N 
ATOM     25  H   LIG    1        5.386   4.488   1.968  0.00  0.00    +0.420 HD
ATOM     26  H   LIG    1        6.216   3.296   1.124  0.00  0.00    +0.420 HD
ATOM     27  S   LIG    1        2.598   3.360   1.950  0.00  0.00    +0.050 S 
ENDBRANCH  19  20
ENDBRANCH  18  19
ENDBRANCH  16  18
ENDBRANCH  13  14
BRANCH   1  29
ATOM     28  C   LIG    1       -2.269  -5.999   0.284  0.00  0.00    +0.250 C 
ATOM     29  O   LIG    1       -2.019  -4.595   0.189  0.00  0.00    -0.310 OA
ENDBRANCH   1  29
TORSDOF 5
