REMARK  Name = ZINCvU00000003IF.0
REMARK                            x       y       z     vdW  Elec       q    Type
REMARK                         _______ _______ _______ _____ _____    ______ ____
ROOT
ATOM      1  C   LIG    1        1.721  11.689   1.016  0.00  0.00    +0.100 C 
ATOM      2  C   LIG    1        2.099  10.255   0.748  0.00  0.00    -0.100 A 
ATOM      3  C   LIG    1        3.436   9.884   0.722  0.00  0.00    +0.100 A 
ATOM      4  C   LIG    1        3.801   8.580   0.475  0.00  0.00    +0.020 A 
ATOM      5  C   LIG    1        2.827   7.609   0.248  0.00  0.00    +0.130 A 
ATOM      6  O   LIG    1        3.213   6.337  -0.001  0.00  0.00    -0.180 OA
ATOM      7  C   LIG    1        2.298   5.348   0.007  0.00  0.00    +0.090 A 
ATOM      8  C   LIG    1        0.953   5.590   0.025  0.00  0.00    -0.230 A 
ATOM      9  C   LIG    1        0.254   4.270   0.022  0.00  0.00    +0.370 C 
ATOM     10  N   LIG    1        1.317   3.253   0.006  0.00  0.00    -0.500 N 
ATOM     11  C   LIG    1        0.431   6.960   0.049  0.00  0.00    +0.460 A 
ATOM     12  O   LIG    1       -0.748   7.228  -0.107  0.00  0.00    -0.420 OA
ATOM     13  C   LIG    1        2.505   3.891   0.004  0.00  0.00    +0.570 C 
ATOM     14  O   LIG    1        3.590   3.342  -0.003  0.00  0.00    -0.450 OA
ATOM     15  C   LIG    1        1.475   7.990   0.281  0.00  0.00    -0.200 A 
ATOM     16  C   LIG    1        1.117   9.314   0.529  0.00  0.00    +0.120 A 
ENDROOT
BRANCH   9  17
ATOM     17  C   LIG    1       -0.609   4.140  -1.207  0.00  0.00    -0.100 A 
ATOM     18  C   LIG    1       -0.032   3.840  -2.427  0.00  0.00    +0.010 A 
ATOM     19  C   LIG    1       -0.823   3.716  -3.554  0.00  0.00    +0.010 A 
ATOM     20  C   LIG    1       -2.190   3.901  -3.462  0.00  0.00    -0.050 A 
ATOM     21  C   LIG    1       -2.766   4.206  -2.243  0.00  0.00    +0.020 A 
ATOM     22  C   LIG    1       -1.975   4.326  -1.115  0.00  0.00    +0.060 A 
BRANCH  20  23
ATOM     23  C   LIG    1       -3.052   3.772  -4.691  0.00  0.00    -0.030 C 
ATOM     24  C   LIG    1       -4.079   2.658  -4.479  0.00  0.00    +0.040 C 
ATOM     25  C   LIG    1       -2.174   3.432  -5.897  0.00  0.00    +0.030 C 
ATOM     26  C   LIG    1       -3.779   5.093  -4.946  0.00  0.00    +0.040 C 
ENDBRANCH  20  23
ENDBRANCH   9  17
BRANCH  10  27
ATOM     27  C   LIG    1        1.130   1.877   0.001  0.00  0.00    +0.260 A 
ATOM     28  N   LIG    1       -0.015   1.257   0.009  0.00  0.00    -0.280 NA
ATOM     29  N   LIG    1        0.002  -0.004   0.002  0.00  0.00    -0.230 NA
ATOM     30  C   LIG    1        1.153  -0.595  -0.012  0.00  0.00    +0.200 A 
ATOM     31  S   LIG    1        2.402   0.653  -0.017  0.00  0.00    +0.140 S 
ENDBRANCH  10  27
TORSDOF 3
