REMARK  Name = ZINCqH0000008aXK.0
REMARK                            x       y       z     vdW  Elec       q    Type
REMARK                         _______ _______ _______ _____ _____    ______ ____
ROOT
ATOM      1  C   LIG    1        1.249  -0.718   0.244  0.00  0.00    +0.420 A 
ATOM      2  N   LIG    1        2.365  -0.033   0.146  0.00  0.00    -0.330 NA
ATOM      3  N   LIG    1        3.572  -0.681  -0.123  0.00  0.00    -0.270 N 
ATOM      4  C   LIG    1        3.602  -2.043  -0.286  0.00  0.00    +0.120 A 
ATOM      5  C   LIG    1        2.405  -2.776  -0.181  0.00  0.00    +0.190 A 
ATOM      6  N   LIG    1        4.861  -2.378  -0.527  0.00  0.00    -0.240 NA
ATOM      7  N   LIG    1        5.597  -1.323  -0.522  0.00  0.00    -0.250 NA
ATOM      8  C   LIG    1        4.858  -0.256  -0.279  0.00  0.00    +0.250 A 
ATOM      9  C   LIG    1        1.246  -2.118   0.087  0.00  0.00    -0.020 A 
ENDROOT
BRANCH   8  10
ATOM     10  C   LIG    1        5.336   1.139  -0.193  0.00  0.00    -0.030 A 
ATOM     11  C   LIG    1        4.429   2.198  -0.275  0.00  0.00    +0.050 A 
ATOM     12  C   LIG    1        4.881   3.498  -0.187  0.00  0.00    +0.010 A 
ATOM     13  C   LIG    1        6.232   3.755  -0.030  0.00  0.00    +0.030 A 
ATOM     14  C   LIG    1        7.137   2.711   0.046  0.00  0.00    +0.010 A 
ATOM     15  C   LIG    1        6.697   1.406  -0.034  0.00  0.00    +0.070 A 
ENDBRANCH   8  10
BRANCH   1  16
ATOM     16  N   LIG    1        0.057  -0.054   0.513  0.00  0.00    -0.610 N 
ATOM     17  H   LIG    1       -0.782  -0.542   0.505  0.00  0.00    +0.430 HD
BRANCH  16  20
ATOM     18  N   LIG    1       -0.580   3.388   1.153  0.00  0.00    -0.360 N 
ATOM     19  C   LIG    1       -1.019   2.138   0.849  0.00  0.00    +0.210 A 
ATOM     20  C   LIG    1        0.067   1.325   0.796  0.00  0.00    -0.000 A 
ATOM     21  C   LIG    1        1.201   2.103   1.067  0.00  0.00    +0.240 A 
ATOM     22  N   LIG    1        0.814   3.335   1.280  0.00  0.00    -0.270 NA
BRANCH  18  24
ATOM     23  C   LIG    1       -2.591   4.514   0.336  0.00  0.00    +0.070 C 
ATOM     24  C   LIG    1       -1.416   4.580   1.314  0.00  0.00    +0.300 C 
BRANCH  24  25
ATOM     25  C   LIG    1       -1.949   4.640   2.747  0.00  0.00    -0.070 C 
ATOM     26  C   LIG    1       -1.751   5.945   3.520  0.00  0.00    +0.040 C 
ATOM     27  C   LIG    1       -0.922   4.710   3.879  0.00  0.00    +0.020 C 
ENDBRANCH  24  25
ENDBRANCH  18  24
ENDBRANCH  16  20
ENDBRANCH   1  16
TORSDOF 5
