REMARK  Name = ZINCqH0000007NCd.0
REMARK                            x       y       z     vdW  Elec       q    Type
REMARK                         _______ _______ _______ _____ _____    ______ ____
ROOT
ATOM      1  S   LIG    1       -0.861  -1.915   2.521  0.00  0.00    +0.100 S 
ENDROOT
BRANCH   1   6
ATOM      2  N   LIG    1       -1.210  -0.713   0.016  0.00  0.00    -0.410 N 
ATOM      3  C   LIG    1       -2.174  -0.724  -0.957  0.00  0.00    +0.390 A 
ATOM      4  N   LIG    1       -3.125  -1.517  -0.550  0.00  0.00    -0.280 NA
ATOM      5  N   LIG    1       -2.837  -1.998   0.606  0.00  0.00    -0.300 NA
ATOM      6  C   LIG    1       -1.673  -1.539   1.004  0.00  0.00    +0.160 A 
BRANCH   2  12
ATOM      7  C   LIG    1        1.212  -0.681  -0.019  0.00  0.00    +0.150 A 
ATOM      8  C   LIG    1        2.402   0.029  -0.029  0.00  0.00    -0.060 A 
ATOM      9  C   LIG    1        2.382   1.411  -0.017  0.00  0.00    +0.080 A 
ATOM     10  C   LIG    1        1.178   2.089   0.005  0.00  0.00    +0.000 A 
ATOM     11  C   LIG    1       -0.014   1.387   0.017  0.00  0.00    +0.080 A 
ATOM     12  C   LIG    1       -0.002   0.001   0.004  0.00  0.00    +0.060 A 
BRANCH   7  14
ATOM     13  C   LIG    1        2.512  -2.673  -0.054  0.00  0.00    +0.250 C 
ATOM     14  O   LIG    1        1.230  -2.041  -0.030  0.00  0.00    -0.300 OA
ENDBRANCH   7  14
ENDBRANCH   2  12
ENDBRANCH   1   6
BRANCH   1  15
ATOM     15  C   LIG    1       -2.074  -3.038   3.257  0.00  0.00    +0.110 C 
BRANCH  15  16
ATOM     16  C   LIG    1       -1.577  -3.503   4.602  0.00  0.00    +0.540 C 
ATOM     17  N   LIG    1       -2.321  -4.352   5.339  0.00  0.00    -0.660 N 
ATOM     18  H   LIG    1       -3.205  -4.611   5.034  0.00  0.00    +0.420 HD
ATOM     19  O   LIG    1       -0.508  -3.112   5.022  0.00  0.00    -0.500 OA
BRANCH  17  20
ATOM     20  C   LIG    1       -1.818  -4.859   6.543  0.00  0.00    +0.150 A 
ATOM     21  C   LIG    1       -1.012  -4.066   7.348  0.00  0.00    +0.070 A 
ATOM     22  C   LIG    1       -0.517  -4.568   8.537  0.00  0.00    +0.030 A 
ATOM     23  C   LIG    1       -0.824  -5.861   8.925  0.00  0.00    +0.100 A 
ATOM     24  C   LIG    1       -1.628  -6.654   8.122  0.00  0.00    -0.060 A 
ATOM     25 CL   LIG    1       -2.011  -8.276   8.611  0.00  0.00    -0.040 Cl
ATOM     26  F   LIG    1       -0.338  -6.349  10.086  0.00  0.00    -0.120 F 
ATOM     27  C   LIG    1       -2.130  -6.154   6.936  0.00  0.00    +0.040 A 
ENDBRANCH  17  20
ENDBRANCH  15  16
ENDBRANCH   1  15
TORSDOF 6
