REMARK  Name = ZINCnE000001GgD7.0
REMARK                            x       y       z     vdW  Elec       q    Type
REMARK                         _______ _______ _______ _____ _____    ______ ____
ROOT
ATOM      1  S   LIG    1       -1.387  -1.087   0.008  0.00  0.00    +0.060 S 
ENDROOT
BRANCH   1   6
ATOM      2  N   LIG    1        2.461   3.053  -0.040  0.00  0.00    -0.640 NA
ATOM      3  C   LIG    1        1.745   1.929  -0.032  0.00  0.00    +0.370 A 
ATOM      4  N   LIG    1        2.203   0.661  -0.046  0.00  0.00    -0.400 NA
ATOM      5  N   LIG    1        1.257  -0.339  -0.034  0.00  0.00    -0.270 NA
ATOM      6  C   LIG    1        0.003  -0.004  -0.011  0.00  0.00    -0.050 A 
ATOM      7  S   LIG    1       -0.021   1.769  -0.003  0.00  0.00    -0.030 S 
BRANCH   2   8
ATOM      8  C   LIG    1        3.793   2.996  -0.063  0.00  0.00    +0.610 C 
ATOM      9  O   LIG    1        4.356   1.915  -0.076  0.00  0.00    -0.590 OA
BRANCH   8  10
ATOM     10  O   LIG    1        4.518   4.135  -0.070  0.00  0.00    -0.360 OA
BRANCH  10  12
ATOM     11  C   LIG    1        6.586   5.385  -0.100  0.00  0.00    +0.040 C 
ATOM     12  C   LIG    1        5.940   3.998  -0.095  0.00  0.00    +0.180 C 
ENDBRANCH  10  12
ENDBRANCH   8  10
ENDBRANCH   2   8
ENDBRANCH   1   6
BRANCH   1  13
ATOM     13  C   LIG    1       -0.540  -2.686  -0.014  0.00  0.00    +0.110 C 
BRANCH  13  14
ATOM     14  C   LIG    1       -1.560  -3.795  -0.001  0.00  0.00    +0.540 C 
ATOM     15  N   LIG    1       -1.158  -5.082  -0.013  0.00  0.00    -0.670 N 
ATOM     16  H   LIG    1       -0.215  -5.294  -0.099  0.00  0.00    +0.420 HD
ATOM     17  O   LIG    1       -2.744  -3.531   0.021  0.00  0.00    -0.500 OA
BRANCH  15  18
ATOM     18  C   LIG    1       -2.099  -6.111   0.096  0.00  0.00    +0.160 A 
ATOM     19  C   LIG    1       -1.779  -7.277   0.778  0.00  0.00    -0.010 A 
ATOM     20  C   LIG    1       -2.712  -8.289   0.890  0.00  0.00    +0.050 A 
ATOM     21  C   LIG    1       -3.961  -8.147   0.314  0.00  0.00    +0.000 A 
ATOM     22  C   LIG    1       -4.282  -6.988  -0.371  0.00  0.00    -0.020 A 
ATOM     23 CL   LIG    1       -5.851  -6.814  -1.093  0.00  0.00    -0.070 Cl
ATOM     24  C   LIG    1       -3.354  -5.970  -0.482  0.00  0.00    +0.040 A 
ENDBRANCH  15  18
ENDBRANCH  13  14
ENDBRANCH   1  13
TORSDOF 7
