REMARK  Name = ZINCAx0000000kbo.0
REMARK                            x       y       z     vdW  Elec       q    Type
REMARK                         _______ _______ _______ _____ _____    ______ ____
ROOT
ATOM      1  C   LIG    1        7.318  -5.030   2.573  0.00  0.00    +0.010 C 
ATOM      2  C   LIG    1        7.043  -4.272   3.873  0.00  0.00    +0.020 C 
ATOM      3  C   LIG    1        6.207  -3.025   3.565  0.00  0.00    +0.270 C 
ATOM      4  N   LIG    1        4.998  -3.434   2.838  0.00  0.00    -0.610 N 
ATOM      5  C   LIG    1        5.146  -4.251   1.625  0.00  0.00    +0.270 C 
ATOM      6  C   LIG    1        3.777  -3.073   3.278  0.00  0.00    +0.540 C 
ATOM      7  O   LIG    1        3.671  -2.326   4.228  0.00  0.00    -0.530 OA
ATOM      8  C   LIG    1        5.994  -5.479   1.952  0.00  0.00    +0.010 C 
ENDROOT
BRANCH   6   9
ATOM      9  C   LIG    1        2.542  -3.596   2.590  0.00  0.00    +0.010 C 
ATOM     10  C   LIG    1        1.308  -3.275   3.437  0.00  0.00    +0.060 C 
ATOM     11  C   LIG    1        1.164  -1.756   3.559  0.00  0.00    +0.180 C 
ATOM     12  C   LIG    1        1.063  -1.144   2.160  0.00  0.00    +0.160 C 
ATOM     13  N   LIG    1        2.267  -1.479   1.390  0.00  0.00    -0.530 NA
ATOM     14  C   LIG    1        2.401  -2.931   1.219  0.00  0.00    +0.200 C 
BRANCH  11  15
ATOM     15  O   LIG    1       -0.017  -1.447   4.302  0.00  0.00    -0.390 OA
ATOM     16  C   LIG    1        0.066  -0.229   5.046  0.00  0.00    +0.190 C 
ENDBRANCH  11  15
BRANCH  13  17
ATOM     17  C   LIG    1        2.268  -0.793   0.090  0.00  0.00    +0.290 C 
BRANCH  17  18
ATOM     18  C   LIG    1        1.885   0.651   0.284  0.00  0.00    -0.020 A 
ATOM     19  C   LIG    1        2.729   1.700   0.432  0.00  0.00    +0.160 A 
ATOM     20  N   LIG    1        1.947   2.795   0.576  0.00  0.00    -0.270 N 
ATOM     21  N   LIG    1        0.717   2.423   0.518  0.00  0.00    -0.080 NA
ATOM     22  N   LIG    1        0.645   1.150   0.344  0.00  0.00    -0.260 NA
BRANCH  20  23
ATOM     23  C   LIG    1        2.421   4.168   0.766  0.00  0.00    +0.210 C 
ATOM     24  C   LIG    1        3.879   4.361   1.186  0.00  0.00    +0.070 C 
ATOM     25  C   LIG    1        2.753   4.610   2.192  0.00  0.00    +0.070 C 
ENDBRANCH  20  23
ENDBRANCH  17  18
ENDBRANCH  13  17
ENDBRANCH   6   9
BRANCH   1  26
ATOM     26  C   LIG    1        8.182  -6.258   2.872  0.00  0.00    +0.080 C 
BRANCH  26  32
ATOM     27  C   LIG    1        9.629  -6.460   0.824  0.00  0.00    -0.130 A 
ATOM     28  C   LIG    1        9.968  -7.095  -0.372  0.00  0.00    +0.080 A 
ATOM     29  C   LIG    1        9.242  -8.187  -0.800  0.00  0.00    -0.010 A 
ATOM     30  C   LIG    1        8.180  -8.653  -0.047  0.00  0.00    +0.050 A 
ATOM     31  C   LIG    1        7.841  -8.032   1.143  0.00  0.00    +0.000 A 
ATOM     32  C   LIG    1        8.555  -6.936   1.579  0.00  0.00    -0.010 A 
BRANCH  27  33
ATOM     33  C   LIG    1       10.402  -5.290   1.288  0.00  0.00    +0.500 C 
ATOM     34  O   LIG    1       10.043  -4.678   2.274  0.00  0.00    -0.490 OA
BRANCH  33  36
ATOM     35  C   LIG    1       12.213  -3.743   1.131  0.00  0.00    +0.260 C 
ATOM     36  O   LIG    1       11.503  -4.901   0.618  0.00  0.00    -0.360 OA
ENDBRANCH  33  36
ENDBRANCH  27  33
ENDBRANCH  26  32
ENDBRANCH   1  26
TORSDOF 9
