REMARK  Name = ZINCvU0000000Fr4.0
REMARK                            x       y       z     vdW  Elec       q    Type
REMARK                         _______ _______ _______ _____ _____    ______ ____
ROOT
ATOM      1  C   LIG    1       -3.025   2.552   1.824  0.00  0.00    +0.560 C 
ATOM      2  N   LIG    1       -3.530   1.887   0.766  0.00  0.00    -0.600 N 
ATOM      3  C   LIG    1       -4.983   1.760   0.585  0.00  0.00    +0.280 C 
ATOM      4  C   LIG    1       -5.353   2.260  -0.815  0.00  0.00    +0.030 C 
ATOM      5  C   LIG    1       -4.521   1.510  -1.858  0.00  0.00    +0.040 C 
ATOM      6  C   LIG    1       -4.787   0.008  -1.744  0.00  0.00    +0.040 C 
ATOM      7  C   LIG    1       -3.963  -0.736  -2.796  0.00  0.00    +0.020 C 
ATOM      8  C   LIG    1       -2.475  -0.461  -2.568  0.00  0.00    +0.010 C 
ATOM      9  C   LIG    1       -2.211   1.042  -2.679  0.00  0.00    +0.030 C 
ATOM     10 CL   LIG    1       -4.981   2.072  -3.508  0.00  0.00    -0.170 Cl
ATOM     11  C   LIG    1       -3.034   1.783  -1.623  0.00  0.00    +0.000 C 
ATOM     12  C   LIG    1       -2.639   1.279  -0.231  0.00  0.00    +0.280 C 
ATOM     13  O   LIG    1       -1.827   2.737   1.911  0.00  0.00    -0.490 OA
ENDROOT
BRANCH   1  16
ATOM     14  C   LIG    1       -4.391   4.617   4.651  0.00  0.00    +0.150 A 
ATOM     15  C   LIG    1       -3.545   4.146   3.664  0.00  0.00    -0.020 A 
ATOM     16  C   LIG    1       -3.927   3.056   2.879  0.00  0.00    -0.060 A 
ATOM     17  C   LIG    1       -5.167   2.448   3.088  0.00  0.00    -0.070 A 
ATOM     18  C   LIG    1       -6.008   2.919   4.079  0.00  0.00    +0.140 A 
ATOM     19  C   LIG    1       -5.624   4.005   4.861  0.00  0.00    +0.050 A 
BRANCH  14  21
ATOM     20  C   LIG    1       -2.742   6.257   5.145  0.00  0.00    +0.250 C 
ATOM     21  O   LIG    1       -4.020   5.678   5.416  0.00  0.00    -0.300 OA
ENDBRANCH  14  21
BRANCH  18  22
ATOM     22  O   LIG    1       -7.213   2.324   4.287  0.00  0.00    -0.300 OA
ATOM     23  C   LIG    1       -7.543   1.215   3.448  0.00  0.00    +0.250 C 
ENDBRANCH  18  22
BRANCH  19  24
ATOM     24  O   LIG    1       -6.455   4.469   5.831  0.00  0.00    -0.310 OA
ATOM     25  C   LIG    1       -7.388   5.484   5.456  0.00  0.00    +0.240 C 
ENDBRANCH  19  24
ENDBRANCH   1  16
BRANCH  12  26
ATOM     26  C   LIG    1       -1.213   1.668   0.062  0.00  0.00    -0.050 A 
ATOM     27  C   LIG    1       -0.326   0.725   0.547  0.00  0.00    +0.000 A 
ATOM     28  C   LIG    1        0.984   1.080   0.810  0.00  0.00    +0.000 A 
ATOM     29  C   LIG    1        1.405   2.379   0.594  0.00  0.00    +0.000 A 
ATOM     30  C   LIG    1        0.515   3.323   0.115  0.00  0.00    -0.010 A 
ATOM     31  C   LIG    1       -0.794   2.968  -0.148  0.00  0.00    +0.040 A 
ENDBRANCH  12  26
TORSDOF 5
