REMARK  Name = ZINCrg00000SjSvB.0
REMARK                            x       y       z     vdW  Elec       q    Type
REMARK                         _______ _______ _______ _____ _____    ______ ____
ROOT
ATOM      1  C   LIG    1        3.661   6.752  -2.033  0.00  0.00    +0.580 C 
ATOM      2  N   LIG    1        3.470   6.365  -0.756  0.00  0.00    -0.640 N 
ATOM      3  C   LIG    1        4.362   6.117   0.394  0.00  0.00    +0.330 C 
ATOM      4  C   LIG    1        3.250   5.191   0.921  0.00  0.00    +0.120 C 
ATOM      5  C   LIG    1        2.286   6.020   0.054  0.00  0.00    +0.320 C 
ATOM      6  O   LIG    1        4.783   6.974  -2.438  0.00  0.00    -0.530 OA
ENDROOT
BRANCH   4   7
ATOM      7  C   LIG    1        3.004   5.322   2.402  0.00  0.00    +0.540 C 
ATOM      8  O   LIG    1        3.506   6.235   3.022  0.00  0.00    -0.520 OA
ATOM      9  N   LIG    1        2.225   4.424   3.038  0.00  0.00    -0.850 N 
ATOM     10  H   LIG    1        2.007   4.548   3.975  0.00  0.00    +0.410 HD
ATOM     11  H   LIG    1        1.883   3.654   2.558  0.00  0.00    +0.400 HD
ENDBRANCH   4   7
BRANCH   4  12
ATOM     12  N   LIG    1        3.386   3.799   0.486  0.00  0.00    -0.600 N 
ATOM     13  C   LIG    1        4.433   3.061   0.905  0.00  0.00    +0.550 C 
ATOM     14  O   LIG    1        5.212   3.518   1.714  0.00  0.00    -0.500 OA
ATOM     15  C   LIG    1        2.384   3.209  -0.405  0.00  0.00    +0.290 C 
BRANCH  13  16
ATOM     16  C   LIG    1        4.635   1.667   0.369  0.00  0.00    -0.060 C 
ATOM     17  C   LIG    1        4.193   0.499   1.253  0.00  0.00    +0.060 C 
ATOM     18  C   LIG    1        5.682   0.790   1.058  0.00  0.00    +0.030 C 
BRANCH  18  19
ATOM     19  C   LIG    1        6.445   1.395   2.238  0.00  0.00    +0.010 C 
ATOM     20  C   LIG    1        7.601   0.582   2.824  0.00  0.00    +0.000 C 
ATOM     21  C   LIG    1        7.889   1.836   1.995  0.00  0.00    -0.040 C 
ATOM     22  C   LIG    1        8.461   1.637   0.590  0.00  0.00    +0.050 C 
ENDBRANCH  18  19
ENDBRANCH  13  16
ENDBRANCH   4  12
BRANCH   1  25
ATOM     23  C   LIG    1        2.339   5.899  -4.098  0.00  0.00    +0.030 C 
ATOM     24  C   LIG    1        2.765   7.337  -4.398  0.00  0.00    +0.080 C 
ATOM     25  C   LIG    1        2.482   6.908  -2.957  0.00  0.00    -0.070 C 
BRANCH  23  29
ATOM     26  C   LIG    1        2.196   4.099  -6.422  0.00  0.00    +0.060 C 
ATOM     27  C   LIG    1        3.331   3.872  -5.421  0.00  0.00    -0.040 C 
ATOM     28  C   LIG    1        2.954   3.357  -4.029  0.00  0.00    +0.020 C 
ATOM     29  C   LIG    1        3.405   4.808  -4.213  0.00  0.00    -0.020 C 
ENDBRANCH  23  29
ENDBRANCH   1  25
TORSDOF 6
