REMARK  Name = ZINCqH00000h8oW2.0
REMARK                            x       y       z     vdW  Elec       q    Type
REMARK                         _______ _______ _______ _____ _____    ______ ____
ROOT
ATOM      1  C   LIG    1        3.582   5.886   0.487  0.00  0.00    +0.050 C 
ATOM      2  C   LIG    1        2.233   5.179   0.337  0.00  0.00    +0.140 C 
ATOM      3  C   LIG    1        1.317   6.007  -0.574  0.00  0.00    +0.080 C 
ATOM      4  C   LIG    1       -0.078   5.378  -0.535  0.00  0.00    +0.040 C 
ATOM      5  C   LIG    1        0.032   3.886  -0.722  0.00  0.00    -0.110 A 
ATOM      6  C   LIG    1       -1.116   3.182  -1.047  0.00  0.00    +0.020 A 
ATOM      7  C   LIG    1       -1.071   1.813  -1.228  0.00  0.00    -0.020 A 
ATOM      8  C   LIG    1        0.125   1.137  -1.074  0.00  0.00    +0.040 A 
ATOM      9  C   LIG    1        1.272   1.831  -0.754  0.00  0.00    +0.000 A 
ATOM     10  C   LIG    1        1.234   3.216  -0.578  0.00  0.00    +0.130 A 
ATOM     11  N   LIG    1        2.431   3.861  -0.270  0.00  0.00    -0.470 N 
ENDROOT
BRANCH   4  12
ATOM     12  C   LIG    1       -0.922   5.962  -1.639  0.00  0.00    +0.530 C 
ATOM     13  O   LIG    1       -0.399   6.346  -2.663  0.00  0.00    -0.530 OA
ATOM     14  N   LIG    1       -2.258   6.056  -1.488  0.00  0.00    -0.860 N 
ATOM     15  H   LIG    1       -2.792   6.500  -2.165  0.00  0.00    +0.400 HD
ATOM     16  H   LIG    1       -2.685   5.681  -0.702  0.00  0.00    +0.400 HD
ENDBRANCH   4  12
BRANCH  11  17
ATOM     17  C   LIG    1        3.283   3.015   0.576  0.00  0.00    +0.390 C 
BRANCH  17  18
ATOM     18  C   LIG    1        2.578   2.732   1.877  0.00  0.00    +0.150 A 
ATOM     19  N   LIG    1        1.871   1.668   2.139  0.00  0.00    -0.450 NA
ATOM     20  C   LIG    1        1.398   1.758   3.390  0.00  0.00    +0.170 A 
ATOM     21  C   LIG    1        1.832   2.936   3.908  0.00  0.00    -0.000 A 
ATOM     22  O   LIG    1        2.570   3.536   2.949  0.00  0.00    -0.190 OA
BRANCH  21  23
ATOM     23  C   LIG    1        1.551   3.460   5.261  0.00  0.00    -0.020 A 
ATOM     24  C   LIG    1        2.073   4.692   5.658  0.00  0.00    +0.030 A 
ATOM     25  C   LIG    1        1.803   5.179   6.920  0.00  0.00    +0.010 A 
ATOM     26  C   LIG    1        1.024   4.443   7.796  0.00  0.00    +0.020 A 
ATOM     27  C   LIG    1        0.508   3.219   7.411  0.00  0.00    +0.020 A 
ATOM     28  C   LIG    1        0.767   2.723   6.150  0.00  0.00    +0.030 A 
ENDBRANCH  21  23
ENDBRANCH  17  18
ENDBRANCH  11  17
TORSDOF 4
