REMARK  Name = ZINCpk000000nKS9.0
REMARK                            x       y       z     vdW  Elec       q    Type
REMARK                         _______ _______ _______ _____ _____    ______ ____
ROOT
ATOM      1  C   LIG    1       -1.583  -0.697  -1.714  0.00  0.00    +0.510 C 
ATOM      2  N   LIG    1       -0.302  -0.514  -1.337  0.00  0.00    -0.720 N 
ATOM      3  H   LIG    1        0.418  -0.719  -1.953  0.00  0.00    +0.400 HD
ATOM      4  O   LIG    1       -2.484  -0.441  -0.944  0.00  0.00    -0.510 OA
ENDROOT
BRANCH   2   5
ATOM      5  C   LIG    1        0.002  -0.004   0.002  0.00  0.00    +0.250 C 
ATOM      6  C   LIG    1        1.450  -0.366   0.406  0.00  0.00    +0.060 C 
ATOM      7  C   LIG    1        2.223   0.901  -0.024  0.00  0.00    +0.270 C 
ATOM      8  N   LIG    1        1.237   1.988   0.001  0.00  0.00    -0.530 N 
ATOM      9  C   LIG    1       -0.018   1.509   0.010  0.00  0.00    +0.500 C 
ATOM     10  O   LIG    1       -1.022   2.190   0.019  0.00  0.00    -0.500 OA
BRANCH   8  11
ATOM     11  C   LIG    1        1.565   3.357   0.013  0.00  0.00    +0.000 A 
ATOM     12  C   LIG    1        0.684   4.390   0.037  0.00  0.00    +0.230 A 
ATOM     13  N   LIG    1        1.403   5.542   0.042  0.00  0.00    -0.370 N 
ATOM     14  N   LIG    1        2.762   5.201   0.021  0.00  0.00    -0.280 NA
ATOM     15  C   LIG    1        0.855   6.900   0.065  0.00  0.00    +0.360 C 
ATOM     16  C   LIG    1        2.860   3.896   0.010  0.00  0.00    +0.230 A 
ENDBRANCH   8  11
ENDBRANCH   2   5
BRANCH   1  17
ATOM     17  C   LIG    1       -1.896  -1.221  -3.091  0.00  0.00    +0.050 C 
BRANCH  17  20
ATOM     18  C   LIG    1       -3.216  -1.062  -5.734  0.00  0.00    +0.150 C 
ATOM     19  C   LIG    1       -3.729  -1.974  -4.617  0.00  0.00    +0.010 C 
ATOM     20  C   LIG    1       -3.412  -1.336  -3.261  0.00  0.00    +0.010 C 
ATOM     21  C   LIG    1       -4.041   0.060  -3.207  0.00  0.00    +0.000 C 
ATOM     22  C   LIG    1       -3.515   0.893  -4.379  0.00  0.00    +0.190 C 
ATOM     23  O   LIG    1       -3.816   0.228  -5.608  0.00  0.00    -0.380 OA
BRANCH  18  25
ATOM     24  C   LIG    1       -3.069  -0.751  -8.209  0.00  0.00    +0.020 C 
ATOM     25  C   LIG    1       -3.582  -1.664  -7.093  0.00  0.00    -0.010 C 
ATOM     26  C   LIG    1       -2.939  -3.046  -7.229  0.00  0.00    +0.030 C 
ENDBRANCH  18  25
ENDBRANCH  17  20
ENDBRANCH   1  17
TORSDOF 5
