REMARK  Name = ZINCqH0000035P9l.0
REMARK                            x       y       z     vdW  Elec       q    Type
REMARK                         _______ _______ _______ _____ _____    ______ ____
ROOT
ATOM      1  C   LIG    1        1.738   1.748  -0.005  0.00  0.00    +0.100 A 
ATOM      2  N   LIG    1        2.198   0.533  -0.016  0.00  0.00    -0.440 NA
ATOM      3  C   LIG    1        1.285  -0.429  -0.013  0.00  0.00    +0.010 A 
ATOM      4  C   LIG    1        0.002  -0.004   0.002  0.00  0.00    -0.020 A 
ATOM      5  S   LIG    1       -0.021   1.706   0.011  0.00  0.00    +0.190 S 
ENDROOT
BRANCH   1   9
ATOM      6  C   LIG    1        4.119   5.271  -0.010  0.00  0.00    +0.120 A 
ATOM      7  C   LIG    1        4.726   4.024  -0.023  0.00  0.00    -0.030 A 
ATOM      8  C   LIG    1        3.956   2.879  -0.021  0.00  0.00    +0.080 A 
ATOM      9  C   LIG    1        2.564   2.974  -0.007  0.00  0.00    -0.030 A 
ATOM     10  C   LIG    1        1.953   4.229  -0.000  0.00  0.00    -0.010 A 
ATOM     11  C   LIG    1        2.729   5.373   0.003  0.00  0.00    +0.100 A 
BRANCH   6  13
ATOM     12  C   LIG    1        6.299   6.220  -0.026  0.00  0.00    +0.240 C 
ATOM     13  O   LIG    1        4.881   6.397  -0.011  0.00  0.00    -0.300 OA
ENDBRANCH   6  13
BRANCH  11  14
ATOM     14  O   LIG    1        2.137   6.597   0.015  0.00  0.00    -0.300 OA
ATOM     15  C   LIG    1        0.708   6.626   0.029  0.00  0.00    +0.250 C 
ENDBRANCH  11  14
ENDBRANCH   1   9
BRANCH   3  16
ATOM     16  C   LIG    1        1.643  -1.858  -0.023  0.00  0.00    +0.600 C 
ATOM     17  N   LIG    1        2.939  -2.228  -0.037  0.00  0.00    -0.710 N 
ATOM     18  H   LIG    1        3.636  -1.553  -0.041  0.00  0.00    +0.410 HD
ATOM     19  O   LIG    1        0.770  -2.704  -0.019  0.00  0.00    -0.530 OA
BRANCH  17  20
ATOM     20  C   LIG    1        3.296  -3.648  -0.048  0.00  0.00    +0.290 C 
ATOM     21  C   LIG    1        3.312  -4.181   1.386  0.00  0.00    +0.040 C 
BRANCH  20  22
ATOM     22  C   LIG    1        4.661  -3.819  -0.663  0.00  0.00    -0.150 A 
ATOM     23  C   LIG    1        4.920  -4.883  -1.513  0.00  0.00    +0.080 A 
ATOM     24  C   LIG    1        6.189  -4.997  -2.059  0.00  0.00    -0.030 A 
ATOM     25  C   LIG    1        7.151  -4.060  -1.732  0.00  0.00    +0.260 A 
ATOM     26  N   LIG    1        6.870  -3.064  -0.915  0.00  0.00    -0.480 NA
ATOM     27  C   LIG    1        5.673  -2.921  -0.381  0.00  0.00    +0.260 A 
ENDBRANCH  20  22
ENDBRANCH  17  20
ENDBRANCH   3  16
TORSDOF 6
