REMARK  Name = ZINCtV00001bB3TS.0
REMARK                            x       y       z     vdW  Elec       q    Type
REMARK                         _______ _______ _______ _____ _____    ______ ____
ROOT
ATOM      1  N   LIG    1        0.931  10.101   0.932  0.00  0.00    -0.140 NA
ATOM      2  N   LIG    1        1.032  11.316   1.156  0.00  0.00    -0.200 NA
ENDROOT
BRANCH   2   3
ATOM      3  C   LIG    1        2.022  11.782   1.980  0.00  0.00    +0.350 A 
ATOM      4  C   LIG    1        2.150  13.172   2.245  0.00  0.00    -0.120 A 
ATOM      5  C   LIG    1        3.184  13.577   3.097  0.00  0.00    +0.090 A 
ATOM      6  S   LIG    1        3.145  15.322   3.278  0.00  0.00    +0.180 S 
ATOM      7  C   LIG    1        1.755  15.478   2.217  0.00  0.00    -0.160 A 
ATOM      8  C   LIG    1        1.093  16.799   1.863  0.00  0.00    +0.120 C 
ATOM      9  C   LIG    1        0.215  16.595   0.626  0.00  0.00    +0.030 C 
ATOM     10  C   LIG    1       -0.685  15.376   0.851  0.00  0.00    +0.020 C 
ATOM     11  C   LIG    1        0.171  14.109   0.817  0.00  0.00    +0.120 C 
ATOM     12  N   LIG    1        3.997  12.654   3.616  0.00  0.00    -0.480 NA
ATOM     13  C   LIG    1        3.839  11.378   3.340  0.00  0.00    +0.520 A 
ATOM     14  C   LIG    1        1.353  14.288   1.761  0.00  0.00    -0.070 A 
ATOM     15  N   LIG    1        2.879  10.942   2.549  0.00  0.00    -0.510 NA
ENDBRANCH   2   3
BRANCH   1  17
ATOM     16  C   LIG    1        0.102  10.124  -1.368  0.00  0.00    +0.070 C 
ATOM     17  C   LIG    1       -0.128   9.603   0.052  0.00  0.00    +0.190 C 
BRANCH  17  18
ATOM     18  C   LIG    1       -0.108   8.096   0.044  0.00  0.00    -0.080 A 
ATOM     19  C   LIG    1       -1.298   7.391   0.051  0.00  0.00    +0.030 A 
ATOM     20  C   LIG    1       -1.285   6.011   0.044  0.00  0.00    +0.020 A 
ATOM     21  C   LIG    1       -0.070   5.328   0.029  0.00  0.00    -0.040 A 
ATOM     22  C   LIG    1        1.125   6.043   0.027  0.00  0.00    +0.020 A 
ATOM     23  C   LIG    1        1.101   7.423   0.029  0.00  0.00    +0.050 A 
BRANCH  21  24
ATOM     24  C   LIG    1       -0.050   3.844   0.022  0.00  0.00    -0.050 A 
ATOM     25  C   LIG    1        1.164   3.161   0.007  0.00  0.00    +0.020 A 
ATOM     26  C   LIG    1        1.177   1.781   0.000  0.00  0.00    +0.000 A 
ATOM     27  C   LIG    1       -0.013   1.076   0.008  0.00  0.00    +0.000 A 
ATOM     28  C   LIG    1       -1.221   1.748   0.017  0.00  0.00    +0.000 A 
ATOM     29  C   LIG    1       -1.246   3.128   0.030  0.00  0.00    +0.020 A 
ENDBRANCH  21  24
ENDBRANCH  17  18
ENDBRANCH   1  17
TORSDOF 4
