REMARK  Name = ZINCtV00001bB3TS.1
REMARK                            x       y       z     vdW  Elec       q    Type
REMARK                         _______ _______ _______ _____ _____    ______ ____
ROOT
ATOM      1  C   LIG    1        1.166  10.341   0.073  0.00  0.00    +0.090 C 
ATOM      2  C   LIG    1       -0.111   9.610  -0.253  0.00  0.00    +0.130 C 
ATOM      3  N   LIG    1       -1.244  10.243  -0.238  0.00  0.00    -0.220 NA
ENDROOT
BRANCH   2   4
ATOM      4  C   LIG    1       -0.074   8.175  -0.587  0.00  0.00    -0.050 A 
ATOM      5  C   LIG    1       -1.258   7.496  -0.889  0.00  0.00    +0.070 A 
ATOM      6  C   LIG    1       -1.221   6.156  -1.201  0.00  0.00    +0.020 A 
ATOM      7  C   LIG    1       -0.003   5.475  -1.216  0.00  0.00    -0.030 A 
ATOM      8  C   LIG    1        1.179   6.151  -0.910  0.00  0.00    +0.020 A 
ATOM      9  C   LIG    1        1.146   7.492  -0.603  0.00  0.00    +0.040 A 
BRANCH   7  10
ATOM     10  C   LIG    1        0.034   4.032  -1.552  0.00  0.00    -0.050 A 
ATOM     11  C   LIG    1        1.250   3.349  -1.568  0.00  0.00    +0.020 A 
ATOM     12  C   LIG    1        1.278   2.005  -1.882  0.00  0.00    +0.010 A 
ATOM     13  C   LIG    1        0.105   1.336  -2.180  0.00  0.00    +0.000 A 
ATOM     14  C   LIG    1       -1.103   2.010  -2.171  0.00  0.00    +0.010 A 
ATOM     15  C   LIG    1       -1.145   3.353  -1.854  0.00  0.00    +0.020 A 
ENDBRANCH   7  10
ENDBRANCH   2   4
BRANCH   3  16
ATOM     16  N   LIG    1       -1.280  11.607   0.080  0.00  0.00    -0.550 N 
ATOM     17  H   LIG    1       -0.458  12.078   0.290  0.00  0.00    +0.400 HD
BRANCH  16  18
ATOM     18  C   LIG    1       -2.487  12.283   0.096  0.00  0.00    +0.500 A 
ATOM     19  C   LIG    1       -2.522  13.697   0.211  0.00  0.00    -0.220 A 
ATOM     20  C   LIG    1       -3.771  14.315   0.220  0.00  0.00    +0.120 A 
ATOM     21  S   LIG    1       -3.568  16.052   0.368  0.00  0.00    +0.180 S 
ATOM     22  C   LIG    1       -1.818  15.920   0.416  0.00  0.00    -0.170 A 
ATOM     23  C   LIG    1       -0.874  17.102   0.544  0.00  0.00    +0.120 C 
ATOM     24  C   LIG    1        0.505  16.590   0.968  0.00  0.00    +0.030 C 
ATOM     25  C   LIG    1        0.913  15.439   0.043  0.00  0.00    +0.030 C 
ATOM     26  C   LIG    1        0.038  14.221   0.344  0.00  0.00    +0.080 C 
ATOM     27  N   LIG    1       -4.874  13.559   0.122  0.00  0.00    -0.520 NA
ATOM     28  C   LIG    1       -4.790  12.253   0.018  0.00  0.00    +0.560 A 
ATOM     29  C   LIG    1       -1.423  14.648   0.327  0.00  0.00    -0.070 A 
ATOM     30  N   LIG    1       -3.631  11.621  -0.002  0.00  0.00    -0.550 NA
ENDBRANCH  16  18
ENDBRANCH   3  16
TORSDOF 4
