REMARK  Name = ZINCrD0000074oB2.0
REMARK                            x       y       z     vdW  Elec       q    Type
REMARK                         _______ _______ _______ _____ _____    ______ ____
ROOT
ATOM      1  C   LIG    1       -0.126   7.540   0.148  0.00  0.00    +0.530 C 
ATOM      2  N   LIG    1        0.309   8.552  -0.629  0.00  0.00    -0.560 N 
ATOM      3  C   LIG    1        0.075   9.953  -0.243  0.00  0.00    +0.300 C 
ATOM      4  C   LIG    1        1.215  10.479   0.598  0.00  0.00    +0.030 C 
ATOM      5  C   LIG    1        2.545  10.633  -0.125  0.00  0.00    +0.030 C 
ATOM      6  S   LIG    1        3.253   9.000  -0.487  0.00  0.00    -0.140 S 
ATOM      7  C   LIG    1        2.353   8.525  -1.944  0.00  0.00    -0.100 A 
ATOM      8  C   LIG    1        3.010   8.345  -3.146  0.00  0.00    +0.080 A 
ATOM      9  C   LIG    1        2.299   7.883  -4.242  0.00  0.00    +0.030 A 
ATOM     10  C   LIG    1        0.948   7.611  -4.124  0.00  0.00    +0.040 A 
ATOM     11  C   LIG    1        0.288   7.816  -2.926  0.00  0.00    +0.010 A 
ATOM     12  C   LIG    1        3.514  11.422   0.758  0.00  0.00    +0.080 C 
ATOM     13  C   LIG    1        0.989   8.297  -1.827  0.00  0.00    +0.140 A 
ATOM     14  O   LIG    1       -0.714   7.778   1.182  0.00  0.00    -0.500 OA
ENDROOT
BRANCH   1  15
ATOM     15  C   LIG    1        0.117   6.112  -0.269  0.00  0.00    +0.260 C 
BRANCH  15  16
ATOM     16  O   LIG    1       -0.442   5.216   0.727  0.00  0.00    -0.320 OA
BRANCH  16  17
ATOM     17  C   LIG    1       -0.308   3.893   0.503  0.00  0.00    +0.530 C 
ATOM     18  O   LIG    1        0.260   3.501  -0.496  0.00  0.00    -0.500 OA
BRANCH  17  27
ATOM     19  C   LIG    1       -1.686   4.850   2.904  0.00  0.00    +0.150 C 
ATOM     20  C   LIG    1       -1.521   3.376   2.637  0.00  0.00    +0.060 A 
ATOM     21  C   LIG    1       -2.006   2.457   3.514  0.00  0.00    -0.110 A 
ATOM     22  C   LIG    1       -1.838   1.086   3.239  0.00  0.00    +0.500 A 
ATOM     23  O   LIG    1       -1.204   0.686   2.124  0.00  0.00    -0.250 OA
ATOM     24  C   LIG    1       -0.718   1.572   1.248  0.00  0.00    +0.240 A 
ATOM     25  C   LIG    1       -0.013   1.086   0.008  0.00  0.00    +0.210 C 
ATOM     26  O   LIG    1       -2.270   0.255   4.020  0.00  0.00    -0.460 OA
ATOM     27  C   LIG    1       -0.852   2.924   1.471  0.00  0.00    -0.270 A 
ENDBRANCH  17  27
ENDBRANCH  16  17
ENDBRANCH  15  16
ENDBRANCH   1  15
TORSDOF 4
