REMARK  Name = ZINCvU0000000CVA.0
REMARK                            x       y       z     vdW  Elec       q    Type
REMARK                         _______ _______ _______ _____ _____    ______ ____
ROOT
ATOM      1  N   LIG    1        5.220   0.519   7.592  0.00  0.00    -0.470 N 
ATOM      2  C   LIG    1        5.816   1.033   8.694  0.00  0.00    +0.560 A 
ATOM      3  C   LIG    1        5.136   2.140   9.379  0.00  0.00    -0.200 A 
ATOM      4  C   LIG    1        5.668   2.732  10.524  0.00  0.00    +0.100 A 
ATOM      5  C   LIG    1        4.992   3.768  11.130  0.00  0.00    -0.010 A 
ATOM      6  C   LIG    1        3.788   4.225  10.610  0.00  0.00    +0.070 A 
ATOM      7  C   LIG    1        3.245   3.656   9.481  0.00  0.00    +0.030 A 
ATOM      8  C   LIG    1        3.911   2.603   8.848  0.00  0.00    +0.170 A 
ATOM      9  N   LIG    1        3.412   2.019   7.739  0.00  0.00    -0.530 NA
ATOM     10  O   LIG    1        6.873   0.590   9.104  0.00  0.00    -0.490 OA
ATOM     11  C   LIG    1        4.035   1.032   7.143  0.00  0.00    +0.380 A 
ENDROOT
BRANCH   1  17
ATOM     12  C   LIG    1        5.525  -1.859   7.248  0.00  0.00    +0.160 A 
ATOM     13  C   LIG    1        6.125  -2.904   6.565  0.00  0.00    -0.060 A 
ATOM     14  C   LIG    1        7.019  -2.639   5.544  0.00  0.00    +0.090 A 
ATOM     15  C   LIG    1        7.318  -1.333   5.203  0.00  0.00    -0.010 A 
ATOM     16  C   LIG    1        6.718  -0.285   5.876  0.00  0.00    +0.090 A 
ATOM     17  C   LIG    1        5.825  -0.542   6.904  0.00  0.00    +0.050 A 
BRANCH  12  18
ATOM     18  O   LIG    1        4.645  -2.118   8.252  0.00  0.00    -0.310 OA
BRANCH  18  20
ATOM     19  C   LIG    1        3.379  -3.583   9.698  0.00  0.00    +0.070 C 
ATOM     20  C   LIG    1        4.386  -3.491   8.550  0.00  0.00    +0.190 C 
ENDBRANCH  18  20
ENDBRANCH  12  18
ENDBRANCH   1  17
BRANCH  11  21
ATOM     21  S   LIG    1        3.308   0.330   5.700  0.00  0.00    +0.050 S 
BRANCH  21  22
ATOM     22  C   LIG    1        1.815   1.346   5.574  0.00  0.00    +0.160 C 
ATOM     23  C   LIG    1        0.914   1.081   6.781  0.00  0.00    +0.100 C 
BRANCH  22  24
ATOM     24  C   LIG    1        1.075   0.996   4.308  0.00  0.00    +0.190 A 
ATOM     25  N   LIG    1        0.555   1.839   3.449  0.00  0.00    -0.460 NA
ATOM     26  C   LIG    1        0.000   1.080   2.488  0.00  0.00    +0.180 A 
ATOM     27  N   LIG    1        0.203  -0.163   2.808  0.00  0.00    -0.370 NA
ATOM     28  O   LIG    1        0.824  -0.233   3.847  0.00  0.00    +0.090 OA
BRANCH  26  29
ATOM     29  C   LIG    1       -0.729   1.579   1.267  0.00  0.00    +0.090 C 
ATOM     30  C   LIG    1       -2.164   1.050   1.278  0.00  0.00    +0.040 C 
ATOM     31  C   LIG    1       -0.013   1.086   0.008  0.00  0.00    +0.040 C 
ENDBRANCH  26  29
ENDBRANCH  22  24
ENDBRANCH  21  22
ENDBRANCH  11  21
TORSDOF 7
