REMARK  Name = ZINCrH000004k1Pw.0
REMARK                            x       y       z     vdW  Elec       q    Type
REMARK                         _______ _______ _______ _____ _____    ______ ____
ROOT
ATOM      1  C   LIG    1        3.009  -4.706   2.340  0.00  0.00    +0.320 C 
ATOM      2  N   LIG    1        3.852  -3.877   1.475  0.00  0.00    -0.590 N 
ATOM      3  C   LIG    1        5.105  -3.561   1.858  0.00  0.00    +0.600 C 
ATOM      4  O   LIG    1        5.770  -2.796   1.188  0.00  0.00    -0.520 OA
ENDROOT
BRANCH   3   5
ATOM      5  C   LIG    1        5.672  -4.147   3.097  0.00  0.00    -0.020 A 
ATOM      6  N   LIG    1        5.124  -5.066   3.854  0.00  0.00    -0.310 NA
ATOM      7  O   LIG    1        5.824  -5.346   4.799  0.00  0.00    +0.130 OA
ATOM      8  C   LIG    1        6.965  -4.633   4.801  0.00  0.00    +0.010 A 
ATOM      9  C   LIG    1        6.918  -3.829   3.696  0.00  0.00    +0.030 A 
BRANCH   8  10
ATOM     10  C   LIG    1        8.054  -4.707   5.798  0.00  0.00    -0.010 A 
ATOM     11  C   LIG    1        7.957  -5.587   6.876  0.00  0.00    +0.080 A 
ATOM     12  C   LIG    1        8.976  -5.653   7.804  0.00  0.00    +0.040 A 
ATOM     13  C   LIG    1       10.094  -4.847   7.668  0.00  0.00    +0.090 A 
ATOM     14  C   LIG    1       10.197  -3.970   6.597  0.00  0.00    +0.070 A 
ATOM     15  F   LIG    1       11.290  -3.186   6.469  0.00  0.00    -0.120 F 
ATOM     16  F   LIG    1       11.088  -4.916   8.580  0.00  0.00    -0.120 F 
ATOM     17  C   LIG    1        9.185  -3.900   5.660  0.00  0.00    +0.060 A 
ENDBRANCH   8  10
ENDBRANCH   3   5
BRANCH   2  18
ATOM     18  C   LIG    1        3.333  -3.393   0.193  0.00  0.00    +0.430 C 
BRANCH  18  19
ATOM     19  C   LIG    1        2.664  -2.058   0.394  0.00  0.00    +0.260 A 
ATOM     20  N   LIG    1        1.431  -1.892   0.773  0.00  0.00    -0.480 NA
ATOM     21  C   LIG    1        1.153  -0.565   0.854  0.00  0.00    +0.040 A 
ATOM     22  C   LIG    1        0.012   0.161   1.203  0.00  0.00    +0.070 A 
ATOM     23  C   LIG    1        0.043   1.527   1.190  0.00  0.00    +0.000 A 
ATOM     24  C   LIG    1        1.199   2.205   0.833  0.00  0.00    +0.030 A 
ATOM     25  C   LIG    1        2.338   1.509   0.484  0.00  0.00    +0.010 A 
ATOM     26  C   LIG    1        2.325   0.121   0.492  0.00  0.00    +0.050 A 
ATOM     27  N   LIG    1        3.263  -0.851   0.207  0.00  0.00    -0.590 N 
ATOM     28  H   LIG    1        4.179  -0.701  -0.075  0.00  0.00    +0.430 HD
ENDBRANCH  18  19
ENDBRANCH   2  18
TORSDOF 4
