REMARK  Name = ZINCpk00001AZjbz.0
REMARK                            x       y       z     vdW  Elec       q    Type
REMARK                         _______ _______ _______ _____ _____    ______ ____
ROOT
ATOM      1  C   LIG    1       -0.884   3.293   1.452  0.00  0.00    +0.560 C 
ATOM      2  N   LIG    1       -0.738   1.972   1.227  0.00  0.00    -0.730 N 
ATOM      3  H   LIG    1       -1.090   1.330   1.863  0.00  0.00    +0.400 HD
ATOM      4  O   LIG    1       -0.443   4.098   0.656  0.00  0.00    -0.530 OA
ENDROOT
BRANCH   1   9
ATOM      5  C   LIG    1       -2.388   5.562   4.048  0.00  0.00    -0.100 A 
ATOM      6  C   LIG    1       -2.889   4.635   4.955  0.00  0.00    +0.020 A 
ATOM      7  C   LIG    1       -2.738   3.281   4.721  0.00  0.00    +0.040 A 
ATOM      8  C   LIG    1       -2.093   2.840   3.583  0.00  0.00    +0.040 A 
ATOM      9  C   LIG    1       -1.581   3.763   2.669  0.00  0.00    -0.120 A 
ATOM     10  C   LIG    1       -1.733   5.129   2.905  0.00  0.00    +0.100 A 
BRANCH   5  11
ATOM     11  S   LIG    1       -2.584   7.286   4.352  0.00  0.00    -0.080 S 
BRANCH  11  12
ATOM     12  C   LIG    1       -3.479   7.324   5.929  0.00  0.00    +0.220 C 
BRANCH  12  14
ATOM     13  C   LIG    1       -3.916   9.836   6.637  0.00  0.00    +0.080 C 
ATOM     14  C   LIG    1       -3.722   8.721   6.323  0.00  0.00    -0.200 C 
ENDBRANCH  12  14
ENDBRANCH  11  12
ENDBRANCH   5  11
ENDBRANCH   1   9
BRANCH   2  15
ATOM     15  C   LIG    1       -0.048   1.507   0.021  0.00  0.00    +0.270 C 
BRANCH  15  16
ATOM     16  C   LIG    1       -0.020  -0.023   0.009  0.00  0.00    +0.170 C 
BRANCH  16  17
ATOM     17  N   LIG    1        0.672  -0.489  -1.200  0.00  0.00    -0.530 NA
ATOM     18  C   LIG    1       -0.084  -0.136  -2.409  0.00  0.00    +0.160 C 
ATOM     19  C   LIG    1        0.752  -0.476  -3.648  0.00  0.00    +0.280 C 
ATOM     20  N   LIG    1        1.164  -1.886  -3.561  0.00  0.00    -0.610 N 
ATOM     21  C   LIG    1        1.806  -2.348  -2.322  0.00  0.00    +0.300 C 
ATOM     22  C   LIG    1        0.959  -2.731  -4.591  0.00  0.00    +0.550 C 
ATOM     23  O   LIG    1        1.387  -3.868  -4.539  0.00  0.00    -0.540 OA
ATOM     24  C   LIG    1        0.929  -1.934  -1.135  0.00  0.00    +0.170 C 
BRANCH  22  25
ATOM     25  C   LIG    1        0.217  -2.278  -5.778  0.00  0.00    -0.090 C 
ATOM     26  C   LIG    1       -0.078  -3.140  -6.747  0.00  0.00    +0.140 C 
ENDBRANCH  22  25
ENDBRANCH  16  17
ENDBRANCH  15  16
ENDBRANCH   2  15
TORSDOF 8
