REMARK  Name = ZINCrg00000acbLO.0
REMARK                            x       y       z     vdW  Elec       q    Type
REMARK                         _______ _______ _______ _____ _____    ______ ____
ROOT
ATOM      1  C   LIG    1       -0.755  -3.919  -1.154  0.00  0.00    +0.290 A 
ATOM      2  C   LIG    1       -0.226  -4.573  -2.261  0.00  0.00    -0.020 A 
ATOM      3  C   LIG    1       -0.243  -5.956  -2.298  0.00  0.00    -0.030 A 
ATOM      4  C   LIG    1       -0.792  -6.640  -1.222  0.00  0.00    -0.010 A 
ATOM      5  C   LIG    1       -1.300  -5.927  -0.155  0.00  0.00    +0.300 A 
ATOM      6  N   LIG    1       -1.266  -4.608  -0.145  0.00  0.00    -0.510 NA
ENDROOT
BRANCH   1  10
ATOM      7  N   LIG    1        0.002  -0.004   0.002  0.00  0.00    -0.390 N 
ATOM      8  C   LIG    1        0.583  -0.479  -1.261  0.00  0.00    +0.270 C 
ATOM      9  C   LIG    1        0.621  -2.008  -1.262  0.00  0.00    +0.230 C 
ATOM     10  N   LIG    1       -0.744  -2.530  -1.104  0.00  0.00    -0.480 N 
ATOM     11  C   LIG    1       -1.347  -2.043   0.144  0.00  0.00    +0.250 C 
ATOM     12  C   LIG    1       -1.370  -0.513   0.134  0.00  0.00    +0.280 C 
ATOM     13  H   LIG    1        0.560  -0.337   0.774  0.00  0.00    +0.420 HD
BRANCH   7  15
ATOM     14  C   LIG    1        1.417   1.994  -0.001  0.00  0.00    +0.080 C 
ATOM     15  C   LIG    1       -0.018   1.465   0.010  0.00  0.00    +0.250 C 
ENDBRANCH   7  15
ENDBRANCH   1  10
BRANCH   3  16
ATOM     16  C   LIG    1        0.321  -6.703  -3.479  0.00  0.00    +0.350 C 
BRANCH  16  17
ATOM     17  N   LIG    1        1.742  -6.976  -3.250  0.00  0.00    -0.750 N 
ATOM     18  H   LIG    1        2.167  -6.681  -2.430  0.00  0.00    +0.390 HD
ATOM     19  C   LIG    1        2.459  -7.639  -4.180  0.00  0.00    +0.710 C 
ATOM     20  N   LIG    1        3.766  -7.891  -3.969  0.00  0.00    -0.690 N 
ATOM     21  H   LIG    1        4.191  -7.595  -3.149  0.00  0.00    +0.400 HD
ATOM     22  O   LIG    1        1.926  -8.009  -5.208  0.00  0.00    -0.570 OA
BRANCH  20  23
ATOM     23  C   LIG    1        4.545  -8.611  -4.980  0.00  0.00    +0.090 C 
ATOM     24  C   LIG    1        4.330 -10.036  -5.547  0.00  0.00    +0.030 C 
ATOM     25  C   LIG    1        5.605  -9.559  -6.332  0.00  0.00    -0.150 C 
ATOM     26  C   LIG    1        4.824  -8.226  -6.454  0.00  0.00    +0.040 C 
ATOM     27  C   LIG    1        6.037  -9.007  -4.956  0.00  0.00    +0.040 C 
BRANCH  25  28
ATOM     28  C   LIG    1        6.425 -10.298  -7.358  0.00  0.00    +0.550 C 
ATOM     29  O   LIG    1        7.621 -10.080  -7.454  0.00  0.00    -0.680 OA
ATOM     30  O   LIG    1        5.893 -11.113  -8.091  0.00  0.00    -0.680 OA
ENDBRANCH  25  28
ENDBRANCH  20  23
ENDBRANCH  16  17
ENDBRANCH   3  16
TORSDOF 6
