REMARK  Name = ZINCrD000000g6Dv.0
REMARK                            x       y       z     vdW  Elec       q    Type
REMARK                         _______ _______ _______ _____ _____    ______ ____
ROOT
ATOM      1  C   LIG    1        1.402   3.560   0.042  0.00  0.00    +0.080 A 
ATOM      2  C   LIG    1        1.276   4.301  -1.066  0.00  0.00    -0.070 A 
ATOM      3  S   LIG    1        1.301   6.000  -0.598  0.00  0.00    +0.190 S 
ATOM      4  C   LIG    1        1.485   5.528   1.089  0.00  0.00    +0.070 A 
ATOM      5  N   LIG    1        1.506   4.226   1.167  0.00  0.00    -0.430 NA
ENDROOT
BRANCH   4   6
ATOM      6  C   LIG    1        1.591   6.453   2.228  0.00  0.00    +0.160 A 
ATOM      7  C   LIG    1        1.733   5.966   3.511  0.00  0.00    +0.290 A 
ATOM      8  N   LIG    1        1.830   6.795   4.546  0.00  0.00    -0.420 NA
ATOM      9  C   LIG    1        1.794   8.098   4.387  0.00  0.00    +0.380 A 
ATOM     10  C   LIG    1        1.652   8.649   3.101  0.00  0.00    +0.230 A 
ATOM     11  N   LIG    1        1.585   9.890   2.638  0.00  0.00    -0.510 NA
ATOM     12  C   LIG    1        1.448   9.870   1.321  0.00  0.00    +0.490 A 
ATOM     13  N   LIG    1        1.421   8.626   0.898  0.00  0.00    -0.330 NA
ATOM     14  N   LIG    1        1.556   7.808   2.025  0.00  0.00    -0.270 N 
ENDBRANCH   4   6
BRANCH   1  19
ATOM     15  C   LIG    1        0.293  -1.335  -2.032  0.00  0.00    +0.650 C 
ATOM     16  N   LIG    1        0.803  -0.460  -1.143  0.00  0.00    -0.600 N 
ATOM     17  C   LIG    1        0.002  -0.004   0.002  0.00  0.00    +0.310 C 
ATOM     18  C   LIG    1       -0.019   1.528   0.010  0.00  0.00    +0.030 C 
ATOM     19  C   LIG    1        1.419   2.053  -0.001  0.00  0.00    +0.090 C 
ATOM     20  C   LIG    1        2.124   1.587  -1.276  0.00  0.00    +0.020 C 
ATOM     21  C   LIG    1        2.170   0.056  -1.299  0.00  0.00    +0.280 C 
ATOM     22  O   LIG    1       -0.839  -1.754  -1.892  0.00  0.00    -0.570 OA
BRANCH  15  23
ATOM     23  O   LIG    1        1.038  -1.744  -3.076  0.00  0.00    -0.360 OA
BRANCH  23  25
ATOM     24  C   LIG    1       -0.831  -2.061  -4.605  0.00  0.00    +0.040 C 
ATOM     25  C   LIG    1        0.424  -2.687  -3.994  0.00  0.00    +0.140 C 
ATOM     26  C   LIG    1        0.043  -3.961  -3.237  0.00  0.00    +0.040 C 
ATOM     27  C   LIG    1        1.415  -3.033  -5.108  0.00  0.00    +0.080 C 
ENDBRANCH  23  25
ENDBRANCH  15  23
ENDBRANCH   1  19
TORSDOF 4
