REMARK  Name = ZINCrD000000CTAQ.0
REMARK                            x       y       z     vdW  Elec       q    Type
REMARK                         _______ _______ _______ _____ _____    ______ ____
ROOT
ATOM      1  O   LIG    1       -5.661   2.036  -0.998  0.00  0.00    -0.530 OA
ATOM      2  C   LIG    1       -4.585   1.579  -0.676  0.00  0.00    +0.520 C 
ATOM      3  N   LIG    1       -4.279   0.339  -1.060  0.00  0.00    -0.720 N 
ATOM      4  H   LIG    1       -4.960  -0.169  -1.528  0.00  0.00    +0.410 HD
ATOM      5  C   LIG    1       -2.995  -0.306  -0.826  0.00  0.00    +0.270 C 
ATOM      6  C   LIG    1       -2.258   0.358   0.333  0.00  0.00    +0.300 C 
ATOM      7  N   LIG    1       -2.322   1.818   0.150  0.00  0.00    -0.600 N 
ATOM      8  C   LIG    1       -1.205   2.555  -0.005  0.00  0.00    +0.620 C 
ATOM      9  O   LIG    1       -0.121   2.007  -0.085  0.00  0.00    -0.510 OA
ATOM     10  C   LIG    1       -3.656   2.438   0.139  0.00  0.00    +0.300 C 
ENDROOT
BRANCH  10  11
ATOM     11  C   LIG    1       -4.175   2.545   1.550  0.00  0.00    -0.100 A 
ATOM     12  C   LIG    1       -4.435   1.400   2.279  0.00  0.00    +0.010 A 
ATOM     13  C   LIG    1       -4.906   1.498   3.575  0.00  0.00    +0.010 A 
ATOM     14  C   LIG    1       -5.128   2.742   4.138  0.00  0.00    +0.020 A 
ATOM     15  C   LIG    1       -4.873   3.887   3.406  0.00  0.00    +0.010 A 
ATOM     16  C   LIG    1       -4.397   3.788   2.112  0.00  0.00    +0.040 A 
ENDBRANCH  10  11
BRANCH   8  17
ATOM     17  C   LIG    1       -1.295   4.015  -0.077  0.00  0.00    -0.080 A 
ATOM     18  C   LIG    1       -0.252   4.879  -0.333  0.00  0.00    +0.070 A 
ATOM     19  C   LIG    1       -0.783   6.172  -0.303  0.00  0.00    -0.040 A 
ATOM     20  C   LIG    1       -2.116   6.053  -0.034  0.00  0.00    +0.060 A 
ATOM     21  O   LIG    1       -2.414   4.750   0.100  0.00  0.00    -0.160 OA
BRANCH  20  22
ATOM     22  C   LIG    1       -3.072   7.172   0.089  0.00  0.00    -0.040 A 
ATOM     23  C   LIG    1       -2.635   8.489  -0.068  0.00  0.00    +0.080 A 
ATOM     24  C   LIG    1       -3.533   9.529   0.042  0.00  0.00    +0.000 A 
ATOM     25  C   LIG    1       -4.867   9.270   0.319  0.00  0.00    +0.110 A 
ATOM     26  C   LIG    1       -5.306   7.965   0.481  0.00  0.00    -0.010 A 
ATOM     27  F   LIG    1       -5.742  10.293   0.431  0.00  0.00    -0.130 F 
ATOM     28  C   LIG    1       -4.417   6.917   0.368  0.00  0.00    +0.070 A 
ENDBRANCH  20  22
ENDBRANCH   8  17
TORSDOF 3
