REMARK  Name = ZINCvU0000000BJN.0
REMARK                            x       y       z     vdW  Elec       q    Type
REMARK                         _______ _______ _______ _____ _____    ______ ____
ROOT
ATOM      1  C   LIG    1       10.535   6.726  -1.507  0.00  0.00    +0.120 C 
ATOM      2  C   LIG    1        9.290   5.911  -1.267  0.00  0.00    -0.150 A 
ATOM      3  C   LIG    1        8.409   5.713  -2.273  0.00  0.00    +0.290 A 
ATOM      4  N   LIG    1        7.277   4.979  -2.075  0.00  0.00    -0.440 N 
ATOM      5  C   LIG    1        6.418   4.800  -3.101  0.00  0.00    +0.530 A 
ATOM      6  C   LIG    1        5.249   4.038  -2.888  0.00  0.00    -0.360 A 
ATOM      7  C   LIG    1        5.028   3.493  -1.604  0.00  0.00    +0.500 A 
ATOM      8  N   LIG    1        5.911   3.711  -0.640  0.00  0.00    -0.580 NA
ATOM      9  O   LIG    1        6.647   5.289  -4.194  0.00  0.00    -0.480 OA
ATOM     10  C   LIG    1        7.014   4.428  -0.852  0.00  0.00    +0.440 A 
ATOM     11  C   LIG    1        7.920   4.623   0.206  0.00  0.00    +0.020 A 
ATOM     12  C   LIG    1        9.048   5.359  -0.002  0.00  0.00    +0.130 A 
ENDROOT
BRANCH   7  13
ATOM     13  N   LIG    1        3.899   2.743  -1.354  0.00  0.00    -0.690 N 
ATOM     14  H   LIG    1        3.253   2.589  -2.061  0.00  0.00    +0.410 HD
BRANCH  13  15
ATOM     15  C   LIG    1        3.674   2.180  -0.021  0.00  0.00    +0.350 C 
BRANCH  15  16
ATOM     16  C   LIG    1        2.379   1.409  -0.013  0.00  0.00    -0.110 A 
ATOM     17  C   LIG    1        2.397   0.028  -0.020  0.00  0.00    +0.050 A 
ATOM     18  C   LIG    1        1.208  -0.679  -0.013  0.00  0.00    +0.010 A 
ATOM     19  C   LIG    1        0.002  -0.004   0.002  0.00  0.00    +0.030 A 
ATOM     20  C   LIG    1       -0.017   1.378   0.010  0.00  0.00    +0.030 A 
ATOM     21  C   LIG    1        1.172   2.086   0.002  0.00  0.00    -0.020 A 
ATOM     22 CL   LIG    1        1.149   3.822   0.011  0.00  0.00    -0.060 Cl
ENDBRANCH  15  16
ENDBRANCH  13  15
ENDBRANCH   7  13
BRANCH   6  23
ATOM     23  C   LIG    1        4.288   3.818  -3.971  0.00  0.00    +0.300 C 
ATOM     24  N   LIG    1        4.507   4.327  -5.146  0.00  0.00    -0.490 NA
BRANCH  24  25
ATOM     25  C   LIG    1        3.546   4.108  -6.230  0.00  0.00    +0.210 C 
BRANCH  25  26
ATOM     26  C   LIG    1        2.929   5.424  -6.628  0.00  0.00    -0.060 A 
ATOM     27  C   LIG    1        3.315   6.042  -7.802  0.00  0.00    +0.040 A 
ATOM     28  C   LIG    1        2.748   7.249  -8.167  0.00  0.00    +0.020 A 
ATOM     29  C   LIG    1        1.796   7.839  -7.358  0.00  0.00    +0.020 A 
ATOM     30  C   LIG    1        1.408   7.221  -6.183  0.00  0.00    +0.020 A 
ATOM     31  C   LIG    1        1.970   6.010  -5.820  0.00  0.00    -0.030 A 
ATOM     32 CL   LIG    1        1.478   5.231  -4.349  0.00  0.00    -0.070 Cl
ENDBRANCH  25  26
ENDBRANCH  24  25
ENDBRANCH   6  23
TORSDOF 6
