REMARK  Name = ZINCrH000004tGme.0
REMARK                            x       y       z     vdW  Elec       q    Type
REMARK                         _______ _______ _______ _____ _____    ______ ____
ROOT
ATOM      1  O   LIG    1        2.235  -0.201  -0.109  0.00  0.00    -0.520 OA
ATOM      2  C   LIG    1        1.178  -0.795  -0.125  0.00  0.00    +0.510 C 
ATOM      3  N   LIG    1        0.020  -0.113  -0.025  0.00  0.00    -0.660 N 
ATOM      4  H   LIG    1       -0.821  -0.592   0.044  0.00  0.00    +0.420 HD
ENDROOT
BRANCH   3   5
ATOM      5  C   LIG    1        0.030   1.288  -0.022  0.00  0.00    +0.100 A 
ATOM      6  C   LIG    1        1.077   1.987  -0.608  0.00  0.00    +0.090 A 
ATOM      7  C   LIG    1        1.042   3.375  -0.581  0.00  0.00    -0.030 A 
ATOM      8  C   LIG    1       -0.021   4.014   0.023  0.00  0.00    +0.260 A 
ATOM      9  N   LIG    1       -1.005   3.326   0.573  0.00  0.00    -0.500 NA
ATOM     10  C   LIG    1       -1.017   2.004   0.566  0.00  0.00    +0.270 A 
BRANCH  10  11
ATOM     11  N   LIG    1       -2.077   1.320   1.153  0.00  0.00    -0.470 N 
ATOM     12  C   LIG    1       -1.633   0.595   2.371  0.00  0.00    +0.170 C 
ATOM     13  C   LIG    1       -2.954   0.362   3.147  0.00  0.00    +0.040 C 
ATOM     14  C   LIG    1       -3.743   1.666   2.885  0.00  0.00    +0.020 C 
ATOM     15  C   LIG    1       -3.129   2.257   1.602  0.00  0.00    +0.200 C 
ENDBRANCH  10  11
ENDBRANCH   3   5
BRANCH   2  16
ATOM     16  C   LIG    1        1.160  -2.296  -0.256  0.00  0.00    +0.070 C 
BRANCH  16  17
ATOM     17  C   LIG    1        2.595  -2.818  -0.351  0.00  0.00    +0.060 C 
BRANCH  17  18
ATOM     18  C   LIG    1        2.576  -4.342  -0.483  0.00  0.00    +0.200 C 
BRANCH  18  19
ATOM     19  C   LIG    1        3.990  -4.855  -0.577  0.00  0.00    +0.190 A 
ATOM     20  N   LIG    1        4.757  -5.207   0.424  0.00  0.00    -0.470 NA
ATOM     21  C   LIG    1        5.926  -5.601  -0.134  0.00  0.00    +0.240 A 
ATOM     22  N   LIG    1        5.801  -5.457  -1.431  0.00  0.00    -0.370 NA
ATOM     23  O   LIG    1        4.698  -5.031  -1.698  0.00  0.00    +0.090 OA
BRANCH  21  24
ATOM     24  C   LIG    1        7.119  -6.094   0.584  0.00  0.00    -0.140 A 
ATOM     25  C   LIG    1        8.273  -6.481   0.003  0.00  0.00    +0.060 A 
ATOM     26  C   LIG    1        9.248  -6.901   0.881  0.00  0.00    +0.010 A 
ATOM     27  C   LIG    1        8.900  -6.869   2.172  0.00  0.00    -0.030 A 
ATOM     28  S   LIG    1        7.252  -6.275   2.328  0.00  0.00    +0.190 S 
ENDBRANCH  21  24
ENDBRANCH  18  19
ENDBRANCH  17  18
ENDBRANCH  16  17
ENDBRANCH   2  16
TORSDOF 7
