REMARK  Name = ZINCrD00000F5LAU.0
REMARK                            x       y       z     vdW  Elec       q    Type
REMARK                         _______ _______ _______ _____ _____    ______ ____
ROOT
ATOM      1  N   LIG    1        4.139   0.246  -1.461  0.00  0.00    -0.980 NA
ENDROOT
BRANCH   1   2
ATOM      2  S   LIG    1        4.999   1.405  -2.273  0.00  0.00    +2.710 S 
ATOM      3  O   LIG    1        4.802   2.621  -1.565  0.00  0.00    -0.930 OA
ATOM      4  O   LIG    1        4.683   1.247  -3.650  0.00  0.00    -0.940 OA
BRANCH   2  10
ATOM      5  C   LIG    1        7.014   1.301   0.471  0.00  0.00    +0.170 C 
ATOM      6  C   LIG    1        7.483   0.980  -0.925  0.00  0.00    +0.100 A 
ATOM      7  N   LIG    1        8.684   0.626  -1.282  0.00  0.00    -0.360 NA
ATOM      8  O   LIG    1        8.756   0.434  -2.474  0.00  0.00    +0.110 OA
ATOM      9  C   LIG    1        7.576   0.636  -3.077  0.00  0.00    +0.320 A 
ATOM     10  C   LIG    1        6.706   1.002  -2.106  0.00  0.00    -0.800 A 
ENDBRANCH   2  10
ENDBRANCH   1   2
BRANCH   1  11
ATOM     11  C   LIG    1        3.670  -0.949  -2.167  0.00  0.00    +0.300 C 
BRANCH  11  12
ATOM     12  C   LIG    1        2.217  -0.746  -2.602  0.00  0.00    -0.030 C 
ATOM     13  C   LIG    1        2.147   0.347  -3.669  0.00  0.00    +0.070 C 
ATOM     14  C   LIG    1        0.782   0.375  -4.293  0.00  0.00    -0.050 C 
ATOM     15  C   LIG    1       -0.074  -0.593  -4.206  0.00  0.00    -0.060 C 
ATOM     16  C   LIG    1        0.175  -1.872  -3.463  0.00  0.00    +0.050 C 
ATOM     17  C   LIG    1        1.673  -2.048  -3.204  0.00  0.00    +0.030 C 
ENDBRANCH  11  12
ENDBRANCH   1  11
BRANCH   1  18
ATOM     18  C   LIG    1        3.849   0.415  -0.035  0.00  0.00    +0.410 C 
BRANCH  18  19
ATOM     19  C   LIG    1        2.469   0.999   0.130  0.00  0.00    +0.000 A 
ATOM     20  N   LIG    1        2.130   2.257   0.031  0.00  0.00    -0.340 NA
ATOM     21  O   LIG    1        0.940   2.417   0.217  0.00  0.00    +0.110 OA
ATOM     22  C   LIG    1        0.330   1.260   0.466  0.00  0.00    -0.030 A 
ATOM     23  C   LIG    1       -1.123   0.979   0.744  0.00  0.00    +0.140 C 
ATOM     24  C   LIG    1       -1.369  -0.522   0.549  0.00  0.00    +0.030 C 
ATOM     25  C   LIG    1       -0.320  -1.324   1.325  0.00  0.00    +0.020 C 
ATOM     26  C   LIG    1        1.050  -1.160   0.653  0.00  0.00    +0.110 C 
ATOM     27  C   LIG    1        1.288   0.303   0.423  0.00  0.00    -0.190 A 
ENDBRANCH  18  19
ENDBRANCH   1  18
TORSDOF 6
