REMARK  Name = ZINCrH000004maUS.0
REMARK                            x       y       z     vdW  Elec       q    Type
REMARK                         _______ _______ _______ _____ _____    ______ ____
ROOT
ATOM      1  C   LIG    1       -4.923   0.912   0.012  0.00  0.00    +0.290 C 
ENDROOT
BRANCH   1   2
ATOM      2  N   LIG    1       -3.664   1.662  -0.002  0.00  0.00    -0.730 N 
ATOM      3  H   LIG    1       -3.677   2.632  -0.001  0.00  0.00    +0.400 HD
ATOM      4  C   LIG    1       -2.488   1.004  -0.015  0.00  0.00    +0.560 C 
ATOM      5  O   LIG    1       -2.471  -0.212  -0.015  0.00  0.00    -0.530 OA
BRANCH   4   6
ATOM      6  C   LIG    1       -1.218   1.760  -0.029  0.00  0.00    -0.140 A 
ATOM      7  C   LIG    1       -0.013   1.078  -0.042  0.00  0.00    +0.110 A 
ATOM      8  C   LIG    1        1.189   1.802  -0.061  0.00  0.00    -0.060 A 
ATOM      9  C   LIG    1        2.433   1.147  -0.081  0.00  0.00    +0.030 A 
ATOM     10  C   LIG    1        3.580   1.879  -0.099  0.00  0.00    +0.010 A 
ATOM     11  C   LIG    1        3.542   3.271  -0.098  0.00  0.00    +0.030 A 
ATOM     12  C   LIG    1        2.356   3.940  -0.079  0.00  0.00    +0.020 A 
ATOM     13  C   LIG    1        1.150   3.220  -0.060  0.00  0.00    -0.030 A 
ATOM     14  C   LIG    1       -0.091   3.883  -0.041  0.00  0.00    +0.020 A 
ATOM     15  C   LIG    1       -1.243   3.166  -0.023  0.00  0.00    +0.040 A 
ENDBRANCH   4   6
ENDBRANCH   1   2
BRANCH   1  16
ATOM     16  C   LIG    1       -6.099   1.891   0.025  0.00  0.00    +0.070 C 
BRANCH  16  19
ATOM     17  N   LIG    1       -8.570   1.778   0.052  0.00  0.00    -0.660 N 
ATOM     18  H   LIG    1       -8.584   2.744   0.133  0.00  0.00    +0.420 HD
ATOM     19  C   LIG    1       -7.394   1.120   0.039  0.00  0.00    +0.520 C 
ATOM     20  O   LIG    1       -7.377  -0.093   0.039  0.00  0.00    -0.510 OA
BRANCH  17  27
ATOM     21  C   LIG    1      -10.952   1.609   0.454  0.00  0.00    +0.130 A 
ATOM     22  C   LIG    1      -12.138   0.901   0.349  0.00  0.00    -0.080 A 
ATOM     23  C   LIG    1      -12.150  -0.343  -0.258  0.00  0.00    +0.120 A 
ATOM     24  C   LIG    1      -10.979  -0.883  -0.761  0.00  0.00    -0.030 A 
ATOM     25  C   LIG    1       -9.793  -0.179  -0.664  0.00  0.00    +0.090 A 
ATOM     26  F   LIG    1      -13.308  -1.033  -0.359  0.00  0.00    -0.130 F 
ATOM     27  C   LIG    1       -9.773   1.065  -0.052  0.00  0.00    +0.110 A 
BRANCH  21  29
ATOM     28  C   LIG    1      -12.184   3.325   1.545  0.00  0.00    +0.260 C 
ATOM     29  O   LIG    1      -10.938   2.831   1.049  0.00  0.00    -0.310 OA
ENDBRANCH  21  29
ENDBRANCH  17  27
ENDBRANCH  16  19
ENDBRANCH   1  16
TORSDOF 6
