REMARK  Name = ZINCrg000000p4y3.1
REMARK                            x       y       z     vdW  Elec       q    Type
REMARK                         _______ _______ _______ _____ _____    ______ ____
ROOT
ATOM      1  C   LIG    1        2.000   5.790   2.875  0.00  0.00    +0.520 C 
ATOM      2  N   LIG    1        2.254   7.090   3.125  0.00  0.00    -0.610 N 
ATOM      3  C   LIG    1        2.427   8.044   2.021  0.00  0.00    +0.260 C 
ATOM      4  C   LIG    1        1.467   9.220   2.231  0.00  0.00    +0.020 C 
ATOM      5  C   LIG    1        1.694   9.818   3.621  0.00  0.00    +0.030 C 
ATOM      6  C   LIG    1        1.403   8.760   4.687  0.00  0.00    +0.090 C 
ATOM      7  C   LIG    1        2.357   7.580   4.506  0.00  0.00    +0.300 C 
ATOM      8  O   LIG    1        1.859   5.012   3.794  0.00  0.00    -0.540 OA
ENDROOT
BRANCH   6   9
ATOM      9  C   LIG    1        1.595   9.359   6.056  0.00  0.00    +0.240 A 
ATOM     10  N   LIG    1        2.709   9.870   6.512  0.00  0.00    -0.310 NA
ATOM     11  N   LIG    1        2.448  10.311   7.819  0.00  0.00    -0.480 N 
ATOM     12  H   LIG    1        3.075  10.737   8.425  0.00  0.00    +0.440 HD
ATOM     13  C   LIG    1        1.158  10.025   8.065  0.00  0.00    +0.320 A 
ATOM     14  N   LIG    1        0.657   9.459   6.997  0.00  0.00    -0.530 NA
BRANCH  13  15
ATOM     15  C   LIG    1        0.416  10.312   9.345  0.00  0.00    +0.050 C 
ATOM     16  C   LIG    1        0.805  11.572  10.120  0.00  0.00    +0.050 C 
ATOM     17  C   LIG    1        1.197  10.194  10.656  0.00  0.00    +0.050 C 
ENDBRANCH  13  15
ENDBRANCH   6   9
BRANCH   1  18
ATOM     18  C   LIG    1        1.892   5.303   1.453  0.00  0.00    +0.060 C 
BRANCH  18  19
ATOM     19  C   LIG    1        1.601   3.801   1.448  0.00  0.00    +0.040 C 
BRANCH  19  20
ATOM     20  C   LIG    1        1.491   3.307   0.005  0.00  0.00    +0.320 C 
BRANCH  20  25
ATOM     21  C   LIG    1       -1.161  -0.895   0.008  0.00  0.00    +0.350 C 
ATOM     22  N   LIG    1        0.002  -0.004   0.002  0.00  0.00    -0.630 N 
ATOM     23  C   LIG    1        1.419  -0.406  -0.014  0.00  0.00    +0.300 C 
ATOM     24  C   LIG    1        2.164   0.914  -0.014  0.00  0.00    +0.520 C 
ATOM     25  N   LIG    1        1.213   1.869   0.001  0.00  0.00    -0.580 N 
ATOM     26  O   LIG    1        3.365   1.077  -0.024  0.00  0.00    -0.470 OA
ATOM     27  C   LIG    1       -0.016   1.341   0.009  0.00  0.00    +0.700 C 
ATOM     28  O   LIG    1       -1.036   2.003   0.018  0.00  0.00    -0.540 OA
ENDBRANCH  20  25
ENDBRANCH  19  20
ENDBRANCH  18  19
ENDBRANCH   1  18
TORSDOF 6
