REMARK  Name = ZINCrg000000p4y3.0
REMARK                            x       y       z     vdW  Elec       q    Type
REMARK                         _______ _______ _______ _____ _____    ______ ____
ROOT
ATOM      1  C   LIG    1        0.000   1.080   2.488  0.00  0.00    +0.520 C 
ATOM      2  N   LIG    1       -0.453   1.393   3.718  0.00  0.00    -0.620 N 
ATOM      3  C   LIG    1       -1.653   2.224   3.885  0.00  0.00    +0.260 C 
ATOM      4  C   LIG    1       -2.640   1.481   4.797  0.00  0.00    +0.040 C 
ATOM      5  C   LIG    1       -1.940   1.118   6.109  0.00  0.00    +0.020 C 
ATOM      6  C   LIG    1       -0.759   0.189   5.818  0.00  0.00    +0.100 C 
ATOM      7  C   LIG    1        0.247   0.913   4.918  0.00  0.00    +0.290 C 
ATOM      8  O   LIG    1        0.994   0.397   2.363  0.00  0.00    -0.530 OA
ENDROOT
BRANCH   6   9
ATOM      9  C   LIG    1       -0.089  -0.193   7.113  0.00  0.00    +0.190 A 
ATOM     10  N   LIG    1        0.462  -1.344   7.389  0.00  0.00    -0.280 NA
ATOM     11  N   LIG    1        0.937  -1.321   8.584  0.00  0.00    -0.280 NA
ATOM     12  C   LIG    1        0.710  -0.155   9.125  0.00  0.00    +0.210 A 
ATOM     13  N   LIG    1        0.057   0.596   8.205  0.00  0.00    -0.580 N 
ATOM     14  H   LIG    1       -0.247   1.511   8.309  0.00  0.00    +0.430 HD
BRANCH  12  15
ATOM     15  C   LIG    1        1.106   0.278  10.513  0.00  0.00    +0.060 C 
ATOM     16  C   LIG    1        1.094   1.778  10.816  0.00  0.00    +0.030 C 
ATOM     17  C   LIG    1        2.425   1.038  10.666  0.00  0.00    +0.060 C 
ENDBRANCH  12  15
ENDBRANCH   6   9
BRANCH   1  18
ATOM     18  C   LIG    1       -0.729   1.579   1.267  0.00  0.00    +0.060 C 
BRANCH  18  19
ATOM     19  C   LIG    1       -0.013   1.086   0.008  0.00  0.00    +0.040 C 
BRANCH  19  20
ATOM     20  C   LIG    1       -0.753   1.593  -1.232  0.00  0.00    +0.320 C 
BRANCH  20  25
ATOM     21  C   LIG    1        0.390  -1.388  -5.040  0.00  0.00    +0.350 C 
ATOM     22  N   LIG    1        0.429  -0.234  -4.139  0.00  0.00    -0.630 N 
ATOM     23  C   LIG    1        1.318   0.936  -4.244  0.00  0.00    +0.300 C 
ATOM     24  C   LIG    1        0.915   1.798  -3.064  0.00  0.00    +0.520 C 
ATOM     25  N   LIG    1       -0.067   1.120  -2.437  0.00  0.00    -0.580 N 
ATOM     26  O   LIG    1        1.379   2.872  -2.749  0.00  0.00    -0.470 OA
ATOM     27  C   LIG    1       -0.342  -0.035  -3.054  0.00  0.00    +0.700 C 
ATOM     28  O   LIG    1       -1.193  -0.816  -2.677  0.00  0.00    -0.540 OA
ENDBRANCH  20  25
ENDBRANCH  19  20
ENDBRANCH  18  19
ENDBRANCH   1  18
TORSDOF 6
