REMARK  Name = ZINCqH0000008yDz.0
REMARK                            x       y       z     vdW  Elec       q    Type
REMARK                         _______ _______ _______ _____ _____    ______ ____
ROOT
ATOM      1  N   LIG    1       -0.970   1.596  -1.446  0.00  0.00    -0.520 NA
ATOM      2  C   LIG    1       -0.286   0.798  -0.419  0.00  0.00    +0.250 C 
ATOM      3  C   LIG    1       -0.841   1.158   0.965  0.00  0.00    +0.080 C 
ATOM      4  C   LIG    1       -2.349   1.103   0.893  0.00  0.00    +0.070 A 
ATOM      5  C   LIG    1       -3.027   1.098  -0.278  0.00  0.00    -0.200 A 
ATOM      6  C   LIG    1       -4.435   1.032   0.046  0.00  0.00    -0.090 A 
ATOM      7  C   LIG    1       -5.591   0.997  -0.740  0.00  0.00    +0.060 A 
ATOM      8  C   LIG    1       -6.792   0.935  -0.077  0.00  0.00    -0.030 A 
ATOM      9  C   LIG    1       -6.869   0.908   1.306  0.00  0.00    +0.020 A 
ATOM     10  C   LIG    1       -5.741   0.942   2.109  0.00  0.00    +0.000 A 
ATOM     11  C   LIG    1       -4.509   1.005   1.464  0.00  0.00    +0.100 A 
ATOM     12  N   LIG    1       -3.229   1.050   1.939  0.00  0.00    -0.580 N 
ATOM     13  H   LIG    1       -2.981   1.045   2.877  0.00  0.00    +0.420 HD
ATOM     14  C   LIG    1       -2.362   1.151  -1.629  0.00  0.00    +0.300 C 
ENDROOT
BRANCH   1  16
ATOM     15  C   LIG    1        0.548   3.481  -1.075  0.00  0.00    +0.080 C 
ATOM     16  C   LIG    1       -0.912   3.028  -1.125  0.00  0.00    +0.270 C 
BRANCH  16  17
ATOM     17  C   LIG    1       -1.645   3.810  -2.185  0.00  0.00    +0.200 A 
ATOM     18  N   LIG    1       -2.519   4.765  -1.983  0.00  0.00    -0.470 NA
ATOM     19  C   LIG    1       -2.905   5.170  -3.213  0.00  0.00    +0.210 A 
ATOM     20  N   LIG    1       -2.255   4.440  -4.082  0.00  0.00    -0.370 NA
ATOM     21  O   LIG    1       -1.529   3.656  -3.508  0.00  0.00    +0.100 OA
BRANCH  19  22
ATOM     22  C   LIG    1       -3.887   6.240  -3.521  0.00  0.00    -0.080 A 
ATOM     23  C   LIG    1       -4.200   6.557  -4.845  0.00  0.00    +0.100 A 
ATOM     24  C   LIG    1       -5.123   7.562  -5.079  0.00  0.00    -0.020 A 
ATOM     25  C   LIG    1       -5.699   8.215  -4.005  0.00  0.00    +0.280 A 
ATOM     26  N   LIG    1       -5.383   7.894  -2.765  0.00  0.00    -0.480 NA
ATOM     27  C   LIG    1       -4.515   6.941  -2.494  0.00  0.00    +0.320 A 
ENDBRANCH  19  22
ENDBRANCH  16  17
ENDBRANCH   1  16
TORSDOF 3
