REMARK  Name = ZINCnE00000rhmGL.0
REMARK                            x       y       z     vdW  Elec       q    Type
REMARK                         _______ _______ _______ _____ _____    ______ ____
ROOT
ATOM      1  C   LIG    1       -0.135   1.117  -2.549  0.00  0.00    +0.200 C 
ATOM      2  C   LIG    1       -0.832   1.829  -3.713  0.00  0.00    +0.020 C 
ATOM      3  C   LIG    1       -0.326   1.251  -5.036  0.00  0.00    +0.000 C 
ATOM      4  C   LIG    1       -0.668  -0.239  -5.108  0.00  0.00    +0.010 C 
ATOM      5  C   LIG    1        0.030  -0.975  -3.960  0.00  0.00    +0.260 C 
ATOM      6  N   LIG    1       -0.335  -0.332  -2.690  0.00  0.00    -0.610 N 
ATOM      7  C   LIG    1       -0.848  -1.056  -1.676  0.00  0.00    +0.500 C 
ATOM      8  O   LIG    1       -1.240  -0.501  -0.672  0.00  0.00    -0.490 OA
ENDROOT
BRANCH   1   9
ATOM      9  C   LIG    1       -0.736   1.591  -1.224  0.00  0.00    +0.070 C 
BRANCH   9  10
ATOM     10  C   LIG    1       -0.535   3.101  -1.085  0.00  0.00    -0.090 C 
BRANCH  10  12
ATOM     11  O   LIG    1       -1.831   2.799   0.871  0.00  0.00    -0.690 OA
ATOM     12  C   LIG    1       -1.231   3.587   0.160  0.00  0.00    +0.490 C 
ATOM     13  O   LIG    1       -1.193   4.769   0.458  0.00  0.00    -0.710 OA
ENDBRANCH  10  12
ENDBRANCH   9  10
ENDBRANCH   1   9
BRANCH   7  14
ATOM     14  C   LIG    1       -0.933  -2.557  -1.789  0.00  0.00    +0.090 C 
BRANCH  14  15
ATOM     15  C   LIG    1       -1.539  -3.122  -0.530  0.00  0.00    +0.020 C 
ATOM     16  C   LIG    1       -2.610  -3.901  -0.602  0.00  0.00    -0.010 C 
BRANCH  16  17
ATOM     17  C   LIG    1       -3.204  -4.455   0.633  0.00  0.00    -0.010 A 
ATOM     18  C   LIG    1       -4.330  -5.276   0.561  0.00  0.00    +0.000 A 
ATOM     19  C   LIG    1       -4.881  -5.791   1.716  0.00  0.00    +0.040 A 
ATOM     20  C   LIG    1       -4.319  -5.497   2.946  0.00  0.00    -0.030 A 
ATOM     21  C   LIG    1       -3.201  -4.682   3.025  0.00  0.00    +0.100 A 
ATOM     22  F   LIG    1       -2.658  -4.398   4.229  0.00  0.00    -0.140 F 
ATOM     23  C   LIG    1       -2.637  -4.165   1.874  0.00  0.00    -0.010 A 
ENDBRANCH  16  17
ENDBRANCH  14  15
ENDBRANCH   7  14
TORSDOF 6
