REMARK  Name = ZINCpe000000XeZG.0
REMARK                            x       y       z     vdW  Elec       q    Type
REMARK                         _______ _______ _______ _____ _____    ______ ____
ROOT
ATOM      1  C   LIG    1        1.175   6.208  -1.980  0.00  0.00    +0.190 C 
ATOM      2  C   LIG    1        0.614   7.193  -3.006  0.00  0.00    +0.250 C 
ATOM      3  O   LIG    1       -0.395   6.531  -3.779  0.00  0.00    -0.360 OA
ATOM      4  C   LIG    1       -1.564   6.217  -3.019  0.00  0.00    +0.290 C 
ATOM      5  C   LIG    1       -1.172   5.526  -1.742  0.00  0.00    +0.490 C 
ATOM      6  O   LIG    1       -2.022   4.930  -1.115  0.00  0.00    -0.520 OA
ATOM      7  N   LIG    1        0.081   5.545  -1.274  0.00  0.00    -0.580 N 
ENDROOT
BRANCH   1  10
ATOM      8  N   LIG    1        3.348   7.124  -1.234  0.00  0.00    -0.720 N 
ATOM      9  H   LIG    1        3.740   6.772  -2.049  0.00  0.00    +0.400 HD
ATOM     10  C   LIG    1        2.034   6.950  -0.989  0.00  0.00    +0.510 C 
ATOM     11  O   LIG    1        1.544   7.391   0.029  0.00  0.00    -0.510 OA
BRANCH   8  13
ATOM     12  C   LIG    1        4.085   9.349  -0.536  0.00  0.00    +0.040 C 
ATOM     13  C   LIG    1        4.184   7.845  -0.271  0.00  0.00    +0.230 C 
BRANCH  13  14
ATOM     14  C   LIG    1        5.638   7.396  -0.420  0.00  0.00    +0.310 C 
BRANCH  14  15
ATOM     15  N   LIG    1        5.753   5.982  -0.051  0.00  0.00    -0.460 N 
ATOM     16  C   LIG    1        5.620   4.910  -0.892  0.00  0.00    +0.110 A 
ATOM     17  C   LIG    1        5.799   3.805  -0.144  0.00  0.00    +0.150 A 
ATOM     18  N   LIG    1        6.036   4.191   1.118  0.00  0.00    -0.490 NA
ATOM     19  C   LIG    1        6.015   5.495   1.180  0.00  0.00    +0.390 A 
ENDBRANCH  14  15
ENDBRANCH  13  14
ENDBRANCH   8  13
ENDBRANCH   1  10
BRANCH   7  20
ATOM     20  C   LIG    1        0.367   4.881   0.001  0.00  0.00    +0.330 C 
BRANCH  20  21
ATOM     21  C   LIG    1        0.620   3.415  -0.243  0.00  0.00    -0.110 A 
ATOM     22  C   LIG    1        1.902   2.968  -0.499  0.00  0.00    +0.010 A 
ATOM     23  C   LIG    1        2.134   1.623  -0.722  0.00  0.00    +0.000 A 
ATOM     24  C   LIG    1        1.083   0.726  -0.689  0.00  0.00    +0.010 A 
ATOM     25  C   LIG    1       -0.201   1.174  -0.438  0.00  0.00    +0.000 A 
ATOM     26  C   LIG    1       -0.432   2.518  -0.210  0.00  0.00    +0.040 A 
ENDBRANCH  20  21
ENDBRANCH   7  20
TORSDOF 6
