REMARK  Name = ZINCpe000000UnZl.0
REMARK                            x       y       z     vdW  Elec       q    Type
REMARK                         _______ _______ _______ _____ _____    ______ ____
ROOT
ATOM      1  C   LIG    1       -3.690   2.059  -0.022  0.00  0.00    +0.190 C 
ATOM      2  C   LIG    1       -2.362   1.298  -0.028  0.00  0.00    +0.000 C 
ATOM      3  C   LIG    1       -1.543   1.763  -1.238  0.00  0.00    +0.040 C 
ATOM      4  C   LIG    1       -2.244   1.294  -2.513  0.00  0.00    +0.260 C 
ATOM      5  N   LIG    1       -3.651   1.672  -2.490  0.00  0.00    -0.570 N 
ATOM      6  C   LIG    1       -4.319   2.002  -1.384  0.00  0.00    +0.520 C 
ATOM      7  O   LIG    1       -5.499   2.265  -1.483  0.00  0.00    -0.510 OA
ENDROOT
BRANCH   1  11
ATOM      8  N   LIG    1       -5.305  -0.350   3.050  0.00  0.00    -0.520 NA
ATOM      9  C   LIG    1       -5.801  -0.554   1.683  0.00  0.00    +0.190 C 
ATOM     10  C   LIG    1       -4.793   0.022   0.685  0.00  0.00    +0.190 C 
ATOM     11  N   LIG    1       -4.595   1.451   0.963  0.00  0.00    -0.520 NA
ATOM     12  C   LIG    1       -4.099   1.656   2.331  0.00  0.00    +0.190 C 
ATOM     13  C   LIG    1       -5.107   1.080   3.328  0.00  0.00    +0.190 C 
BRANCH   8  14
ATOM     14  C   LIG    1       -6.210  -0.957   4.035  0.00  0.00    +0.210 C 
BRANCH  14  17
ATOM     15  C   LIG    1       -5.569  -1.444   7.778  0.00  0.00    +0.280 C 
ATOM     16  N   LIG    1       -6.205  -1.456   6.458  0.00  0.00    -0.630 N 
ATOM     17  C   LIG    1       -5.556  -0.946   5.393  0.00  0.00    +0.510 C 
ATOM     18  O   LIG    1       -4.445  -0.478   5.527  0.00  0.00    -0.520 OA
ATOM     19  C   LIG    1       -7.547  -2.021   6.296  0.00  0.00    +0.280 C 
ENDBRANCH  14  17
ENDBRANCH   8  14
ENDBRANCH   1  11
BRANCH   5  20
ATOM     20  C   LIG    1       -4.343   1.697  -3.706  0.00  0.00    +0.130 A 
ATOM     21  C   LIG    1       -4.397   2.866  -4.453  0.00  0.00    +0.010 A 
ATOM     22  C   LIG    1       -5.086   2.889  -5.650  0.00  0.00    +0.020 A 
ATOM     23  C   LIG    1       -5.723   1.749  -6.104  0.00  0.00    +0.020 A 
ATOM     24  C   LIG    1       -5.670   0.582  -5.364  0.00  0.00    +0.020 A 
ATOM     25  C   LIG    1       -4.983   0.553  -4.166  0.00  0.00    +0.010 A 
ENDBRANCH   5  20
TORSDOF 4
