REMARK  Name = ZINCtV000002pz2O.0
REMARK                            x       y       z     vdW  Elec       q    Type
REMARK                         _______ _______ _______ _____ _____    ______ ____
ROOT
ATOM      1  C   LIG    1       -7.042   0.736  -0.351  0.00  0.00    +0.230 A 
ATOM      2  N   LIG    1       -7.082  -0.585  -0.365  0.00  0.00    -0.470 NA
ATOM      3  C   LIG    1       -8.381  -0.904  -0.473  0.00  0.00    +0.190 A 
ATOM      4  N   LIG    1       -9.057   0.206  -0.518  0.00  0.00    -0.370 NA
ATOM      5  O   LIG    1       -8.312   1.160  -0.445  0.00  0.00    +0.090 OA
ENDROOT
BRANCH   1   9
ATOM      6  C   LIG    1       -3.562   3.073  -0.053  0.00  0.00    +0.340 A 
ATOM      7  C   LIG    1       -4.786   3.726  -0.146  0.00  0.00    -0.020 A 
ATOM      8  C   LIG    1       -5.943   2.979  -0.245  0.00  0.00    +0.160 A 
ATOM      9  C   LIG    1       -5.835   1.581  -0.247  0.00  0.00    -0.120 A 
ATOM     10  C   LIG    1       -4.570   1.000  -0.150  0.00  0.00    +0.390 A 
ATOM     11  N   LIG    1       -3.492   1.751  -0.063  0.00  0.00    -0.520 NA
BRANCH   6  12
ATOM     12  O   LIG    1       -2.422   3.802   0.045  0.00  0.00    -0.240 OA
BRANCH  12  18
ATOM     13 BR   LIG    1        1.810   2.257   2.682  0.00  0.00    -0.040 Br
ATOM     14  C   LIG    1        0.748   2.377   1.122  0.00  0.00    -0.080 A 
ATOM     15  C   LIG    1        1.177   1.787  -0.054  0.00  0.00    +0.050 A 
ATOM     16  C   LIG    1        0.402   1.873  -1.196  0.00  0.00    +0.040 A 
ATOM     17  C   LIG    1       -0.800   2.551  -1.167  0.00  0.00    +0.030 A 
ATOM     18  C   LIG    1       -1.237   3.139   0.013  0.00  0.00    +0.100 A 
ATOM     19  C   LIG    1       -0.458   3.052   1.157  0.00  0.00    +0.050 A 
ENDBRANCH  12  18
ENDBRANCH   6  12
ENDBRANCH   1   9
BRANCH   3  20
ATOM     20  C   LIG    1       -8.953  -2.297  -0.530  0.00  0.00    +0.190 C 
BRANCH  20  21
ATOM     21  C   LIG    1       -9.898  -2.501   0.626  0.00  0.00    -0.090 A 
ATOM     22  C   LIG    1      -11.005  -1.685   0.766  0.00  0.00    +0.030 A 
ATOM     23  C   LIG    1      -11.874  -1.875   1.824  0.00  0.00    +0.000 A 
ATOM     24  C   LIG    1      -11.630  -2.873   2.748  0.00  0.00    +0.000 A 
ATOM     25  C   LIG    1      -10.519  -3.685   2.612  0.00  0.00    +0.010 A 
ATOM     26  C   LIG    1       -9.653  -3.499   1.550  0.00  0.00    +0.020 A 
ENDBRANCH  20  21
BRANCH  20  27
ATOM     27  C   LIG    1       -9.711  -2.483  -1.847  0.00  0.00    -0.040 C 
ATOM     28  C   LIG    1       -9.365  -3.709  -2.694  0.00  0.00    +0.040 C 
ATOM     29  C   LIG    1       -8.921  -2.316  -3.146  0.00  0.00    +0.010 C 
ENDBRANCH  20  27
ENDBRANCH   3  20
TORSDOF 6
