REMARK  Name = ZINCpk000005LfT0.0
REMARK                            x       y       z     vdW  Elec       q    Type
REMARK                         _______ _______ _______ _____ _____    ______ ____
ROOT
ATOM      1  N   LIG    1        3.667   1.129  -0.027  0.00  0.00    -0.740 N 
ATOM      2  H   LIG    1        3.852   2.081  -0.024  0.00  0.00    +0.400 HD
ATOM      3  C   LIG    1        2.393   0.689  -0.017  0.00  0.00    +0.710 C 
ATOM      4  N   LIG    1        1.376   1.572  -0.003  0.00  0.00    -0.620 N 
ATOM      5  C   LIG    1        1.654   3.010   0.002  0.00  0.00    +0.290 C 
ATOM      6  O   LIG    1        2.163  -0.505  -0.021  0.00  0.00    -0.580 OA
ENDROOT
BRANCH   1  14
ATOM      7  C   LIG    1        8.302  -2.864  -2.021  0.00  0.00    +0.100 C 
ATOM      8  C   LIG    1        8.329  -1.802  -0.952  0.00  0.00    -0.110 A 
ATOM      9  C   LIG    1        9.475  -1.603  -0.210  0.00  0.00    +0.040 A 
ATOM     10  C   LIG    1        9.502  -0.628   0.771  0.00  0.00    -0.020 A 
ATOM     11  C   LIG    1        8.382   0.145   1.005  0.00  0.00    +0.030 A 
ATOM     12  C   LIG    1        7.229  -0.049   0.262  0.00  0.00    -0.160 A 
ATOM     13  C   LIG    1        6.029   0.818   0.545  0.00  0.00    +0.090 C 
ATOM     14  C   LIG    1        4.774   0.169  -0.043  0.00  0.00    +0.230 C 
ATOM     15  C   LIG    1        5.077  -0.247  -1.488  0.00  0.00    +0.220 C 
ATOM     16  O   LIG    1        6.087  -1.257  -1.463  0.00  0.00    -0.300 OA
ATOM     17  C   LIG    1        7.199  -1.025  -0.718  0.00  0.00    +0.130 A 
ENDBRANCH   1  14
BRANCH   4  18
ATOM     18  C   LIG    1       -0.013   1.093   0.008  0.00  0.00    +0.250 C 
ATOM     19  C   LIG    1       -0.729   1.588  -1.243  0.00  0.00    -0.030 C 
ATOM     20  C   LIG    1       -2.235   1.371  -1.166  0.00  0.00    +0.220 C 
ATOM     21  N   LIG    1       -2.790   1.844   0.100  0.00  0.00    -0.540 NA
ATOM     22  C   LIG    1       -2.742   3.295   0.251  0.00  0.00    +0.200 C 
ATOM     23  C   LIG    1       -1.333   3.803   0.527  0.00  0.00    +0.160 C 
ATOM     24  O   LIG    1       -0.608   2.981   1.423  0.00  0.00    -0.370 OA
ATOM     25  C   LIG    1       -2.179   1.159   1.245  0.00  0.00    +0.210 C 
ATOM     26  C   LIG    1       -0.703   1.573   1.283  0.00  0.00    +0.160 C 
ENDBRANCH   4  18
TORSDOF 2
