REMARK  Name = ZINCpe000000YhD8.0
REMARK                            x       y       z     vdW  Elec       q    Type
REMARK                         _______ _______ _______ _____ _____    ______ ____
ROOT
ATOM      1  N   LIG    1       -0.771   1.595  -1.143  0.00  0.00    -0.520 NA
ATOM      2  C   LIG    1       -2.157   1.107  -1.117  0.00  0.00    +0.200 C 
ATOM      3  C   LIG    1       -2.933   1.722  -2.284  0.00  0.00    +0.210 C 
ATOM      4  N   LIG    1       -2.275   1.364  -3.549  0.00  0.00    -0.480 N 
ATOM      5  C   LIG    1       -0.889   1.852  -3.574  0.00  0.00    +0.220 C 
ATOM      6  C   LIG    1       -0.113   1.237  -2.407  0.00  0.00    +0.200 C 
ENDROOT
BRANCH   4   7
ATOM      7  C   LIG    1       -2.993   1.846  -4.639  0.00  0.00    +0.290 A 
ATOM      8  N   LIG    1       -2.399   2.635  -5.519  0.00  0.00    -0.500 NA
ATOM      9  C   LIG    1       -3.044   3.113  -6.567  0.00  0.00    +0.290 A 
ATOM     10  C   LIG    1       -4.371   2.806  -6.783  0.00  0.00    -0.020 A 
ATOM     11  C   LIG    1       -5.034   1.981  -5.883  0.00  0.00    +0.060 A 
ATOM     12  C   LIG    1       -4.331   1.490  -4.796  0.00  0.00    +0.030 A 
ATOM     13  F   LIG    1       -4.935   0.680  -3.899  0.00  0.00    -0.120 F 
ENDBRANCH   4   7
BRANCH   1  17
ATOM     14  N   LIG    1        1.605   2.579   0.813  0.00  0.00    -0.520 N 
ATOM     15  C   LIG    1        0.364   2.905   1.525  0.00  0.00    +0.270 C 
ATOM     16  C   LIG    1       -0.559   1.682   1.326  0.00  0.00    +0.060 C 
ATOM     17  C   LIG    1       -0.013   1.086   0.008  0.00  0.00    +0.130 C 
ATOM     18  C   LIG    1        1.421   1.564  -0.050  0.00  0.00    +0.530 C 
ATOM     19  O   LIG    1        2.280   1.100  -0.770  0.00  0.00    -0.520 OA
BRANCH  14  23
ATOM     20  C   LIG    1        6.338   3.895   0.429  0.00  0.00    +0.360 C 
ATOM     21  N   LIG    1        4.934   3.834   0.843  0.00  0.00    -0.370 N 
ATOM     22  C   LIG    1        3.999   2.968   0.373  0.00  0.00    +0.230 A 
ATOM     23  C   LIG    1        2.831   3.243   1.008  0.00  0.00    +0.000 A 
ATOM     24  C   LIG    1        3.063   4.303   1.897  0.00  0.00    +0.230 A 
ATOM     25  N   LIG    1        4.319   4.655   1.797  0.00  0.00    -0.280 NA
ENDBRANCH  14  23
ENDBRANCH   1  17
TORSDOF 3
