REMARK  Name = ZINCpe00000gN7Q2.0
REMARK                            x       y       z     vdW  Elec       q    Type
REMARK                         _______ _______ _______ _____ _____    ______ ____
ROOT
ATOM      1  N   LIG    1       -5.107  -6.757   0.017  0.00  0.00    -0.670 N 
ATOM      2  H   LIG    1       -5.951  -6.288   0.102  0.00  0.00    +0.420 HD
ATOM      3  C   LIG    1       -3.950  -6.066   0.007  0.00  0.00    +0.520 C 
ATOM      4  O   LIG    1       -2.891  -6.657  -0.015  0.00  0.00    -0.490 OA
ENDROOT
BRANCH   1   8
ATOM      5  C   LIG    1       -5.057 -10.909  -0.320  0.00  0.00    -0.690 A 
ATOM      6  C   LIG    1       -4.047 -10.261   0.367  0.00  0.00    +0.150 A 
ATOM      7  C   LIG    1       -4.061  -8.884   0.480  0.00  0.00    +0.010 A 
ATOM      8  C   LIG    1       -5.090  -8.152  -0.097  0.00  0.00    +0.200 A 
ATOM      9  C   LIG    1       -6.105  -8.807  -0.782  0.00  0.00    -0.020 A 
ATOM     10  C   LIG    1       -6.083 -10.183  -0.896  0.00  0.00    +0.150 A 
BRANCH   5  11
ATOM     11  S   LIG    1       -5.036 -12.666  -0.462  0.00  0.00    +2.700 S 
ATOM     12  O   LIG    1       -3.682 -13.066  -0.296  0.00  0.00    -0.960 OA
ATOM     13  O   LIG    1       -5.804 -12.984  -1.614  0.00  0.00    -0.960 OA
BRANCH  11  14
ATOM     14  N   LIG    1       -5.865 -13.273   0.836  0.00  0.00    -1.250 NA
ATOM     15  H   LIG    1       -5.874 -12.787   1.676  0.00  0.00    +0.420 HD
ATOM     16  H   LIG    1       -6.343 -14.113   0.757  0.00  0.00    +0.420 HD
ENDBRANCH  11  14
ENDBRANCH   5  11
ENDBRANCH   1   8
BRANCH   3  17
ATOM     17  C   LIG    1       -3.972  -4.560   0.024  0.00  0.00    +0.270 C 
BRANCH  17  18
ATOM     18  O   LIG    1       -2.610  -4.056   0.009  0.00  0.00    -0.330 OA
BRANCH  18  19
ATOM     19  C   LIG    1       -2.454  -2.723   0.022  0.00  0.00    +0.470 C 
ATOM     20  O   LIG    1       -3.422  -2.001   0.044  0.00  0.00    -0.480 OA
BRANCH  19  21
ATOM     21  C   LIG    1       -1.070  -2.126   0.008  0.00  0.00    +0.290 C 
BRANCH  21  22
ATOM     22  O   LIG    1       -1.165  -0.700   0.025  0.00  0.00    -0.300 OA
BRANCH  22  23
ATOM     23  C   LIG    1        0.002  -0.004   0.015  0.00  0.00    +0.120 A 
ATOM     24  C   LIG    1       -0.017   1.383   0.031  0.00  0.00    -0.010 A 
ATOM     25  C   LIG    1        1.170   2.089   0.021  0.00  0.00    +0.050 A 
ATOM     26  C   LIG    1        2.377   1.415  -0.004  0.00  0.00    -0.020 A 
ATOM     27  C   LIG    1        2.398   0.032  -0.019  0.00  0.00    +0.050 A 
ATOM     28  C   LIG    1        1.214  -0.678  -0.010  0.00  0.00    -0.080 A 
ENDBRANCH  22  23
ENDBRANCH  21  22
ENDBRANCH  19  21
ENDBRANCH  18  19
ENDBRANCH  17  18
ENDBRANCH   3  17
TORSDOF 9
