REMARK  Name = ZINCpk000000nFPV.1
REMARK                            x       y       z     vdW  Elec       q    Type
REMARK                         _______ _______ _______ _____ _____    ______ ____
ROOT
ATOM      1  N   LIG    1        2.980   3.987  -1.366  0.00  0.00    -0.730 N 
ATOM      2  H   LIG    1        2.498   3.559  -2.089  0.00  0.00    +0.400 HD
ATOM      3  C   LIG    1        4.138   4.630  -1.616  0.00  0.00    +0.510 C 
ATOM      4  O   LIG    1        4.742   5.166  -0.711  0.00  0.00    -0.520 OA
ENDROOT
BRANCH   1   5
ATOM      5  C   LIG    1        2.451   3.937  -0.001  0.00  0.00    +0.320 C 
BRANCH   5  11
ATOM      6  C   LIG    1        1.175   1.783   0.000  0.00  0.00    -0.070 A 
ATOM      7  C   LIG    1       -0.013   1.076   0.008  0.00  0.00    +0.040 A 
ATOM      8  C   LIG    1       -1.219   1.751   0.017  0.00  0.00    +0.020 A 
ATOM      9  C   LIG    1       -1.238   3.133   0.030  0.00  0.00    +0.010 A 
ATOM     10  C   LIG    1       -0.050   3.840   0.023  0.00  0.00    +0.030 A 
ATOM     11  C   LIG    1        1.156   3.166   0.008  0.00  0.00    -0.110 A 
BRANCH   6  12
ATOM     12  C   LIG    1        2.490   1.047  -0.016  0.00  0.00    +0.220 C 
BRANCH  12  13
ATOM     13  O   LIG    1        2.248  -0.361  -0.021  0.00  0.00    -0.380 OA
BRANCH  13  15
ATOM     14  C   LIG    1        3.874  -1.446   1.400  0.00  0.00    +0.010 C 
ATOM     15  C   LIG    1        3.436  -1.155  -0.037  0.00  0.00    +0.140 C 
ATOM     16  C   LIG    1        3.159  -2.473  -0.763  0.00  0.00    +0.040 C 
ENDBRANCH  13  15
ENDBRANCH  12  13
ENDBRANCH   6  12
ENDBRANCH   5  11
ENDBRANCH   1   5
BRANCH   3  17
ATOM     17  C   LIG    1        4.683   4.682  -3.020  0.00  0.00    +0.220 C 
BRANCH  17  18
ATOM     18  N   LIG    1        5.945   5.434  -3.028  0.00  0.00    -0.520 NA
ATOM     19  C   LIG    1        5.720   6.843  -2.682  0.00  0.00    +0.180 C 
ATOM     20  C   LIG    1        7.067   7.560  -2.558  0.00  0.00    +0.050 C 
ATOM     21  C   LIG    1        7.820   7.455  -3.887  0.00  0.00    -0.020 C 
ATOM     22  C   LIG    1        7.998   5.978  -4.248  0.00  0.00    +0.060 C 
ATOM     23  C   LIG    1        6.625   5.307  -4.323  0.00  0.00    +0.180 C 
BRANCH  21  24
ATOM     24  C   LIG    1        9.172   8.108  -3.752  0.00  0.00    +0.520 C 
ATOM     25  O   LIG    1       10.180   7.457  -3.928  0.00  0.00    -0.540 OA
ATOM     26  N   LIG    1        9.261   9.415  -3.437  0.00  0.00    -0.860 N 
ATOM     27  H   LIG    1       10.131   9.835  -3.351  0.00  0.00    +0.400 HD
ATOM     28  H   LIG    1        8.454   9.936  -3.297  0.00  0.00    +0.400 HD
ENDBRANCH  21  24
ENDBRANCH  17  18
ENDBRANCH   3  17
TORSDOF 8
