REMARK  Name = ZINCbw0000000Hb4.0
REMARK                            x       y       z     vdW  Elec       q    Type
REMARK                         _______ _______ _______ _____ _____    ______ ____
ROOT
ATOM      1  C   LIG    1       -0.170   0.375  -1.367  0.00  0.00    +0.160 C 
ATOM      2  C   LIG    1       -0.370   1.840  -1.763  0.00  0.00    +0.060 C 
ENDROOT
BRANCH   1   4
ATOM      3  C   LIG    1        0.366  -1.316  -3.044  0.00  0.00    +0.020 C 
ATOM      4  C   LIG    1        0.768  -0.285  -2.344  0.00  0.00    -0.080 C 
ENDBRANCH   1   4
BRANCH   1   5
ATOM      5  O   LIG    1       -1.430  -0.299  -1.387  0.00  0.00    -0.550 OA
ATOM      6  H   LIG    1       -1.379  -1.234  -1.146  0.00  0.00    +0.370 HD
ENDBRANCH   1   5
BRANCH   1   7
ATOM      7  C   LIG    1        0.425   0.304   0.040  0.00  0.00    +0.010 C 
BRANCH   7   8
ATOM      8  C   LIG    1       -0.528   0.975   1.032  0.00  0.00    +0.060 C 
BRANCH   8   9
ATOM      9  C   LIG    1        0.058   0.904   2.418  0.00  0.00    -0.060 C 
ATOM     10  C   LIG    1       -0.644   0.396   3.401  0.00  0.00    -0.130 C 
ATOM     11  C   LIG    1       -0.011   0.196   4.754  0.00  0.00    +0.070 C 
ATOM     12  C   LIG    1       -2.084   0.011   3.178  0.00  0.00    +0.080 C 
ENDBRANCH   8   9
ENDBRANCH   7   8
ENDBRANCH   1   7
TORSDOF 5
