REMARK  Name = ZINCvU0000000Hjn.0
REMARK                            x       y       z     vdW  Elec       q    Type
REMARK                         _______ _______ _______ _____ _____    ______ ____
ROOT
ATOM      1  C   LIG    1       -0.946  -1.719  -1.446  0.00  0.00    +0.540 C 
ATOM      2  N   LIG    1       -1.058  -0.502  -0.878  0.00  0.00    -0.720 N 
ATOM      3  H   LIG    1       -1.840   0.045  -1.053  0.00  0.00    +0.400 HD
ATOM      4  O   LIG    1        0.032  -2.403  -1.227  0.00  0.00    -0.520 OA
ENDROOT
BRANCH   1   5
ATOM      5  C   LIG    1       -2.036  -2.232  -2.351  0.00  0.00    +0.120 C 
BRANCH   5   6
ATOM      6  S   LIG    1       -1.597  -3.882  -2.951  0.00  0.00    +0.060 S 
BRANCH   6  12
ATOM      7  C   LIG    1       -6.217  -3.434  -5.428  0.00  0.00    +0.140 C 
ATOM      8  C   LIG    1       -4.908  -4.021  -4.966  0.00  0.00    +0.020 A 
ATOM      9  C   LIG    1       -4.423  -5.226  -5.308  0.00  0.00    -0.000 A 
ATOM     10  N   LIG    1       -3.211  -5.367  -4.670  0.00  0.00    -0.550 N 
ATOM     11  H   LIG    1       -2.617  -6.133  -4.720  0.00  0.00    +0.420 HD
ATOM     12  C   LIG    1       -3.003  -4.227  -3.955  0.00  0.00    +0.180 A 
ATOM     13  N   LIG    1       -4.030  -3.431  -4.137  0.00  0.00    -0.480 NA
BRANCH   9  14
ATOM     14  C   LIG    1       -5.080  -6.234  -6.216  0.00  0.00    +0.180 C 
BRANCH  14  15
ATOM     15  C   LIG    1       -4.741  -5.913  -7.649  0.00  0.00    -0.080 A 
ATOM     16  C   LIG    1       -5.559  -5.072  -8.381  0.00  0.00    +0.020 A 
ATOM     17  C   LIG    1       -5.246  -4.775  -9.694  0.00  0.00    +0.000 A 
ATOM     18  C   LIG    1       -4.121  -5.327 -10.279  0.00  0.00    +0.000 A 
ATOM     19  C   LIG    1       -3.307  -6.171  -9.549  0.00  0.00    +0.000 A 
ATOM     20  C   LIG    1       -3.617  -6.465  -8.234  0.00  0.00    +0.000 A 
ENDBRANCH  14  15
ENDBRANCH   9  14
ENDBRANCH   6  12
ENDBRANCH   5   6
ENDBRANCH   1   5
BRANCH   2  21
ATOM     21  C   LIG    1        0.002  -0.004   0.002  0.00  0.00    +0.340 C 
BRANCH  21  22
ATOM     22  C   LIG    1       -0.224  -0.517   1.401  0.00  0.00    -0.090 A 
ATOM     23  C   LIG    1       -1.505  -0.567   1.920  0.00  0.00    +0.020 A 
ATOM     24  C   LIG    1       -1.713  -1.042   3.201  0.00  0.00    +0.000 A 
ATOM     25  C   LIG    1       -0.640  -1.458   3.967  0.00  0.00    +0.000 A 
ATOM     26  C   LIG    1        0.641  -1.404   3.450  0.00  0.00    +0.000 A 
ATOM     27  C   LIG    1        0.849  -0.933   2.167  0.00  0.00    +0.020 A 
ENDBRANCH  21  22
BRANCH  21  28
ATOM     28  C   LIG    1       -0.018   1.503   0.010  0.00  0.00    -0.090 A 
ATOM     29  C   LIG    1       -1.225   2.178   0.020  0.00  0.00    +0.010 A 
ATOM     30  C   LIG    1       -1.244   3.560   0.032  0.00  0.00    +0.020 A 
ATOM     31  C   LIG    1       -0.056   4.267   0.025  0.00  0.00    +0.000 A 
ATOM     32  C   LIG    1        1.151   3.592   0.010  0.00  0.00    +0.020 A 
ATOM     33  C   LIG    1        1.169   2.210   0.003  0.00  0.00    +0.030 A 
ENDBRANCH  21  28
ENDBRANCH   2  21
TORSDOF 8
