REMARK  Name = ZINCrH000004mxOU.0
REMARK                            x       y       z     vdW  Elec       q    Type
REMARK                         _______ _______ _______ _____ _____    ______ ____
ROOT
ATOM      1  N   LIG    1       -0.606  -0.174  -2.636  0.00  0.00    -0.720 N 
ATOM      2  H   LIG    1       -1.426   0.325  -2.779  0.00  0.00    +0.400 HD
ATOM      3  C   LIG    1       -0.237  -0.520  -1.387  0.00  0.00    +0.510 C 
ATOM      4  O   LIG    1        0.728  -1.234  -1.216  0.00  0.00    -0.500 OA
ENDROOT
BRANCH   3   5
ATOM      5  C   LIG    1       -1.024  -0.019  -0.203  0.00  0.00    +0.050 C 
ATOM      6  C   LIG    1       -1.000   1.510  -0.186  0.00  0.00    +0.100 C 
ATOM      7  C   LIG    1        0.372   1.997   0.197  0.00  0.00    +0.520 C 
ATOM      8  N   LIG    1        1.118   1.321   1.089  0.00  0.00    -0.660 N 
ATOM      9  H   LIG    1        1.995   1.655   1.335  0.00  0.00    +0.410 HD
ATOM     10  C   LIG    1        0.637   0.142   1.667  0.00  0.00    +0.170 A 
ATOM     11  C   LIG    1        1.204  -0.344   2.837  0.00  0.00    -0.020 A 
ATOM     12  C   LIG    1        0.725  -1.511   3.401  0.00  0.00    +0.050 A 
ATOM     13  C   LIG    1       -0.317  -2.194   2.802  0.00  0.00    -0.010 A 
ATOM     14  C   LIG    1       -0.884  -1.712   1.636  0.00  0.00    +0.060 A 
ATOM     15  O   LIG    1        0.810   3.010  -0.306  0.00  0.00    -0.520 OA
ATOM     16  C   LIG    1       -0.409  -0.547   1.067  0.00  0.00    -0.100 A 
ENDBRANCH   3   5
BRANCH   1  17
ATOM     17  C   LIG    1        0.230  -0.552  -3.778  0.00  0.00    +0.220 C 
ATOM     18  C   LIG    1        1.646   0.060  -3.639  0.00  0.00    +0.030 C 
ATOM     19  C   LIG    1        1.441   1.514  -4.131  0.00  0.00    +0.010 C 
ATOM     20  C   LIG    1        0.448   1.379  -5.304  0.00  0.00    +0.020 C 
ATOM     21  C   LIG    1       -0.322   0.066  -5.080  0.00  0.00    +0.030 C 
BRANCH  17  25
ATOM     22  C   LIG    1        0.456  -4.806  -4.120  0.00  0.00    +0.130 A 
ATOM     23  C   LIG    1       -0.561  -4.221  -3.378  0.00  0.00    -0.020 A 
ATOM     24  C   LIG    1       -0.631  -2.846  -3.269  0.00  0.00    +0.060 A 
ATOM     25  C   LIG    1        0.310  -2.052  -3.898  0.00  0.00    -0.110 A 
ATOM     26  C   LIG    1        1.321  -2.632  -4.642  0.00  0.00    +0.060 A 
ATOM     27  C   LIG    1        1.399  -4.007  -4.750  0.00  0.00    -0.070 A 
BRANCH  22  29
ATOM     28  C   LIG    1        1.601  -6.691  -5.008  0.00  0.00    +0.250 C 
ATOM     29  O   LIG    1        0.527  -6.158  -4.229  0.00  0.00    -0.320 OA
ENDBRANCH  22  29
ENDBRANCH  17  25
ENDBRANCH   1  17
TORSDOF 4
