REMARK  Name = ZINCvU00000009OV.0
REMARK                            x       y       z     vdW  Elec       q    Type
REMARK                         _______ _______ _______ _____ _____    ______ ____
ROOT
ATOM      1  C   LIG    1       -3.597   6.014  -0.428  0.00  0.00    +0.230 A 
ATOM      2  N   LIG    1       -3.977   4.846  -0.891  0.00  0.00    -0.270 NA
ATOM      3  N   LIG    1       -3.121   3.945  -0.564  0.00  0.00    -0.290 NA
ATOM      4  C   LIG    1       -2.142   4.483   0.128  0.00  0.00    +0.150 A 
ATOM      5  N   LIG    1       -2.413   5.817   0.244  0.00  0.00    -0.450 N 
ENDROOT
BRANCH   1   9
ATOM      6  C   LIG    1       -5.647   9.706  -0.900  0.00  0.00    +0.150 A 
ATOM      7  C   LIG    1       -4.263   9.692  -0.790  0.00  0.00    -0.010 A 
ATOM      8  C   LIG    1       -3.594   8.496  -0.636  0.00  0.00    +0.060 A 
ATOM      9  C   LIG    1       -4.310   7.299  -0.592  0.00  0.00    -0.060 A 
ATOM     10  C   LIG    1       -5.702   7.317  -0.709  0.00  0.00    +0.110 A 
ATOM     11  C   LIG    1       -6.363   8.517  -0.856  0.00  0.00    -0.070 A 
BRANCH   6  13
ATOM     12  C   LIG    1       -7.726  10.829  -1.159  0.00  0.00    +0.240 C 
ATOM     13  O   LIG    1       -6.303  10.887  -1.051  0.00  0.00    -0.310 OA
ENDBRANCH   6  13
ENDBRANCH   1   9
BRANCH   5  14
ATOM     14  C   LIG    1       -1.609   6.827   0.937  0.00  0.00    +0.240 C 
ATOM     15  C   LIG    1       -0.262   6.980   0.228  0.00  0.00    +0.010 C 
ATOM     16  C   LIG    1        0.578   8.035   0.951  0.00  0.00    +0.030 C 
ATOM     17  C   LIG    1        0.810   7.597   2.399  0.00  0.00    +0.010 C 
ATOM     18  C   LIG    1       -0.537   7.443   3.108  0.00  0.00    +0.040 C 
ATOM     19  C   LIG    1       -1.377   6.388   2.384  0.00  0.00    +0.020 C 
ENDBRANCH   5  14
BRANCH   4  20
ATOM     20  S   LIG    1       -0.744   3.639   0.790  0.00  0.00    +0.060 S 
BRANCH  20  21
ATOM     21  C   LIG    1       -1.102   1.954   0.234  0.00  0.00    +0.110 C 
BRANCH  21  22
ATOM     22  C   LIG    1       -0.007   1.029   0.698  0.00  0.00    +0.540 C 
ATOM     23  N   LIG    1        0.120  -0.195   0.148  0.00  0.00    -0.610 N 
ATOM     24  C   LIG    1        1.389  -0.930   0.241  0.00  0.00    +0.230 C 
ATOM     25  C   LIG    1        1.114  -2.316   0.832  0.00  0.00    +0.020 C 
ATOM     26  C   LIG    1        0.040  -3.019  -0.002  0.00  0.00    +0.020 C 
ATOM     27  C   LIG    1       -1.257  -2.207   0.045  0.00  0.00    +0.020 C 
ATOM     28  C   LIG    1        2.359  -0.167   1.145  0.00  0.00    +0.060 C 
ATOM     29  C   LIG    1       -1.010  -0.822  -0.550  0.00  0.00    +0.220 C 
ATOM     30  C   LIG    1       -2.263   0.039  -0.376  0.00  0.00    +0.040 C 
ATOM     31  O   LIG    1        0.764   1.387   1.564  0.00  0.00    -0.510 OA
ENDBRANCH  21  22
ENDBRANCH  20  21
ENDBRANCH   4  20
TORSDOF 6
