REMARK  Name = ZINCrH000004uZ92.0
REMARK                            x       y       z     vdW  Elec       q    Type
REMARK                         _______ _______ _______ _____ _____    ______ ____
ROOT
ATOM      1  O   LIG    1       -5.990   2.405   1.743  0.00  0.00    -0.580 OA
ATOM      2  C   LIG    1       -6.053   3.310   0.934  0.00  0.00    +0.710 C 
ATOM      3  N   LIG    1       -7.210   3.979   0.760  0.00  0.00    -0.630 N 
ATOM      4  C   LIG    1       -8.386   3.706   1.603  0.00  0.00    +0.320 C 
ATOM      5  C   LIG    1       -8.687   4.977   2.405  0.00  0.00    +0.070 C 
ATOM      6  C   LIG    1       -8.681   6.189   1.511  0.00  0.00    -0.010 A 
ATOM      7  C   LIG    1       -8.057   6.209   0.284  0.00  0.00    -0.100 A 
ATOM      8  C   LIG    1       -8.067   7.369  -0.478  0.00  0.00    +0.060 A 
ATOM      9  C   LIG    1       -8.707   8.503  -0.019  0.00  0.00    +0.020 A 
ATOM     10  C   LIG    1       -9.342   8.481   1.209  0.00  0.00    +0.070 A 
ATOM     11  C   LIG    1       -9.329   7.330   1.968  0.00  0.00    -0.190 A 
ATOM     12  C   LIG    1       -7.350   5.002  -0.281  0.00  0.00    +0.340 C 
ATOM     13  N   LIG    1       -4.966   3.645   0.211  0.00  0.00    -0.740 N 
ATOM     14  H   LIG    1       -5.035   4.316  -0.486  0.00  0.00    +0.400 HD
ENDROOT
BRANCH  13  15
ATOM     15  C   LIG    1       -3.680   2.995   0.478  0.00  0.00    +0.230 C 
ATOM     16  C   LIG    1       -3.589   1.685  -0.316  0.00  0.00    +0.230 C 
ATOM     17  O   LIG    1       -2.373   1.025   0.043  0.00  0.00    -0.310 OA
ATOM     18  C   LIG    1       -1.227   1.754   0.020  0.00  0.00    +0.130 A 
ATOM     19  C   LIG    1       -0.011   1.078   0.012  0.00  0.00    -0.020 A 
ATOM     20  C   LIG    1        1.175   1.782   0.002  0.00  0.00    +0.050 A 
ATOM     21  C   LIG    1        1.157   3.165   0.006  0.00  0.00    -0.020 A 
ATOM     22  C   LIG    1       -0.048   3.840   0.017  0.00  0.00    +0.050 A 
ATOM     23  C   LIG    1       -1.242   3.138   0.025  0.00  0.00    -0.160 A 
ATOM     24  C   LIG    1       -2.537   3.909   0.030  0.00  0.00    +0.090 C 
ENDBRANCH  13  15
BRANCH  11  25
ATOM     25  C   LIG    1      -10.023   7.310   3.305  0.00  0.00    +0.510 C 
ATOM     26  F   LIG    1       -9.093   7.019   4.309  0.00  0.00    -0.170 F 
ATOM     27  F   LIG    1      -11.022   6.330   3.298  0.00  0.00    -0.170 F 
ATOM     28  F   LIG    1      -10.599   8.561   3.551  0.00  0.00    -0.180 F 
ENDBRANCH  11  25
TORSDOF 2
