REMARK  Name = ZINCrH000004nD17.0
REMARK                            x       y       z     vdW  Elec       q    Type
REMARK                         _______ _______ _______ _____ _____    ______ ____
ROOT
ATOM      1  N   LIG    1        2.135  -4.178   0.934  0.00  0.00    -0.720 N 
ATOM      2  H   LIG    1        1.718  -3.568   1.561  0.00  0.00    +0.400 HD
ATOM      3  C   LIG    1        3.273  -4.818   1.270  0.00  0.00    +0.600 C 
ATOM      4  O   LIG    1        3.796  -5.583   0.483  0.00  0.00    -0.540 OA
ENDROOT
BRANCH   3   5
ATOM      5  C   LIG    1        3.883  -4.589   2.593  0.00  0.00    -0.290 A 
ATOM      6  C   LIG    1        5.037  -5.175   3.075  0.00  0.00    +0.170 A 
ATOM      7  N   LIG    1        5.243  -4.695   4.315  0.00  0.00    -0.320 N 
ATOM      8  N   LIG    1        4.208  -3.805   4.623  0.00  0.00    -0.290 NA
ATOM      9  C   LIG    1        5.907  -6.166   2.346  0.00  0.00    +0.170 C 
ATOM     10  C   LIG    1        3.393  -3.735   3.606  0.00  0.00    +0.290 A 
BRANCH   7  11
ATOM     11  C   LIG    1        6.311  -5.033   5.157  0.00  0.00    +0.160 A 
ATOM     12  C   LIG    1        6.087  -5.257   6.509  0.00  0.00    +0.040 A 
ATOM     13  C   LIG    1        7.140  -5.595   7.335  0.00  0.00    +0.080 A 
ATOM     14  C   LIG    1        8.420  -5.698   6.820  0.00  0.00    -0.090 A 
ATOM     15  C   LIG    1        8.647  -5.470   5.474  0.00  0.00    +0.080 A 
ATOM     16 BR   LIG    1        9.862  -6.153   7.957  0.00  0.00    -0.040 Br
ATOM     17  C   LIG    1        7.596  -5.138   4.642  0.00  0.00    +0.020 A 
ENDBRANCH   7  11
ENDBRANCH   3   5
BRANCH   1  18
ATOM     18  C   LIG    1        1.529  -4.405  -0.381  0.00  0.00    +0.300 C 
BRANCH  18  19
ATOM     19  C   LIG    1        0.256  -3.565  -0.507  0.00  0.00    +0.190 C 
BRANCH  19  20
ATOM     20  O   LIG    1        0.598  -2.178  -0.483  0.00  0.00    -0.300 OA
BRANCH  20  26
ATOM     21  C   LIG    1       -0.166   0.079  -0.569  0.00  0.00    +0.100 A 
ATOM     22  C   LIG    1       -1.212   0.981  -0.680  0.00  0.00    -0.030 A 
ATOM     23  C   LIG    1       -2.511   0.522  -0.802  0.00  0.00    +0.010 A 
ATOM     24  C   LIG    1       -2.769  -0.836  -0.812  0.00  0.00    +0.010 A 
ATOM     25  C   LIG    1       -1.730  -1.741  -0.702  0.00  0.00    -0.030 A 
ATOM     26  C   LIG    1       -0.426  -1.288  -0.586  0.00  0.00    +0.100 A 
BRANCH  21  28
ATOM     27  C   LIG    1        1.304   1.945  -0.446  0.00  0.00    +0.250 C 
ATOM     28  O   LIG    1        1.112   0.529  -0.450  0.00  0.00    -0.310 OA
ENDBRANCH  21  28
ENDBRANCH  20  26
ENDBRANCH  19  20
ENDBRANCH  18  19
ENDBRANCH   1  18
TORSDOF 7
