REMARK  Name = ZINCrH000004nbTZ.0
REMARK                            x       y       z     vdW  Elec       q    Type
REMARK                         _______ _______ _______ _____ _____    ______ ____
ROOT
ATOM      1  C   LIG    1       -2.210   3.459   3.954  0.00  0.00    +0.150 A 
ATOM      2  C   LIG    1       -3.010   2.489   3.369  0.00  0.00    -0.090 A 
ATOM      3  C   LIG    1       -2.701   2.006   2.109  0.00  0.00    +0.080 A 
ATOM      4  C   LIG    1       -1.599   2.494   1.443  0.00  0.00    -0.180 A 
ATOM      5  C   LIG    1       -1.298   2.055   0.018  0.00  0.00    +0.340 C 
ATOM      6  N   LIG    1       -0.016   1.343   0.011  0.00  0.00    -0.620 N 
ATOM      7  C   LIG    1        1.244   2.088   0.009  0.00  0.00    +0.300 C 
ATOM      8  C   LIG    1        1.406   2.902   1.284  0.00  0.00    +0.100 C 
ATOM      9  O   LIG    1        0.348   3.861   1.395  0.00  0.00    -0.320 OA
ATOM     10  C   LIG    1        2.751   3.631   1.254  0.00  0.00    +0.080 C 
ATOM     11  C   LIG    1        1.368   1.964   2.493  0.00  0.00    +0.030 C 
ATOM     12  C   LIG    1        0.002  -0.004   0.002  0.00  0.00    +0.710 C 
ATOM     13  N   LIG    1       -1.150  -0.694   0.111  0.00  0.00    -0.660 N 
ATOM     14  H   LIG    1       -1.998  -0.224   0.122  0.00  0.00    +0.400 HD
ATOM     15  O   LIG    1        1.058  -0.597  -0.105  0.00  0.00    -0.570 OA
ATOM     16  C   LIG    1       -0.770   3.437   2.034  0.00  0.00    +0.170 A 
ATOM     17  C   LIG    1       -1.089   3.934   3.289  0.00  0.00    -0.030 A 
ENDROOT
BRANCH  13  18
ATOM     18  C   LIG    1       -1.123  -2.099   0.209  0.00  0.00    +0.020 A 
ATOM     19  C   LIG    1       -2.203  -2.913   0.323  0.00  0.00    +0.180 A 
ATOM     20  N   LIG    1       -1.748  -4.191   0.390  0.00  0.00    -0.370 N 
ATOM     21  N   LIG    1       -0.350  -4.154   0.314  0.00  0.00    -0.280 NA
ATOM     22  C   LIG    1        0.024  -2.905   0.201  0.00  0.00    +0.250 A 
BRANCH  20  23
ATOM     23  C   LIG    1       -2.573  -5.395   0.518  0.00  0.00    +0.310 C 
BRANCH  23  24
ATOM     24  C   LIG    1       -2.239  -6.365  -0.617  0.00  0.00    -0.020 C 
ATOM     25  C   LIG    1       -2.639  -5.741  -1.956  0.00  0.00    +0.010 C 
ATOM     26  C   LIG    1       -3.009  -7.672  -0.414  0.00  0.00    +0.030 C 
ENDBRANCH  23  24
ENDBRANCH  20  23
ENDBRANCH  13  18
BRANCH   1  28
ATOM     27  C   LIG    1       -3.692   3.414   5.812  0.00  0.00    +0.250 C 
ATOM     28  O   LIG    1       -2.525   3.947   5.183  0.00  0.00    -0.310 OA
ENDBRANCH   1  28
TORSDOF 4
