REMARK  Name = ZINCrD00000hQ4zt.0
REMARK                            x       y       z     vdW  Elec       q    Type
REMARK                         _______ _______ _______ _____ _____    ______ ____
ROOT
ATOM      1  O   LIG    1       -1.886   6.903  -0.953  0.00  0.00    -0.530 OA
ATOM      2  C   LIG    1       -1.009   6.705  -1.767  0.00  0.00    +0.530 C 
ATOM      3  N   LIG    1       -1.085   7.270  -2.989  0.00  0.00    -0.720 N 
ATOM      4  H   LIG    1       -0.384   7.111  -3.640  0.00  0.00    +0.400 HD
ENDROOT
BRANCH   3   5
ATOM      5  C   LIG    1       -2.226   8.122  -3.333  0.00  0.00    +0.230 C 
ATOM      6  C   LIG    1       -1.961   9.552  -2.851  0.00  0.00    -0.010 C 
ATOM      7  C   LIG    1       -3.122  10.451  -3.284  0.00  0.00    +0.220 C 
ATOM      8  O   LIG    1       -3.264  10.392  -4.705  0.00  0.00    -0.370 OA
ATOM      9  C   LIG    1       -3.560   9.088  -5.208  0.00  0.00    +0.210 C 
ATOM     10  C   LIG    1       -2.417   8.134  -4.853  0.00  0.00    +0.010 C 
BRANCH   9  11
ATOM     11  C   LIG    1       -3.716   9.150  -6.705  0.00  0.00    -0.100 A 
ATOM     12  C   LIG    1       -2.870   9.947  -7.455  0.00  0.00    +0.080 A 
ATOM     13  C   LIG    1       -3.009  10.001  -8.829  0.00  0.00    -0.020 A 
ATOM     14  C   LIG    1       -4.002   9.266  -9.454  0.00  0.00    +0.100 A 
ATOM     15  C   LIG    1       -4.852   8.473  -8.701  0.00  0.00    -0.010 A 
ATOM     16  F   LIG    1       -4.141   9.322 -10.796  0.00  0.00    -0.140 F 
ATOM     17  C   LIG    1       -4.708   8.416  -7.328  0.00  0.00    +0.050 A 
ENDBRANCH   9  11
ENDBRANCH   3   5
BRANCH   2  18
ATOM     18  C   LIG    1        0.164   5.829  -1.413  0.00  0.00    -0.030 C 
ATOM     19  C   LIG    1        1.472   6.656  -1.394  0.00  0.00    +0.030 C 
ATOM     20  C   LIG    1        1.640   6.963   0.116  0.00  0.00    +0.220 C 
ATOM     21  O   LIG    1        1.179   5.754   0.762  0.00  0.00    -0.360 OA
ATOM     22  C   LIG    1        0.029   5.302   0.028  0.00  0.00    +0.240 C 
BRANCH  22  23
ATOM     23  C   LIG    1       -0.015   3.796   0.022  0.00  0.00    -0.150 A 
ATOM     24  C   LIG    1       -1.231   3.129   0.030  0.00  0.00    +0.080 A 
ATOM     25  C   LIG    1       -1.223   1.742   0.017  0.00  0.00    -0.030 A 
ATOM     26  C   LIG    1       -0.013   1.076   0.008  0.00  0.00    +0.260 A 
ATOM     27  N   LIG    1        1.125   1.743   0.001  0.00  0.00    -0.490 NA
ATOM     28  C   LIG    1        1.156   3.061   0.007  0.00  0.00    +0.280 A 
ENDBRANCH  22  23
ENDBRANCH   2  18
TORSDOF 4
