REMARK  Name = ZINCkj000005hjbi.0
REMARK                            x       y       z     vdW  Elec       q    Type
REMARK                         _______ _______ _______ _____ _____    ______ ____
ROOT
ATOM      1  C   LIG    1        4.822   1.375  -0.140  0.00  0.00    +0.300 C 
ATOM      2  N   LIG    1        4.811  -0.090  -0.147  0.00  0.00    -0.600 N 
ATOM      3  C   LIG    1        3.647  -0.755  -0.005  0.00  0.00    +0.560 C 
ATOM      4  O   LIG    1        3.647  -1.968   0.073  0.00  0.00    -0.480 OA
ENDROOT
BRANCH   3   5
ATOM      5  C   LIG    1        2.375  -0.011   0.055  0.00  0.00    -0.070 A 
ATOM      6  C   LIG    1        1.987   0.590   1.216  0.00  0.00    +0.270 A 
ATOM      7  N   LIG    1        0.812   1.279   1.279  0.00  0.00    -0.330 N 
ATOM      8  C   LIG    1        0.199   1.957   2.285  0.00  0.00    +0.500 C 
ATOM      9  N   LIG    1       -0.928   2.454   1.844  0.00  0.00    -0.440 N 
ATOM     10  C   LIG    1       -1.094   2.135   0.559  0.00  0.00    +0.250 C 
ATOM     11  H   LIG    1       -1.549   2.980   2.372  0.00  0.00    +0.470 HD
ATOM     12  C   LIG    1       -0.006   1.382   0.171  0.00  0.00    +0.070 A 
ATOM     13  C   LIG    1        0.357   0.775  -1.051  0.00  0.00    +0.100 A 
ATOM     14  C   LIG    1        1.522   0.086  -1.132  0.00  0.00    +0.120 A 
ENDBRANCH   3   5
BRANCH   2  15
ATOM     15  C   LIG    1        6.064  -0.831  -0.308  0.00  0.00    +0.420 C 
BRANCH  15  16
ATOM     16  C   LIG    1        6.317  -1.077  -1.773  0.00  0.00    +0.290 A 
ATOM     17  N   LIG    1        5.850  -2.178  -2.329  0.00  0.00    -0.500 NA
ATOM     18  C   LIG    1        6.048  -2.425  -3.614  0.00  0.00    +0.320 A 
ATOM     19  C   LIG    1        6.766  -1.514  -4.373  0.00  0.00    -0.070 A 
ATOM     20  C   LIG    1        7.245  -0.371  -3.752  0.00  0.00    +0.320 A 
ATOM     21  N   LIG    1        7.004  -0.189  -2.464  0.00  0.00    -0.510 NA
ENDBRANCH  15  16
ENDBRANCH   2  15
TORSDOF 3
