REMARK  Name = ZINCkj000005mjE5.1
REMARK                            x       y       z     vdW  Elec       q    Type
REMARK                         _______ _______ _______ _____ _____    ______ ____
ROOT
ATOM      1  C   LIG    1        1.429   1.925  -0.001  0.00  0.00    +0.010 C 
ATOM      2  C   LIG    1       -0.017   1.429   0.010  0.00  0.00    +0.300 C 
ATOM      3  O   LIG    1        0.002  -0.004   0.002  0.00  0.00    -0.350 OA
ATOM      4  C   LIG    1        0.628  -0.542  -1.162  0.00  0.00    +0.260 C 
ATOM      5  C   LIG    1        2.080  -0.068  -1.259  0.00  0.00    +0.150 C 
ATOM      6  C   LIG    1        2.551  -0.343  -2.712  0.00  0.00    +0.090 C 
ATOM      7  C   LIG    1        2.213   0.991  -3.467  0.00  0.00    +0.080 C 
ATOM      8  C   LIG    1        1.616   1.929  -2.392  0.00  0.00    +0.250 C 
ATOM      9  N   LIG    1        2.155   1.401  -1.121  0.00  0.00    -0.370 N 
ATOM     10  H   LIG    1        3.124   1.675  -1.053  0.00  0.00    +0.420 HD
ENDROOT
BRANCH   1  11
ATOM     11  C   LIG    1        1.435   3.454  -0.059  0.00  0.00    +0.220 C 
BRANCH  11  12
ATOM     12  O   LIG    1        0.757   3.976   1.086  0.00  0.00    -0.550 OA
ATOM     13  H   LIG    1        0.722   4.942   1.115  0.00  0.00    +0.410 HD
ENDBRANCH  11  12
ENDBRANCH   1  11
BRANCH   1  14
ATOM     14  C   LIG    1        2.126   1.470   1.283  0.00  0.00    +0.340 C 
BRANCH  14  15
ATOM     15  N   LIG    1        3.513   1.942   1.280  0.00  0.00    -0.750 N 
ATOM     16  H   LIG    1        3.847   2.459   0.530  0.00  0.00    +0.390 HD
BRANCH  15  17
ATOM     17  C   LIG    1        4.350   1.648   2.352  0.00  0.00    +0.250 A 
ATOM     18  C   LIG    1        3.886   0.911   3.441  0.00  0.00    -0.100 A 
ATOM     19  C   LIG    1        4.748   0.637   4.482  0.00  0.00    +0.340 A 
ATOM     20  N   LIG    1        5.995   1.071   4.460  0.00  0.00    -0.500 NA
ATOM     21  C   LIG    1        6.471   1.776   3.450  0.00  0.00    +0.220 A 
ATOM     22 CL   LIG    1        8.120   2.317   3.483  0.00  0.00    -0.020 Cl
ATOM     23  C   LIG    1        5.673   2.088   2.367  0.00  0.00    -0.090 A 
ENDBRANCH  15  17
ENDBRANCH  14  15
ENDBRANCH   1  14
TORSDOF 5
