REMARK  Name = ZINCkj000005mjE5.0
REMARK                            x       y       z     vdW  Elec       q    Type
REMARK                         _______ _______ _______ _____ _____    ______ ____
ROOT
ATOM      1  C   LIG    1       -0.746   1.572  -1.222  0.00  0.00    +0.010 C 
ATOM      2  C   LIG    1       -0.701   3.097  -1.029  0.00  0.00    +0.280 C 
ATOM      3  O   LIG    1       -1.310   3.772  -2.128  0.00  0.00    -0.350 OA
ATOM      4  C   LIG    1       -0.821   3.409  -3.430  0.00  0.00    +0.280 C 
ATOM      5  C   LIG    1       -0.978   1.903  -3.561  0.00  0.00    +0.150 C 
ATOM      6  C   LIG    1       -0.432   1.308  -4.861  0.00  0.00    +0.090 C 
ATOM      7  C   LIG    1        0.113  -0.081  -4.436  0.00  0.00    +0.090 C 
ATOM      8  C   LIG    1       -0.096  -0.139  -2.898  0.00  0.00    +0.260 C 
ATOM      9  N   LIG    1       -0.130   1.278  -2.508  0.00  0.00    -0.390 N 
ATOM     10  H   LIG    1        0.802   1.663  -2.539  0.00  0.00    +0.430 HD
ENDROOT
BRANCH   1  11
ATOM     11  C   LIG    1        0.036   0.884  -0.101  0.00  0.00    +0.230 C 
BRANCH  11  12
ATOM     12  O   LIG    1       -0.576   1.178   1.157  0.00  0.00    -0.550 OA
ATOM     13  H   LIG    1       -0.132   0.773   1.914  0.00  0.00    +0.410 HD
ENDBRANCH  11  12
ENDBRANCH   1  11
BRANCH   1  14
ATOM     14  C   LIG    1       -2.197   1.088  -1.217  0.00  0.00    +0.290 C 
BRANCH  14  15
ATOM     15  N   LIG    1       -2.838   1.479   0.041  0.00  0.00    -0.710 N 
ATOM     16  H   LIG    1       -2.365   2.043   0.672  0.00  0.00    +0.420 HD
BRANCH  15  17
ATOM     17  C   LIG    1       -4.128   1.042   0.330  0.00  0.00    +0.260 A 
ATOM     18  C   LIG    1       -4.755   1.404   1.522  0.00  0.00    -0.100 A 
ATOM     19  C   LIG    1       -6.033   0.950   1.771  0.00  0.00    +0.340 A 
ATOM     20  N   LIG    1       -6.662   0.183   0.900  0.00  0.00    -0.510 NA
ATOM     21  C   LIG    1       -6.102  -0.182  -0.240  0.00  0.00    +0.220 A 
ATOM     22 CL   LIG    1       -6.983  -1.191  -1.343  0.00  0.00    -0.020 Cl
ATOM     23  C   LIG    1       -4.827   0.236  -0.567  0.00  0.00    -0.110 A 
ENDBRANCH  15  17
ENDBRANCH  14  15
ENDBRANCH   1  14
TORSDOF 5
