REMARK  Name = ZINCpe000000UeHC.0
REMARK                            x       y       z     vdW  Elec       q    Type
REMARK                         _______ _______ _______ _____ _____    ______ ____
ROOT
ATOM      1  N   LIG    1        3.913   0.447  -2.993  0.00  0.00    -0.530 NA
ATOM      2  C   LIG    1        4.142   1.693  -2.251  0.00  0.00    +0.180 C 
ATOM      3  C   LIG    1        3.721   1.499  -0.790  0.00  0.00    +0.300 C 
ATOM      4  N   LIG    1        2.336   1.006  -0.765  0.00  0.00    -0.620 N 
ATOM      5  C   LIG    1        1.998  -0.165  -1.589  0.00  0.00    +0.280 C 
ATOM      6  C   LIG    1        1.401   1.607  -0.003  0.00  0.00    +0.500 C 
ATOM      7  O   LIG    1        1.698   2.569   0.675  0.00  0.00    -0.510 OA
ATOM      8  C   LIG    1        2.486   0.099  -3.023  0.00  0.00    +0.170 C 
ENDROOT
BRANCH   1   9
ATOM      9  C   LIG    1        4.462   0.535  -4.353  0.00  0.00    +0.330 C 
BRANCH   9  12
ATOM     10  C   LIG    1        2.877  -1.923  -6.424  0.00  0.00    +0.180 A 
ATOM     11  N   LIG    1        2.880  -0.721  -5.902  0.00  0.00    -0.480 NA
ATOM     12  C   LIG    1        3.999  -0.651  -5.160  0.00  0.00    +0.170 A 
ATOM     13  N   LIG    1        4.611  -1.792  -5.270  0.00  0.00    -0.360 NA
ATOM     14  O   LIG    1        3.980  -2.539  -5.988  0.00  0.00    +0.080 OA
BRANCH  10  16
ATOM     15  C   LIG    1        2.204  -2.203  -8.795  0.00  0.00    +0.050 C 
ATOM     16  C   LIG    1        1.830  -2.501  -7.341  0.00  0.00    +0.180 C 
ENDBRANCH  10  16
ENDBRANCH   9  12
ENDBRANCH   1   9
BRANCH   6  17
ATOM     17  C   LIG    1       -0.013   1.086   0.008  0.00  0.00    +0.240 C 
BRANCH  17  18
ATOM     18  N   LIG    1       -0.698   1.558   1.213  0.00  0.00    -0.720 N 
ATOM     19  H   LIG    1       -1.052   0.920   1.852  0.00  0.00    +0.400 HD
ATOM     20  C   LIG    1       -0.838   2.880   1.435  0.00  0.00    +0.520 C 
ATOM     21  O   LIG    1       -0.395   3.679   0.637  0.00  0.00    -0.510 OA
ATOM     22  C   LIG    1       -1.543   3.366   2.675  0.00  0.00    +0.090 C 
ENDBRANCH  17  18
BRANCH  17  23
ATOM     23  C   LIG    1       -0.753   1.593  -1.232  0.00  0.00    +0.030 C 
BRANCH  23  24
ATOM     24  C   LIG    1       -2.147   0.964  -1.286  0.00  0.00    -0.020 C 
ATOM     25  C   LIG    1       -2.017  -0.548  -1.482  0.00  0.00    +0.020 C 
ATOM     26  C   LIG    1       -2.931   1.564  -2.454  0.00  0.00    +0.020 C 
ENDBRANCH  23  24
ENDBRANCH  17  23
ENDBRANCH   6  17
TORSDOF 7
