REMARK  Name = ZINCnE00000hdc9N.0
REMARK                            x       y       z     vdW  Elec       q    Type
REMARK                         _______ _______ _______ _____ _____    ______ ____
ROOT
ATOM      1  C   LIG    1       -1.104  -0.836   0.008  0.00  0.00    +0.410 A 
ATOM      2  N   LIG    1       -2.327  -0.432   0.027  0.00  0.00    -0.510 NA
ATOM      3  C   LIG    1       -3.299  -1.366   0.025  0.00  0.00    +0.130 A 
ATOM      4  C   LIG    1       -4.698  -1.184   0.039  0.00  0.00    +0.110 A 
ATOM      5  C   LIG    1       -5.540  -2.268   0.042  0.00  0.00    -0.170 A 
ATOM      6  C   LIG    1       -5.030  -3.558   0.031  0.00  0.00    +0.040 A 
ATOM      7  C   LIG    1       -3.668  -3.760   0.018  0.00  0.00    +0.090 A 
ATOM      8  C   LIG    1       -2.799  -2.672   0.015  0.00  0.00    -0.200 A 
ATOM      9  S   LIG    1       -1.039  -2.593  -0.001  0.00  0.00    +0.130 S 
ENDROOT
BRANCH   1  13
ATOM     10  C   LIG    1        1.275   1.841  -0.000  0.00  0.00    +0.130 A 
ATOM     11  C   LIG    1        2.094   0.769  -0.014  0.00  0.00    -0.350 A 
ATOM     12  C   LIG    1        1.292  -0.396  -0.012  0.00  0.00    +0.480 A 
ATOM     13  N   LIG    1        0.002  -0.004   0.002  0.00  0.00    -0.360 N 
ATOM     14  O   LIG    1        1.695  -1.545  -0.022  0.00  0.00    -0.600 OA
ATOM     15  N   LIG    1       -0.017   1.397   0.010  0.00  0.00    -0.370 NA
BRANCH  10  16
ATOM     16  C   LIG    1        1.711   3.283   0.003  0.00  0.00    +0.240 C 
ATOM     17  C   LIG    1        1.263   3.954  -1.297  0.00  0.00    +0.020 C 
BRANCH  16  19
ATOM     18  C   LIG    1        1.908   5.034   1.628  0.00  0.00    +0.190 C 
ATOM     19  O   LIG    1        1.121   3.957   1.116  0.00  0.00    -0.370 OA
ENDBRANCH  16  19
ENDBRANCH  10  16
ENDBRANCH   1  13
BRANCH   5  20
ATOM     20  C   LIG    1       -7.032  -2.054   0.056  0.00  0.00    +0.510 C 
ATOM     21  F   LIG    1       -7.410  -1.330  -1.080  0.00  0.00    -0.180 F 
ATOM     22  F   LIG    1       -7.390  -1.341   1.204  0.00  0.00    -0.180 F 
ATOM     23  F   LIG    1       -7.680  -3.294   0.055  0.00  0.00    -0.180 F 
ENDBRANCH   5  20
TORSDOF 4
