REMARK  Name = ZINCpk00000xI6UD.0
REMARK                            x       y       z     vdW  Elec       q    Type
REMARK                         _______ _______ _______ _____ _____    ______ ____
ROOT
ATOM      1  N   LIG    1       -4.400   5.200   2.296  0.00  0.00    -1.090 NA
ATOM      2  S   LIG    1       -5.194   5.779   3.420  0.00  0.00    +2.560 S 
ATOM      3  C   LIG    1       -5.155   7.551   3.386  0.00  0.00    -0.530 A 
ATOM      4  C   LIG    1       -5.570   8.503   2.501  0.00  0.00    +0.180 A 
ATOM      5  C   LIG    1       -5.378   9.846   2.796  0.00  0.00    +0.070 A 
ATOM      6  C   LIG    1       -4.768  10.201   3.986  0.00  0.00    +0.080 A 
ATOM      7  C   LIG    1       -4.348   9.243   4.881  0.00  0.00    +0.120 A 
ATOM      8  C   LIG    1       -4.533   7.878   4.600  0.00  0.00    -0.120 A 
ATOM      9  C   LIG    1       -4.172   6.695   5.392  0.00  0.00    +0.520 C 
ATOM     10  O   LIG    1       -3.625   6.812   6.471  0.00  0.00    -0.460 OA
ATOM     11  O   LIG    1       -6.529   5.294   3.403  0.00  0.00    -0.920 OA
ATOM     12  N   LIG    1       -4.460   5.479   4.897  0.00  0.00    -0.910 N 
ATOM     13  C   LIG    1       -4.191   4.178   5.513  0.00  0.00    +0.390 C 
ENDROOT
BRANCH   1  14
ATOM     14  C   LIG    1       -4.167   3.897   2.252  0.00  0.00    +0.560 C 
ATOM     15  O   LIG    1       -4.600   3.172   3.126  0.00  0.00    -0.560 OA
BRANCH  14  20
ATOM     16  C   LIG    1       -0.014   1.212   0.009  0.00  0.00    +0.550 C 
ATOM     17  N   LIG    1       -1.172   1.903   0.022  0.00  0.00    -0.610 N 
ATOM     18  C   LIG    1       -1.169   3.369  -0.066  0.00  0.00    +0.280 C 
ATOM     19  C   LIG    1       -1.970   3.940   1.103  0.00  0.00    +0.040 C 
ATOM     20  C   LIG    1       -3.366   3.313   1.117  0.00  0.00    +0.040 C 
ATOM     21  C   LIG    1       -3.245   1.799   1.305  0.00  0.00    +0.050 C 
ATOM     22  C   LIG    1       -2.459   1.204   0.132  0.00  0.00    +0.280 C 
ATOM     23  O   LIG    1       -0.032  -0.004  -0.006  0.00  0.00    -0.540 OA
BRANCH  16  25
ATOM     24  C   LIG    1        2.411   1.250   0.092  0.00  0.00    +0.140 C 
ATOM     25  C   LIG    1        1.270   1.929   0.005  0.00  0.00    -0.090 C 
ENDBRANCH  16  25
ENDBRANCH  14  20
ENDBRANCH   1  14
TORSDOF 3
