REMARK  Name = ZINCpe00000bsRmT.0
REMARK                            x       y       z     vdW  Elec       q    Type
REMARK                         _______ _______ _______ _____ _____    ______ ____
ROOT
ATOM      1  N   LIG    1        2.320   3.766   0.000  0.00  0.00    -0.460 N 
ATOM      2  C   LIG    1        2.388   4.704  -1.128  0.00  0.00    +0.210 C 
ATOM      3  C   LIG    1        3.650   5.563  -1.000  0.00  0.00    +0.290 C 
ATOM      4  N   LIG    1        4.811   4.669  -0.863  0.00  0.00    -0.620 N 
ATOM      5  C   LIG    1        4.759   3.612   0.159  0.00  0.00    +0.300 C 
ATOM      6  C   LIG    1        5.893   4.816  -1.653  0.00  0.00    +0.520 C 
ATOM      7  O   LIG    1        6.841   4.070  -1.526  0.00  0.00    -0.540 OA
ATOM      8  C   LIG    1        3.453   2.831  -0.016  0.00  0.00    +0.220 C 
ENDROOT
BRANCH   1  13
ATOM      9  C   LIG    1       -1.188   3.152   0.030  0.00  0.00    +0.390 A 
ATOM     10  C   LIG    1       -1.215   1.758   0.017  0.00  0.00    -0.120 A 
ATOM     11  C   LIG    1       -0.013   1.076   0.008  0.00  0.00    +0.380 A 
ATOM     12  N   LIG    1        1.121   1.761   0.001  0.00  0.00    -0.570 NA
ATOM     13  C   LIG    1        1.115   3.086   0.008  0.00  0.00    +0.530 A 
ATOM     14  N   LIG    1       -0.016   3.775   0.022  0.00  0.00    -0.590 NA
BRANCH   9  15
ATOM     15  O   LIG    1       -2.343   3.861   0.044  0.00  0.00    -0.300 OA
BRANCH  15  17
ATOM     16  C   LIG    1       -3.627   5.908   0.067  0.00  0.00    +0.060 C 
ATOM     17  C   LIG    1       -2.230   5.285   0.051  0.00  0.00    +0.200 C 
ENDBRANCH  15  17
ENDBRANCH   9  15
ENDBRANCH   1  13
BRANCH   6  18
ATOM     18  C   LIG    1        5.925   5.905  -2.693  0.00  0.00    +0.060 C 
BRANCH  18  19
ATOM     19  C   LIG    1        7.256   5.853  -3.446  0.00  0.00    +0.130 C 
BRANCH  19  20
ATOM     20  C   LIG    1        7.288   6.942  -4.487  0.00  0.00    -0.240 A 
ATOM     21  C   LIG    1        6.869   6.832  -5.769  0.00  0.00    +0.230 A 
ATOM     22  N   LIG    1        7.062   8.025  -6.369  0.00  0.00    -0.380 N 
ATOM     23  N   LIG    1        7.627   8.895  -5.427  0.00  0.00    -0.300 NA
ATOM     24  C   LIG    1        6.744   8.351  -7.761  0.00  0.00    +0.360 C 
ATOM     25  C   LIG    1        7.761   8.245  -4.299  0.00  0.00    +0.230 A 
ENDBRANCH  19  20
ENDBRANCH  18  19
ENDBRANCH   6  18
TORSDOF 6
