REMARK  Name = ZINCqH0000008ssX.0
REMARK                            x       y       z     vdW  Elec       q    Type
REMARK                         _______ _______ _______ _____ _____    ______ ____
ROOT
ATOM      1  N   LIG    1       -0.279  -0.022  -0.277  0.00  0.00    -0.730 N 
ATOM      2  H   LIG    1       -1.013  -0.457  -0.737  0.00  0.00    +0.410 HD
ENDROOT
BRANCH   1   3
ATOM      3  C   LIG    1        0.719  -0.791   0.332  0.00  0.00    +0.200 A 
ATOM      4  C   LIG    1        1.774  -0.169   0.986  0.00  0.00    -0.060 A 
ATOM      5  C   LIG    1        2.756  -0.928   1.591  0.00  0.00    +0.030 A 
ATOM      6  C   LIG    1        2.694  -2.314   1.536  0.00  0.00    +0.090 A 
ATOM      7  C   LIG    1        1.641  -2.937   0.878  0.00  0.00    +0.060 A 
ATOM      8  C   LIG    1        0.657  -2.178   0.278  0.00  0.00    -0.040 A 
BRANCH   6   9
ATOM      9  N   LIG    1        3.693  -3.085   2.145  0.00  0.00    -0.660 N 
ATOM     10  H   LIG    1        4.195  -2.725   2.893  0.00  0.00    +0.410 HD
ATOM     11  C   LIG    1        3.957  -4.326   1.692  0.00  0.00    +0.540 C 
ATOM     12  O   LIG    1        3.406  -4.737   0.693  0.00  0.00    -0.520 OA
BRANCH  11  13
ATOM     13  C   LIG    1        4.938  -5.204   2.426  0.00  0.00    -0.070 C 
ATOM     14  C   LIG    1        6.264  -5.517   1.731  0.00  0.00    +0.060 C 
ATOM     15  C   LIG    1        5.194  -6.603   1.862  0.00  0.00    +0.070 C 
ENDBRANCH  11  13
ENDBRANCH   6   9
ENDBRANCH   1   3
BRANCH   1  17
ATOM     16  C   LIG    1       -0.841   1.927   1.089  0.00  0.00    +0.050 C 
ATOM     17  C   LIG    1       -0.213   1.440  -0.219  0.00  0.00    +0.250 C 
BRANCH  17  18
ATOM     18  C   LIG    1       -0.968   2.023  -1.386  0.00  0.00    +0.510 C 
ATOM     19  N   LIG    1       -1.044   3.360  -1.539  0.00  0.00    -0.670 N 
ATOM     20  H   LIG    1       -0.557   3.945  -0.938  0.00  0.00    +0.420 HD
ATOM     21  O   LIG    1       -1.507   1.289  -2.187  0.00  0.00    -0.510 OA
BRANCH  19  22
ATOM     22  C   LIG    1       -1.825   3.904  -2.567  0.00  0.00    +0.140 A 
ATOM     23  C   LIG    1       -1.926   3.247  -3.785  0.00  0.00    +0.030 A 
ATOM     24  C   LIG    1       -2.703   3.785  -4.796  0.00  0.00    +0.110 A 
ATOM     25  C   LIG    1       -3.370   4.981  -4.597  0.00  0.00    +0.010 A 
ATOM     26  C   LIG    1       -3.267   5.640  -3.385  0.00  0.00    +0.050 A 
ATOM     27  F   LIG    1       -2.806   3.143  -5.981  0.00  0.00    -0.130 F 
ATOM     28  C   LIG    1       -2.496   5.106  -2.369  0.00  0.00    +0.060 A 
ATOM     29  F   LIG    1       -2.395   5.751  -1.187  0.00  0.00    -0.130 F 
ENDBRANCH  19  22
ENDBRANCH  17  18
ENDBRANCH   1  17
TORSDOF 6
