REMARK  Name = ZINCtV00001bB3S8.0
REMARK                            x       y       z     vdW  Elec       q    Type
REMARK                         _______ _______ _______ _____ _____    ______ ____
ROOT
ATOM      1  C   LIG    1       -2.399  -0.241  -0.087  0.00  0.00    +0.360 C 
ATOM      2  N   LIG    1       -2.409   1.065   0.019  0.00  0.00    -0.530 NA
ENDROOT
BRANCH   1  15
ATOM      3  C   LIG    1       -6.080  -2.635  -0.424  0.00  0.00    +0.320 C 
ATOM      4  N   LIG    1       -4.694  -3.112  -0.409  0.00  0.00    -0.530 N 
ATOM      5  C   LIG    1       -4.330  -4.454  -0.505  0.00  0.00    +0.150 A 
ATOM      6  C   LIG    1       -5.113  -5.601  -0.629  0.00  0.00    -0.020 A 
ATOM      7  C   LIG    1       -4.516  -6.842  -0.707  0.00  0.00    +0.050 A 
ATOM      8  C   LIG    1       -3.139  -6.959  -0.664  0.00  0.00    -0.010 A 
ATOM      9  C   LIG    1       -2.355  -5.825  -0.541  0.00  0.00    +0.070 A 
ATOM     10  C   LIG    1       -2.947  -4.585  -0.462  0.00  0.00    -0.140 A 
ATOM     11  C   LIG    1       -2.382  -3.189  -0.332  0.00  0.00    -0.010 C 
ATOM     12  C   LIG    1       -1.586  -3.055   0.968  0.00  0.00    +0.070 C 
ATOM     13  C   LIG    1       -1.502  -2.850  -1.538  0.00  0.00    +0.070 C 
ATOM     14  C   LIG    1       -3.603  -2.295  -0.300  0.00  0.00    +0.230 C 
ATOM     15  C   LIG    1       -3.613  -0.949  -0.191  0.00  0.00    -0.120 C 
ENDBRANCH   1  15
BRANCH   2  16
ATOM     16  C   LIG    1       -1.239   1.742   0.228  0.00  0.00    +0.170 A 
ATOM     17  C   LIG    1       -0.349   1.318   1.217  0.00  0.00    +0.020 A 
ATOM     18  C   LIG    1        0.831   2.003   1.418  0.00  0.00    -0.130 A 
ATOM     19  C   LIG    1        1.132   3.111   0.646  0.00  0.00    +0.050 A 
ATOM     20  C   LIG    1        0.252   3.541  -0.333  0.00  0.00    +0.100 A 
ATOM     21  C   LIG    1       -0.931   2.865  -0.545  0.00  0.00    -0.170 A 
BRANCH  18  22
ATOM     22  C   LIG    1        1.796   1.544   2.481  0.00  0.00    +0.510 C 
ATOM     23  F   LIG    1        1.087   0.934   3.522  0.00  0.00    -0.170 F 
ATOM     24  F   LIG    1        2.501   2.645   2.978  0.00  0.00    -0.170 F 
ATOM     25  F   LIG    1        2.695   0.625   1.929  0.00  0.00    -0.170 F 
ENDBRANCH  18  22
BRANCH  21  26
ATOM     26  C   LIG    1       -1.888   3.334  -1.611  0.00  0.00    +0.520 C 
ATOM     27  F   LIG    1       -3.116   3.660  -1.025  0.00  0.00    -0.160 F 
ATOM     28  F   LIG    1       -2.075   2.315  -2.550  0.00  0.00    -0.170 F 
ATOM     29  F   LIG    1       -1.361   4.463  -2.246  0.00  0.00    -0.180 F 
ENDBRANCH  21  26
ENDBRANCH   2  16
TORSDOF 4
