REMARK  Name = ZINCkj000005jr4d.1
REMARK                            x       y       z     vdW  Elec       q    Type
REMARK                         _______ _______ _______ _____ _____    ______ ____
ROOT
ATOM      1  C   LIG    1       -2.843   1.648   0.074  0.00  0.00    +0.140 A 
ATOM      2  C   LIG    1       -3.295   0.854  -0.923  0.00  0.00    -0.010 A 
ATOM      3  C   LIG    1       -4.010   1.420  -1.999  0.00  0.00    +0.560 A 
ATOM      4  N   LIG    1       -4.238   2.749  -2.026  0.00  0.00    -0.350 N 
ATOM      5  N   LIG    1       -4.903   3.566  -2.948  0.00  0.00    -0.230 NA
ATOM      6  C   LIG    1       -4.860   4.803  -2.536  0.00  0.00    +0.370 A 
ATOM      7  C   LIG    1       -4.156   4.843  -1.312  0.00  0.00    -0.170 A 
ATOM      8  C   LIG    1       -3.777   3.537  -1.016  0.00  0.00    +0.350 A 
ATOM      9  O   LIG    1       -4.420   0.711  -2.900  0.00  0.00    -0.440 OA
ATOM     10  N   LIG    1       -3.085   2.989   0.035  0.00  0.00    -0.600 N 
ATOM     11  H   LIG    1       -2.764   3.559   0.752  0.00  0.00    +0.430 HD
ENDROOT
BRANCH   7  12
ATOM     12  C   LIG    1       -3.884   6.008  -0.525  0.00  0.00    +0.270 C 
ATOM     13  N   LIG    1       -3.668   6.932   0.100  0.00  0.00    -0.390 NA
ENDBRANCH   7  12
BRANCH   1  14
ATOM     14  C   LIG    1       -2.078   1.051   1.227  0.00  0.00    +0.370 C 
BRANCH  14  15
ATOM     15  N   LIG    1       -0.700   1.560   1.217  0.00  0.00    -0.390 N 
ATOM     16  C   LIG    1       -0.013   1.086   0.008  0.00  0.00    +0.320 C 
ATOM     17  H   LIG    1       -0.714   2.568   1.222  0.00  0.00    +0.420 HD
BRANCH  15  18
ATOM     18  C   LIG    1        0.010   1.073   2.407  0.00  0.00    +0.310 C 
BRANCH  18  22
ATOM     19  C   LIG    1        3.179   2.528   4.196  0.00  0.00    +0.060 C 
ATOM     20  C   LIG    1        2.262   1.411   3.694  0.00  0.00    +0.010 C 
ATOM     21  C   LIG    1        2.607   0.763   2.352  0.00  0.00    +0.060 C 
ATOM     22  C   LIG    1        1.404   1.702   2.461  0.00  0.00    -0.090 C 
ENDBRANCH  18  22
ENDBRANCH  15  18
ENDBRANCH  14  15
ENDBRANCH   1  14
TORSDOF 5
