REMARK  Name = ZINCkj000005jr4d.0
REMARK                            x       y       z     vdW  Elec       q    Type
REMARK                         _______ _______ _______ _____ _____    ______ ____
ROOT
ATOM      1  C   LIG    1       -5.339   4.092  -0.000  0.00  0.00    +0.140 A 
ATOM      2  C   LIG    1       -6.203   4.548   0.934  0.00  0.00    -0.010 A 
ATOM      3  C   LIG    1       -6.647   5.886   0.882  0.00  0.00    +0.560 A 
ATOM      4  N   LIG    1       -6.207   6.700  -0.099  0.00  0.00    -0.350 N 
ATOM      5  N   LIG    1       -6.473   8.043  -0.391  0.00  0.00    -0.230 NA
ATOM      6  C   LIG    1       -5.804   8.393  -1.454  0.00  0.00    +0.370 A 
ATOM      7  C   LIG    1       -5.064   7.278  -1.905  0.00  0.00    -0.170 A 
ATOM      8  C   LIG    1       -5.341   6.226  -1.036  0.00  0.00    +0.350 A 
ATOM      9  O   LIG    1       -7.425   6.305   1.720  0.00  0.00    -0.440 OA
ATOM     10  N   LIG    1       -4.902   4.926  -0.986  0.00  0.00    -0.600 N 
ATOM     11  H   LIG    1       -4.282   4.599  -1.657  0.00  0.00    +0.440 HD
ENDROOT
BRANCH   7  12
ATOM     12  C   LIG    1       -4.197   7.236  -3.044  0.00  0.00    +0.270 C 
ATOM     13  N   LIG    1       -3.509   7.202  -3.947  0.00  0.00    -0.390 NA
ENDBRANCH   7  12
BRANCH   1  14
ATOM     14  C   LIG    1       -4.860   2.664   0.048  0.00  0.00    +0.370 C 
BRANCH  14  15
ATOM     15  N   LIG    1       -5.345   1.944  -1.137  0.00  0.00    -0.390 N 
ATOM     16  C   LIG    1       -4.768   0.594  -1.161  0.00  0.00    +0.340 C 
ATOM     17  H   LIG    1       -5.069   2.442  -1.970  0.00  0.00    +0.420 HD
BRANCH  15  18
ATOM     18  C   LIG    1       -6.810   1.849  -1.087  0.00  0.00    +0.290 C 
BRANCH  18  22
ATOM     19  C   LIG    1       -9.250  -0.338  -3.237  0.00  0.00    +0.080 C 
ATOM     20  C   LIG    1       -8.823   0.917  -2.473  0.00  0.00    +0.010 C 
ATOM     21  C   LIG    1       -8.217   2.066  -3.281  0.00  0.00    +0.050 C 
ATOM     22  C   LIG    1       -7.325   1.212  -2.379  0.00  0.00    -0.090 C 
ENDBRANCH  18  22
ENDBRANCH  15  18
ENDBRANCH  14  15
ENDBRANCH   1  14
TORSDOF 5
