REMARK  Name = ZINCrg000000tT3O.0
REMARK                            x       y       z     vdW  Elec       q    Type
REMARK                         _______ _______ _______ _____ _____    ______ ____
ROOT
ATOM      1  O   LIG    1        4.848  -1.345   0.513  0.00  0.00    -0.540 OA
ATOM      2  C   LIG    1        4.026  -0.880  -0.252  0.00  0.00    +0.710 C 
ATOM      3  N   LIG    1        4.125  -0.954  -1.585  0.00  0.00    -0.680 N 
ATOM      4  H   LIG    1        4.857  -1.384  -2.054  0.00  0.00    +0.440 HD
ATOM      5  C   LIG    1        3.080  -0.358  -2.195  0.00  0.00    +0.530 C 
ATOM      6  C   LIG    1        2.205   0.163  -1.079  0.00  0.00    +0.120 C 
ATOM      7  C   LIG    1        0.829  -0.492  -1.132  0.00  0.00    +0.060 C 
ATOM      8  C   LIG    1       -0.015  -0.000   0.050  0.00  0.00    +0.300 C 
ATOM      9  N   LIG    1       -0.029   1.469   0.041  0.00  0.00    -0.610 N 
ATOM     10  C   LIG    1        1.252   2.189   0.022  0.00  0.00    +0.280 C 
ATOM     11  C   LIG    1       -1.195   2.144   0.043  0.00  0.00    +0.520 C 
ATOM     12  O   LIG    1       -2.246   1.538   0.054  0.00  0.00    -0.520 OA
ATOM     13  C   LIG    1        2.086   1.681  -1.160  0.00  0.00    +0.070 C 
ATOM     14  O   LIG    1        2.885  -0.260  -3.388  0.00  0.00    -0.450 OA
ATOM     15  N   LIG    1        2.915  -0.232   0.145  0.00  0.00    -0.720 N 
ATOM     16  H   LIG    1        2.638  -0.060   1.058  0.00  0.00    +0.440 HD
ENDROOT
BRANCH  11  17
ATOM     17  C   LIG    1       -1.194   3.651   0.034  0.00  0.00    +0.010 C 
ATOM     18  C   LIG    1       -0.652   4.195  -1.308  0.00  0.00    +0.090 C 
ATOM     19  C   LIG    1       -1.891   4.403  -2.151  0.00  0.00    +0.520 C 
ATOM     20  N   LIG    1       -2.986   4.398  -1.373  0.00  0.00    -0.550 N 
ATOM     21  O   LIG    1       -1.895   4.551  -3.355  0.00  0.00    -0.500 OA
ATOM     22  C   LIG    1       -2.636   4.205   0.039  0.00  0.00    +0.320 C 
BRANCH  20  23
ATOM     23  C   LIG    1       -4.293   4.558  -1.847  0.00  0.00    +0.180 A 
ATOM     24  C   LIG    1       -4.516   4.859  -3.185  0.00  0.00    +0.010 A 
ATOM     25  C   LIG    1       -5.807   5.011  -3.651  0.00  0.00    +0.080 A 
ATOM     26  C   LIG    1       -6.877   4.873  -2.786  0.00  0.00    -0.120 A 
ATOM     27  C   LIG    1       -6.658   4.578  -1.452  0.00  0.00    +0.080 A 
ATOM     28 BR   LIG    1       -8.643   5.090  -3.427  0.00  0.00    -0.050 Br
ATOM     29  C   LIG    1       -5.370   4.420  -0.981  0.00  0.00    -0.010 A 
ENDBRANCH  20  23
ENDBRANCH  11  17
TORSDOF 2
