REMARK  Name = ZINCpk00000y6vpC.0
REMARK                            x       y       z     vdW  Elec       q    Type
REMARK                         _______ _______ _______ _____ _____    ______ ____
ROOT
ATOM      1  C   LIG    1        5.417   2.432   0.175  0.00  0.00    +0.290 C 
ENDROOT
BRANCH   1   2
ATOM      2  C   LIG    1        3.917   2.236   0.409  0.00  0.00    -0.010 C 
ATOM      3  C   LIG    1        3.135   3.265  -0.413  0.00  0.00    +0.050 C 
ATOM      4  C   LIG    1        1.658   3.225   0.001  0.00  0.00    +0.170 C 
ATOM      5  C   LIG    1        1.206   1.783   0.000  0.00  0.00    +0.220 A 
ATOM      6  N   LIG    1       -0.016   1.339   0.009  0.00  0.00    -0.450 NA
ATOM      7  C   LIG    1        0.002  -0.004   0.002  0.00  0.00    -0.100 A 
ATOM      8  C   LIG    1        1.290  -0.405  -0.012  0.00  0.00    +0.220 A 
ATOM      9  N   LIG    1        2.051   0.725  -0.012  0.00  0.00    -0.450 N 
ATOM     10  C   LIG    1        3.513   0.822  -0.022  0.00  0.00    +0.300 C 
BRANCH   7  11
ATOM     11  C   LIG    1       -1.206  -0.906   0.008  0.00  0.00    +0.560 C 
ATOM     12  F   LIG    1       -1.235  -1.638   1.199  0.00  0.00    -0.170 F 
ATOM     13  F   LIG    1       -1.136  -1.785  -1.079  0.00  0.00    -0.170 F 
ATOM     14  F   LIG    1       -2.366  -0.131  -0.093  0.00  0.00    -0.170 F 
ENDBRANCH   7  11
ENDBRANCH   1   2
BRANCH   1  15
ATOM     15  N   LIG    1        6.169   1.530   1.051  0.00  0.00    -1.120 NA
ATOM     16  H   LIG    1        5.726   1.097   1.798  0.00  0.00    +0.420 HD
BRANCH  15  17
ATOM     17  S   LIG    1        7.775   1.247   0.766  0.00  0.00    +2.730 S 
ATOM     18  O   LIG    1        7.890   0.943  -0.618  0.00  0.00    -0.950 OA
ATOM     19  O   LIG    1        8.217   0.371   1.793  0.00  0.00    -0.940 OA
BRANCH  17  23
ATOM     20  C   LIG    1       10.396   5.193   3.036  0.00  0.00    +0.200 C 
ATOM     21  C   LIG    1        9.700   4.371   1.982  0.00  0.00    +0.210 A 
ATOM     22  N   LIG    1        9.147   3.204   2.169  0.00  0.00    -0.410 NA
ATOM     23  C   LIG    1        8.624   2.771   1.012  0.00  0.00    -0.560 A 
ATOM     24  C   LIG    1        8.868   3.703   0.071  0.00  0.00    +0.260 A 
ATOM     25  N   LIG    1        9.545   4.721   0.687  0.00  0.00    -0.450 N 
ATOM     26  C   LIG    1       10.017   5.956   0.057  0.00  0.00    +0.340 C 
ENDBRANCH  17  23
ENDBRANCH  15  17
ENDBRANCH   1  15
TORSDOF 5
