REMARK  Name = ZINCrg00000SjSpV.0
REMARK                            x       y       z     vdW  Elec       q    Type
REMARK                         _______ _______ _______ _____ _____    ______ ____
ROOT
ATOM      1  N   LIG    1       -1.191   1.866   0.018  0.00  0.00    -0.640 N 
ATOM      2  H   LIG    1       -1.204   2.836   0.023  0.00  0.00    +0.420 HD
ATOM      3  C   LIG    1       -0.014   1.208   0.009  0.00  0.00    +0.510 C 
ATOM      4  O   LIG    1        0.002  -0.004   0.002  0.00  0.00    -0.440 OA
ENDROOT
BRANCH   1   9
ATOM      5  C   LIG    1       -3.468  -0.880   0.013  0.00  0.00    +0.410 A 
ATOM      6  C   LIG    1       -4.691  -0.218   0.022  0.00  0.00    -0.140 A 
ATOM      7  C   LIG    1       -4.691   1.172   0.030  0.00  0.00    +0.420 A 
ATOM      8  N   LIG    1       -3.530   1.819   0.029  0.00  0.00    -0.620 NA
ATOM      9  C   LIG    1       -2.384   1.155   0.020  0.00  0.00    +0.610 A 
ATOM     10  N   LIG    1       -2.346  -0.168   0.007  0.00  0.00    -0.570 NA
BRANCH   5  12
ATOM     11  C   LIG    1       -2.126  -2.839  -0.005  0.00  0.00    +0.280 C 
ATOM     12  O   LIG    1       -3.421  -2.235   0.005  0.00  0.00    -0.290 OA
ENDBRANCH   5  12
BRANCH   7  13
ATOM     13  O   LIG    1       -5.859   1.859   0.040  0.00  0.00    -0.290 OA
ATOM     14  C   LIG    1       -5.773   3.285   0.048  0.00  0.00    +0.260 C 
ENDBRANCH   7  13
ENDBRANCH   1   9
BRANCH   3  15
ATOM     15  C   LIG    1        1.280   1.980   0.001  0.00  0.00    +0.220 C 
BRANCH  15  16
ATOM     16  N   LIG    1        2.410   1.040  -0.015  0.00  0.00    -0.520 NA
ATOM     17  C   LIG    1        2.473   0.271   1.235  0.00  0.00    +0.190 C 
ATOM     18  C   LIG    1        3.611  -0.749   1.147  0.00  0.00    +0.190 C 
ATOM     19  N   LIG    1        4.877  -0.045   0.901  0.00  0.00    -0.530 NA
ATOM     20  C   LIG    1        4.814   0.724  -0.350  0.00  0.00    +0.190 C 
ATOM     21  C   LIG    1        3.676   1.744  -0.262  0.00  0.00    +0.190 C 
BRANCH  19  22
ATOM     22  C   LIG    1        6.006  -0.985   0.885  0.00  0.00    +0.270 C 
BRANCH  22  23
ATOM     23  C   LIG    1        6.189  -1.574   2.260  0.00  0.00    +0.080 A 
ATOM     24  C   LIG    1        5.654  -2.744   2.622  0.00  0.00    -0.090 A 
ATOM     25  S   LIG    1        6.111  -3.054   4.295  0.00  0.00    +0.120 S 
ATOM     26  C   LIG    1        6.975  -1.579   4.342  0.00  0.00    +0.050 A 
ATOM     27  C   LIG    1        7.727  -1.058   5.539  0.00  0.00    +0.180 C 
ATOM     28  N   LIG    1        6.894  -0.980   3.202  0.00  0.00    -0.460 NA
ENDBRANCH  22  23
ENDBRANCH  19  22
ENDBRANCH  15  16
ENDBRANCH   3  15
TORSDOF 7
