REMARK  Name = ZINCpe000000Vg5x.0
REMARK                            x       y       z     vdW  Elec       q    Type
REMARK                         _______ _______ _______ _____ _____    ______ ____
ROOT
ATOM      1  C   LIG    1       -1.470   1.650  -0.077  0.00  0.00    +0.560 C 
ATOM      2  N   LIG    1       -2.642   0.986  -0.117  0.00  0.00    -0.610 N 
ATOM      3  C   LIG    1       -2.676  -0.478  -0.254  0.00  0.00    +0.280 C 
ATOM      4  C   LIG    1       -3.578  -1.045   0.854  0.00  0.00    +0.180 C 
ATOM      5  N   LIG    1       -4.889  -0.386   0.796  0.00  0.00    -0.520 NA
ATOM      6  C   LIG    1       -4.774   1.054   1.063  0.00  0.00    +0.170 C 
ATOM      7  C   LIG    1       -3.921   1.707  -0.029  0.00  0.00    +0.300 C 
ATOM      8  O   LIG    1       -1.461   2.865  -0.034  0.00  0.00    -0.520 OA
ENDROOT
BRANCH   1  14
ATOM      9  C   LIG    1        0.755   1.119   0.921  0.00  0.00    +0.210 A 
ATOM     10  C   LIG    1        1.950   0.414   0.899  0.00  0.00    +0.020 A 
ATOM     11  C   LIG    1        2.198  -0.495  -0.110  0.00  0.00    +0.060 A 
ATOM     12  C   LIG    1        1.260  -0.711  -1.106  0.00  0.00    +0.000 A 
ATOM     13  C   LIG    1        0.067  -0.020  -1.100  0.00  0.00    +0.070 A 
ATOM     14  C   LIG    1       -0.198   0.903  -0.086  0.00  0.00    -0.160 A 
BRANCH   9  16
ATOM     15  C   LIG    1        1.515   2.755   2.465  0.00  0.00    +0.650 C 
ATOM     16  N   LIG    1        0.502   2.037   1.938  0.00  0.00    -0.650 N 
ATOM     17  H   LIG    1       -0.402   2.161   2.266  0.00  0.00    +0.420 HD
ATOM     18  O   LIG    1        2.628   2.678   1.984  0.00  0.00    -0.550 OA
BRANCH  15  20
ATOM     19  C   LIG    1        2.429   4.298   4.039  0.00  0.00    +0.310 C 
ATOM     20  O   LIG    1        1.292   3.555   3.524  0.00  0.00    -0.370 OA
ENDBRANCH  15  20
ENDBRANCH   9  16
ENDBRANCH   1  14
BRANCH   5  21
ATOM     21  C   LIG    1       -5.838  -1.019   1.721  0.00  0.00    +0.090 C 
ATOM     22  C   LIG    1       -5.411  -0.735   3.163  0.00  0.00    +0.030 C 
ATOM     23  C   LIG    1       -5.853  -2.530   1.482  0.00  0.00    +0.070 C 
BRANCH  21  24
ATOM     24  C   LIG    1       -7.218  -0.460   1.487  0.00  0.00    +0.530 C 
ATOM     25  O   LIG    1       -7.955  -0.251   2.426  0.00  0.00    -0.540 OA
ATOM     26  N   LIG    1       -7.632  -0.193   0.232  0.00  0.00    -0.840 N 
ATOM     27  H   LIG    1       -8.491   0.235   0.086  0.00  0.00    +0.400 HD
ATOM     28  H   LIG    1       -7.072  -0.427  -0.524  0.00  0.00    +0.410 HD
ENDBRANCH  21  24
ENDBRANCH   5  21
TORSDOF 5
