REMARK  Name = ZINCpk000000mUPU.0
REMARK                            x       y       z     vdW  Elec       q    Type
REMARK                         _______ _______ _______ _____ _____    ______ ____
ROOT
ATOM      1  C   LIG    1       -2.430   5.222   4.173  0.00  0.00    -0.020 C 
ATOM      2  C   LIG    1       -3.930   4.984   3.982  0.00  0.00    +0.020 C 
ATOM      3  C   LIG    1       -4.702   5.638   5.130  0.00  0.00    +0.010 C 
ATOM      4  C   LIG    1       -4.446   7.149   5.116  0.00  0.00    +0.310 C 
ATOM      5  N   LIG    1       -2.996   7.383   5.153  0.00  0.00    -0.560 N 
ATOM      6  C   LIG    1       -2.149   6.727   4.148  0.00  0.00    +0.300 C 
ENDROOT
BRANCH   5   7
ATOM      7  C   LIG    1       -2.441   8.205   6.115  0.00  0.00    +0.500 A 
ATOM      8  N   LIG    1       -3.190   8.695   7.076  0.00  0.00    -0.530 NA
ATOM      9  C   LIG    1       -2.666   9.499   8.034  0.00  0.00    +0.170 A 
ATOM     10  C   LIG    1       -3.489  10.002   9.051  0.00  0.00    +0.060 A 
ATOM     11  C   LIG    1       -2.959  10.822  10.020  0.00  0.00    +0.060 A 
ATOM     12  C   LIG    1       -1.613  11.157   9.999  0.00  0.00    +0.030 A 
ATOM     13  C   LIG    1       -0.788  10.672   9.007  0.00  0.00    +0.060 A 
ATOM     14  C   LIG    1       -1.303   9.842   8.018  0.00  0.00    +0.030 A 
ATOM     15  N   LIG    1       -0.481   9.351   7.019  0.00  0.00    -0.200 N 
ATOM     16  N   LIG    1        0.769   9.482   6.744  0.00  0.00    -0.080 NA
ATOM     17  N   LIG    1        1.041   8.804   5.683  0.00  0.00    -0.050 NA
ATOM     18  N   LIG    1       -0.025   8.221   5.248  0.00  0.00    -0.260 NA
ATOM     19  C   LIG    1       -1.015   8.538   6.062  0.00  0.00    +0.130 A 
ENDBRANCH   5   7
BRANCH   1  20
ATOM     20  C   LIG    1       -1.657   4.539   3.042  0.00  0.00    +0.030 C 
BRANCH  20  21
ATOM     21  C   LIG    1       -1.842   3.024   3.141  0.00  0.00    +0.260 C 
BRANCH  21  24
ATOM     22  C   LIG    1       -0.358   0.355   0.832  0.00  0.00    +0.090 C 
ATOM     23  C   LIG    1       -1.119   1.027   1.945  0.00  0.00    +0.510 C 
ATOM     24  N   LIG    1       -1.101   2.370   2.058  0.00  0.00    -0.730 N 
ATOM     25  H   LIG    1       -0.599   2.904   1.423  0.00  0.00    +0.400 HD
ATOM     26  O   LIG    1       -1.748   0.360   2.739  0.00  0.00    -0.550 OA
ENDBRANCH  21  24
ENDBRANCH  20  21
ENDBRANCH   1  20
TORSDOF 4
