REMARK  Name = ZINCAx0000000dYp.0
REMARK                            x       y       z     vdW  Elec       q    Type
REMARK                         _______ _______ _______ _____ _____    ______ ____
ROOT
ATOM      1  N   LIG    1       -2.476   3.550   0.832  0.00  0.00    -0.520 N 
ATOM      2  C   LIG    1       -2.761   4.712   0.210  0.00  0.00    +0.580 C 
ATOM      3  O   LIG    1       -3.918   5.058   0.070  0.00  0.00    -0.510 OA
ENDROOT
BRANCH   1   9
ATOM      4  N   LIG    1        0.752   1.797   0.791  0.00  0.00    -0.540 N 
ATOM      5  C   LIG    1        1.460   2.557   1.646  0.00  0.00    +0.710 A 
ATOM      6  N   LIG    1        0.913   3.632   2.240  0.00  0.00    -0.660 N 
ATOM      7  H   LIG    1        1.445   4.164   2.853  0.00  0.00    +0.430 HD
ATOM      8  C   LIG    1       -0.367   3.976   1.998  0.00  0.00    +0.560 A 
ATOM      9  C   LIG    1       -1.136   3.207   1.104  0.00  0.00    -0.160 A 
ATOM     10  O   LIG    1       -0.855   4.950   2.546  0.00  0.00    -0.500 OA
ATOM     11  O   LIG    1        2.616   2.266   1.887  0.00  0.00    -0.530 OA
ATOM     12  C   LIG    1       -0.557   2.107   0.504  0.00  0.00    +0.480 A 
BRANCH  12  13
ATOM     13  N   LIG    1       -1.280   1.330  -0.369  0.00  0.00    -0.830 N 
ATOM     14  H   LIG    1       -2.220   1.516  -0.518  0.00  0.00    +0.430 HD
ATOM     15  H   LIG    1       -0.850   0.597  -0.836  0.00  0.00    +0.410 HD
ENDBRANCH  12  13
BRANCH   4  16
ATOM     16  C   LIG    1        1.380   0.633   0.161  0.00  0.00    +0.310 C 
BRANCH  16  17
ATOM     17  C   LIG    1        1.161  -0.601   1.038  0.00  0.00    +0.010 C 
BRANCH  17  19
ATOM     18  C   LIG    1        1.598  -3.051   1.258  0.00  0.00    +0.020 C 
ATOM     19  C   LIG    1        1.816  -1.817   0.381  0.00  0.00    +0.020 C 
ENDBRANCH  17  19
ENDBRANCH  16  17
ENDBRANCH   4  16
ENDBRANCH   1   9
BRANCH   2  20
ATOM     20  C   LIG    1       -1.667   5.564  -0.302  0.00  0.00    -0.140 A 
ATOM     21  C   LIG    1       -0.479   4.985  -0.751  0.00  0.00    +0.100 A 
ATOM     22  C   LIG    1        0.536   5.786  -1.232  0.00  0.00    -0.020 A 
ATOM     23  C   LIG    1        0.383   7.160  -1.259  0.00  0.00    +0.050 A 
ATOM     24  C   LIG    1       -0.790   7.741  -0.810  0.00  0.00    -0.690 A 
ATOM     25  C   LIG    1        1.499   8.029  -1.780  0.00  0.00    +0.100 C 
ATOM     26  C   LIG    1       -1.815   6.952  -0.332  0.00  0.00    +0.190 A 
BRANCH  24  27
ATOM     27  S   LIG    1       -0.975   9.493  -0.850  0.00  0.00    +2.690 S 
ATOM     28  O   LIG    1       -2.279   9.770  -0.359  0.00  0.00    -0.950 OA
ATOM     29  O   LIG    1       -0.518   9.916  -2.127  0.00  0.00    -0.950 OA
BRANCH  27  30
ATOM     30  N   LIG    1        0.084  10.123   0.257  0.00  0.00    -0.990 NA
ATOM     31  C   LIG    1       -0.284  10.215   1.677  0.00  0.00    +0.290 C 
ATOM     32  C   LIG    1        0.807   9.526   2.510  0.00  0.00    +0.010 C 
ATOM     33  C   LIG    1        2.166  10.143   2.171  0.00  0.00    +0.020 C 
ATOM     34  C   LIG    1        2.477   9.917   0.690  0.00  0.00    +0.010 C 
ATOM     35  C   LIG    1        1.407  10.606  -0.163  0.00  0.00    +0.290 C 
ENDBRANCH  27  30
ENDBRANCH  24  27
ENDBRANCH   2  20
BRANCH   1  36
ATOM     36  C   LIG    1       -3.559   2.644   1.224  0.00  0.00    +0.280 C 
BRANCH  36  37
ATOM     37  C   LIG    1       -3.922   2.889   2.690  0.00  0.00    -0.040 C 
ATOM     38  C   LIG    1       -5.005   1.897   3.119  0.00  0.00    +0.020 C 
ATOM     39  C   LIG    1       -4.445   4.317   2.854  0.00  0.00    +0.030 C 
ENDBRANCH  36  37
ENDBRANCH   1  36
TORSDOF 10
