REMARK  Name = ZINCqH0000004d9V.0
REMARK                            x       y       z     vdW  Elec       q    Type
REMARK                         _______ _______ _______ _____ _____    ______ ____
ROOT
ATOM      1  C   LIG    1        0.640   3.376   0.014  0.00  0.00    +0.170 C 
ATOM      2  N   LIG    1        1.094   1.974   0.002  0.00  0.00    -0.710 N 
ATOM      3  H   LIG    1        2.012   1.662  -0.009  0.00  0.00    +0.440 HD
ATOM      4  C   LIG    1       -0.014   1.211   0.009  0.00  0.00    +0.700 C 
ATOM      5  N   LIG    1       -1.137   1.940   0.018  0.00  0.00    -0.570 N 
ATOM      6  O   LIG    1        0.002  -0.004   0.002  0.00  0.00    -0.530 OA
ATOM      7  C   LIG    1       -0.871   3.261   0.028  0.00  0.00    +0.540 C 
ATOM      8  O   LIG    1       -1.675   4.169   0.040  0.00  0.00    -0.440 OA
ENDROOT
BRANCH   1   9
ATOM      9  C   LIG    1        1.106   4.094  -1.226  0.00  0.00    -0.110 A 
ATOM     10  C   LIG    1        1.342   5.456  -1.188  0.00  0.00    +0.080 A 
ATOM     11  C   LIG    1        1.774   6.115  -2.323  0.00  0.00    -0.010 A 
ATOM     12  C   LIG    1        1.960   5.413  -3.502  0.00  0.00    +0.110 A 
ATOM     13  C   LIG    1        1.719   4.050  -3.540  0.00  0.00    -0.010 A 
ATOM     14  F   LIG    1        2.378   6.057  -4.614  0.00  0.00    -0.130 F 
ATOM     15  C   LIG    1        1.292   3.392  -2.402  0.00  0.00    +0.060 A 
ENDBRANCH   1   9
BRANCH   1  17
ATOM     16  C   LIG    1        0.715   3.305   2.510  0.00  0.00    +0.020 C 
ATOM     17  C   LIG    1        1.140   4.093   1.270  0.00  0.00    +0.060 C 
ENDBRANCH   1  17
BRANCH   5  18
ATOM     18  C   LIG    1       -2.487   1.371   0.020  0.00  0.00    +0.460 C 
BRANCH  18  19
ATOM     19  C   LIG    1       -2.944   1.168   1.441  0.00  0.00    +0.050 A 
ATOM     20  N   LIG    1       -3.568   2.048   2.129  0.00  0.00    -0.440 NA
ATOM     21  C   LIG    1       -3.921   1.728   3.389  0.00  0.00    +0.080 A 
ATOM     22  C   LIG    1       -4.607   2.493   4.353  0.00  0.00    +0.080 A 
ATOM     23  C   LIG    1       -4.862   1.978   5.588  0.00  0.00    +0.030 A 
ATOM     24  C   LIG    1       -4.453   0.694   5.920  0.00  0.00    +0.050 A 
ATOM     25  C   LIG    1       -3.780  -0.075   4.998  0.00  0.00    +0.060 A 
ATOM     26  C   LIG    1       -3.510   0.435   3.730  0.00  0.00    -0.180 A 
ATOM     27  S   LIG    1       -2.688  -0.261   2.337  0.00  0.00    +0.140 S 
ENDBRANCH  18  19
ENDBRANCH   5  18
TORSDOF 4
