REMARK  Name = ZINCrH00000No57V.0
REMARK                            x       y       z     vdW  Elec       q    Type
REMARK                         _______ _______ _______ _____ _____    ______ ____
ROOT
ATOM      1  C   LIG    1        0.086  -3.567   2.518  0.00  0.00    +0.330 C 
ATOM      2  N   LIG    1        0.433  -2.439   1.960  0.00  0.00    -0.460 NA
ATOM      3  C   LIG    1        1.309  -2.696   0.945  0.00  0.00    -0.120 C 
ATOM      4  C   LIG    1        1.485  -4.154   0.936  0.00  0.00    +0.480 C 
ATOM      5  O   LIG    1        2.189  -4.809   0.189  0.00  0.00    -0.430 OA
ATOM      6  C   LIG    1        1.910  -1.774   0.104  0.00  0.00    +0.290 C 
ATOM      7  O   LIG    1        0.699  -4.614   1.934  0.00  0.00    -0.290 OA
ENDROOT
BRANCH   6   8
ATOM      8  C   LIG    1        1.628  -0.396   0.249  0.00  0.00    -0.210 A 
ATOM      9  C   LIG    1        0.381   0.191   0.331  0.00  0.00    +0.170 A 
ATOM     10  N   LIG    1        0.522   1.532   0.465  0.00  0.00    -0.580 N 
ATOM     11  H   LIG    1       -0.214   2.160   0.538  0.00  0.00    +0.420 HD
ATOM     12  C   LIG    1        1.857   1.882   0.476  0.00  0.00    +0.090 A 
ATOM     13  C   LIG    1        2.516   3.102   0.588  0.00  0.00    +0.000 A 
ATOM     14  C   LIG    1        3.894   3.144   0.567  0.00  0.00    +0.030 A 
ATOM     15  C   LIG    1        4.635   1.979   0.434  0.00  0.00    +0.000 A 
ATOM     16  C   LIG    1        3.999   0.761   0.323  0.00  0.00    +0.050 A 
ATOM     17  C   LIG    1       -0.932  -0.545   0.282  0.00  0.00    +0.160 C 
ATOM     18  C   LIG    1        2.609   0.704   0.343  0.00  0.00    -0.070 A 
ENDBRANCH   6   8
BRANCH   1  22
ATOM     19  C   LIG    1       -2.617  -3.890   5.778  0.00  0.00    +0.180 A 
ATOM     20  C   LIG    1       -2.036  -5.034   5.242  0.00  0.00    +0.010 A 
ATOM     21  C   LIG    1       -1.159  -4.933   4.185  0.00  0.00    +0.090 A 
ATOM     22  C   LIG    1       -0.853  -3.679   3.651  0.00  0.00    -0.060 A 
ATOM     23  C   LIG    1       -1.435  -2.530   4.194  0.00  0.00    +0.100 A 
ATOM     24  C   LIG    1       -2.315  -2.640   5.248  0.00  0.00    -0.010 A 
BRANCH  19  27
ATOM     25  C   LIG    1       -4.354  -5.149   8.867  0.00  0.00    +0.110 C 
ATOM     26  C   LIG    1       -3.331  -4.958   7.778  0.00  0.00    +0.510 C 
ATOM     27  N   LIG    1       -3.506  -3.996   6.850  0.00  0.00    -0.680 N 
ATOM     28  H   LIG    1       -4.249  -3.378   6.927  0.00  0.00    +0.420 HD
ATOM     29  O   LIG    1       -2.349  -5.670   7.736  0.00  0.00    -0.520 OA
ENDBRANCH  19  27
ENDBRANCH   1  22
TORSDOF 3
