REMARK  Name = ZINCqH0000031DxW.0
REMARK                            x       y       z     vdW  Elec       q    Type
REMARK                         _______ _______ _______ _____ _____    ______ ____
ROOT
ATOM      1  C   LIG    1       -4.769   5.281  -4.079  0.00  0.00    +0.190 C 
ATOM      2  C   LIG    1       -3.886   5.955  -5.132  0.00  0.00    +0.050 C 
ATOM      3  C   LIG    1       -3.328   5.660  -3.741  0.00  0.00    -0.120 C 
ATOM      4  C   LIG    1       -3.105   6.844  -2.795  0.00  0.00    +0.080 C 
ATOM      5  C   LIG    1       -2.962   6.308  -1.366  0.00  0.00    +0.180 C 
ATOM      6  N   LIG    1       -1.884   5.312  -1.323  0.00  0.00    -0.530 NA
ATOM      7  C   LIG    1       -2.210   4.129  -2.128  0.00  0.00    +0.170 C 
ATOM      8  C   LIG    1       -2.305   4.528  -3.605  0.00  0.00    +0.080 C 
ENDROOT
BRANCH   1  11
ATOM      9  C   LIG    1       -6.875   8.259  -2.923  0.00  0.00    +0.090 C 
ATOM     10  C   LIG    1       -5.843   7.423  -3.634  0.00  0.00    +0.520 C 
ATOM     11  N   LIG    1       -5.838   6.084  -3.480  0.00  0.00    -0.580 N 
ATOM     12  O   LIG    1       -5.017   7.954  -4.345  0.00  0.00    -0.530 OA
BRANCH  11  13
ATOM     13  C   LIG    1       -6.902   5.431  -2.713  0.00  0.00    +0.350 C 
BRANCH  13  14
ATOM     14  C   LIG    1       -6.543   5.438  -1.249  0.00  0.00    -0.120 A 
ATOM     15  C   LIG    1       -6.892   6.431  -0.430  0.00  0.00    -0.040 A 
ATOM     16  S   LIG    1       -6.301   6.093   1.192  0.00  0.00    +0.110 S 
ATOM     17  C   LIG    1       -5.593   4.577   0.650  0.00  0.00    -0.050 A 
ATOM     18  C   LIG    1       -5.831   4.412  -0.652  0.00  0.00    +0.020 A 
ENDBRANCH  13  14
ENDBRANCH  11  13
ENDBRANCH   1  11
BRANCH   6  19
ATOM     19  C   LIG    1       -1.570   4.936   0.062  0.00  0.00    +0.340 C 
BRANCH  19  20
ATOM     20  C   LIG    1       -0.645   3.747   0.062  0.00  0.00    +0.190 A 
ATOM     21  N   LIG    1        0.657   3.799   0.050  0.00  0.00    -0.460 NA
ATOM     22  C   LIG    1        1.138   2.543   0.054  0.00  0.00    -0.010 A 
ATOM     23  C   LIG    1        0.089   1.704   0.070  0.00  0.00    -0.050 A 
ATOM     24  C   LIG    1        0.147   0.198   0.080  0.00  0.00    +0.180 C 
ATOM     25  C   LIG    1        2.593   2.148   0.043  0.00  0.00    +0.160 C 
ATOM     26  O   LIG    1       -1.025   2.462   0.069  0.00  0.00    -0.200 OA
ENDBRANCH  19  20
ENDBRANCH   6  19
TORSDOF 5
