REMARK  Name = ZINCqH0000006LjV.0
REMARK                            x       y       z     vdW  Elec       q    Type
REMARK                         _______ _______ _______ _____ _____    ______ ____
ROOT
ATOM      1  C   LIG    1        1.280   1.980   0.001  0.00  0.00    +0.120 C 
ENDROOT
BRANCH   1   4
ATOM      2  C   LIG    1        4.024  -0.304  -1.241  0.00  0.00    +0.150 A 
ATOM      3  C   LIG    1        2.957   0.582  -1.221  0.00  0.00    -0.090 A 
ATOM      4  C   LIG    1        2.439   1.016  -0.016  0.00  0.00    +0.010 A 
ATOM      5  C   LIG    1        2.984   0.573   1.175  0.00  0.00    -0.090 A 
ATOM      6  C   LIG    1        4.046  -0.318   1.164  0.00  0.00    +0.150 A 
ATOM      7  C   LIG    1        4.571  -0.756  -0.046  0.00  0.00    +0.030 A 
BRANCH   2   9
ATOM      8  C   LIG    1        3.922  -0.224  -3.615  0.00  0.00    +0.240 C 
ATOM      9  O   LIG    1        4.534  -0.730  -2.427  0.00  0.00    -0.300 OA
ENDBRANCH   2   9
BRANCH   6  10
ATOM     10  O   LIG    1        4.578  -0.757   2.336  0.00  0.00    -0.300 OA
ATOM     11  C   LIG    1        3.989  -0.264   3.541  0.00  0.00    +0.250 C 
ENDBRANCH   6  10
BRANCH   7  12
ATOM     12  O   LIG    1        5.618  -1.626  -0.060  0.00  0.00    -0.310 OA
ATOM     13  C   LIG    1        6.930  -1.061  -0.069  0.00  0.00    +0.210 C 
ENDBRANCH   7  12
ENDBRANCH   1   4
BRANCH   1  14
ATOM     14  C   LIG    1       -0.014   1.209   0.009  0.00  0.00    +0.510 C 
ATOM     15  N   LIG    1       -1.191   1.867   0.018  0.00  0.00    -0.610 N 
ATOM     16  C   LIG    1       -1.210   3.331   0.026  0.00  0.00    +0.270 C 
ATOM     17  O   LIG    1        0.002  -0.004   0.002  0.00  0.00    -0.510 OA
BRANCH  15  18
ATOM     18  C   LIG    1       -2.449   1.117   0.020  0.00  0.00    +0.350 C 
BRANCH  18  19
ATOM     19  C   LIG    1       -2.874   0.852   1.441  0.00  0.00    -0.140 A 
ATOM     20  C   LIG    1       -2.461  -0.302   2.084  0.00  0.00    +0.140 A 
ATOM     21  C   LIG    1       -2.847  -0.541   3.392  0.00  0.00    -0.020 A 
ATOM     22  C   LIG    1       -3.654   0.366   4.051  0.00  0.00    +0.070 A 
ATOM     23  C   LIG    1       -4.072   1.516   3.407  0.00  0.00    +0.010 A 
ATOM     24  F   LIG    1       -1.676  -1.192   1.437  0.00  0.00    -0.110 F 
ATOM     25  C   LIG    1       -3.682   1.760   2.102  0.00  0.00    +0.000 A 
ATOM     26 CL   LIG    1       -4.207   3.204   1.295  0.00  0.00    -0.050 Cl
ENDBRANCH  18  19
ENDBRANCH  15  18
ENDBRANCH   1  14
TORSDOF 7
