REMARK  Name = ZINCpk000004SSpm.0
REMARK                            x       y       z     vdW  Elec       q    Type
REMARK                         _______ _______ _______ _____ _____    ______ ____
ROOT
ATOM      1  N   LIG    1       -2.347   2.148   0.068  0.00  0.00    -0.670 N 
ATOM      2  H   LIG    1       -2.609   1.216   0.137  0.00  0.00    +0.420 HD
ENDROOT
BRANCH   1   3
ATOM      3  C   LIG    1       -1.017   2.487   0.045  0.00  0.00    +0.520 A 
ATOM      4  C   LIG    1       -0.032   1.494   0.009  0.00  0.00    -0.250 A 
ATOM      5  C   LIG    1       -0.021   0.027  -0.013  0.00  0.00    -0.260 A 
ATOM      6  C   LIG    1        1.330  -0.320  -0.040  0.00  0.00    +0.260 A 
ATOM      7  N   LIG    1        2.066   0.778  -0.035  0.00  0.00    -0.530 NA
ATOM      8  C   LIG    1        1.327   1.877  -0.007  0.00  0.00    +0.260 A 
ATOM      9  N   LIG    1        1.615   3.224   0.008  0.00  0.00    -0.550 N 
ATOM     10  H   LIG    1        2.537   3.525  -0.002  0.00  0.00    +0.430 HD
ATOM     11  C   LIG    1        0.616   4.121   0.038  0.00  0.00    +0.640 A 
ATOM     12  N   LIG    1       -0.644   3.772   0.053  0.00  0.00    -0.570 NA
BRANCH   5  13
ATOM     13  C   LIG    1       -1.175  -0.874  -0.007  0.00  0.00    +0.590 C 
ATOM     14  O   LIG    1       -1.835  -1.024  -1.019  0.00  0.00    -0.540 OA
ATOM     15  N   LIG    1       -1.506  -1.537   1.119  0.00  0.00    -0.850 N 
ATOM     16  H   LIG    1       -2.224  -2.189   1.104  0.00  0.00    +0.400 HD
ATOM     17  H   LIG    1       -1.026  -1.363   1.944  0.00  0.00    +0.400 HD
ENDBRANCH   5  13
ENDBRANCH   1   3
BRANCH   1  18
ATOM     18  C   LIG    1       -3.371   3.193  -0.011  0.00  0.00    +0.290 C 
BRANCH  18  19
ATOM     19  C   LIG    1       -4.759   2.551   0.035  0.00  0.00    +0.250 C 
BRANCH  19  20
ATOM     20  N   LIG    1       -4.871   1.713   1.232  0.00  0.00    -0.710 N 
ATOM     21  H   LIG    1       -5.049   0.764   1.144  0.00  0.00    +0.410 HD
ATOM     22  C   LIG    1       -4.725   2.261   2.454  0.00  0.00    +0.480 C 
ATOM     23  O   LIG    1       -4.502   3.449   2.563  0.00  0.00    -0.490 OA
BRANCH  22  24
ATOM     24  C   LIG    1       -4.840   1.400   3.685  0.00  0.00    +0.390 C 
ATOM     25  F   LIG    1       -6.065   0.724   3.669  0.00  0.00    -0.190 F 
ATOM     26  F   LIG    1       -4.766   2.205   4.827  0.00  0.00    -0.170 F 
ENDBRANCH  22  24
ENDBRANCH  19  20
BRANCH  19  27
ATOM     27  C   LIG    1       -5.826   3.646   0.078  0.00  0.00    +0.030 C 
BRANCH  27  28
ATOM     28  C   LIG    1       -7.215   3.009  -0.002  0.00  0.00    +0.000 C 
BRANCH  28  30
ATOM     29  C   LIG    1       -9.671   3.467  -0.039  0.00  0.00    +0.000 C 
ATOM     30  C   LIG    1       -8.282   4.105   0.041  0.00  0.00    +0.000 C 
ENDBRANCH  28  30
ENDBRANCH  27  28
ENDBRANCH  19  27
ENDBRANCH  18  19
ENDBRANCH   1  18
TORSDOF 9
