REMARK  Name = ZINCvU0000000HXi.0
REMARK                            x       y       z     vdW  Elec       q    Type
REMARK                         _______ _______ _______ _____ _____    ______ ____
ROOT
ATOM      1  C   LIG    1       -5.636   6.874   0.066  0.00  0.00    +0.160 C 
ATOM      2  N   LIG    1       -4.773   5.918   0.051  0.00  0.00    -0.240 NA
ATOM      3  N   LIG    1       -3.448   6.346   0.054  0.00  0.00    -0.470 N 
ATOM      4  C   LIG    1       -3.424   7.818   0.062  0.00  0.00    +0.330 C 
ATOM      5  C   LIG    1       -2.364   5.545   0.044  0.00  0.00    +0.560 C 
ATOM      6  O   LIG    1       -1.252   6.028   0.042  0.00  0.00    -0.480 OA
ATOM      7  C   LIG    1       -4.916   8.204   0.071  0.00  0.00    +0.100 C 
ENDROOT
BRANCH   1  12
ATOM      8  C   LIG    1      -11.347   6.192   0.087  0.00  0.00    +0.100 C 
ATOM      9  C   LIG    1       -9.851   6.370   0.081  0.00  0.00    -0.060 A 
ATOM     10  C   LIG    1       -9.024   5.261   0.072  0.00  0.00    +0.010 A 
ATOM     11  C   LIG    1       -7.654   5.417   0.066  0.00  0.00    +0.060 A 
ATOM     12  C   LIG    1       -7.101   6.699   0.071  0.00  0.00    -0.050 A 
ATOM     13  C   LIG    1       -7.940   7.815   0.087  0.00  0.00    +0.050 A 
ATOM     14  C   LIG    1       -9.309   7.644   0.086  0.00  0.00    +0.010 A 
ENDBRANCH   1  12
BRANCH   4  15
ATOM     15  C   LIG    1       -2.747   8.344  -1.177  0.00  0.00    -0.030 A 
ATOM     16  C   LIG    1       -1.928   9.410  -1.234  0.00  0.00    -0.030 A 
ATOM     17  C   LIG    1       -1.521   9.543  -2.581  0.00  0.00    -0.060 A 
ATOM     18  C   LIG    1       -2.122   8.555  -3.269  0.00  0.00    +0.170 A 
ATOM     19  O   LIG    1       -2.863   7.832  -2.413  0.00  0.00    -0.170 OA
ENDBRANCH   4  15
BRANCH   5  20
ATOM     20  C   LIG    1       -2.535   4.047   0.037  0.00  0.00    +0.260 C 
BRANCH  20  21
ATOM     21  O   LIG    1       -1.250   3.422   0.027  0.00  0.00    -0.290 OA
BRANCH  21  22
ATOM     22  C   LIG    1       -1.226   2.063   0.019  0.00  0.00    +0.130 A 
ATOM     23  C   LIG    1       -2.415   1.345   0.032  0.00  0.00    -0.080 A 
ATOM     24  C   LIG    1       -2.397  -0.037   0.024  0.00  0.00    +0.050 A 
ATOM     25  C   LIG    1       -1.195  -0.717   0.009  0.00  0.00    -0.010 A 
ATOM     26  C   LIG    1        0.002  -0.004   0.002  0.00  0.00    -0.020 A 
ATOM     27  C   LIG    1        1.304  -0.705  -0.013  0.00  0.00    +0.000 C 
ATOM     28  C   LIG    1        2.398  -0.055   0.357  0.00  0.00    -0.010 C 
ATOM     29  C   LIG    1        2.336   1.380   0.801  0.00  0.00    +0.060 C 
ATOM     30  C   LIG    1        1.285   2.148   0.001  0.00  0.00    +0.100 C 
ATOM     31  C   LIG    1       -0.017   1.391   0.010  0.00  0.00    -0.100 A 
ENDBRANCH  21  22
ENDBRANCH  20  21
ENDBRANCH   5  20
TORSDOF 5
