REMARK  Name = ZINCnE00000dSSJt.0
REMARK                            x       y       z     vdW  Elec       q    Type
REMARK                         _______ _______ _______ _____ _____    ______ ____
ROOT
ATOM      1  N   LIG    1       -0.406  -6.295  -0.812  0.00  0.00    -0.450 N 
ATOM      2  C   LIG    1        0.610  -7.085  -1.319  0.00  0.00    +0.050 A 
ATOM      3  C   LIG    1        0.364  -8.385  -1.001  0.00  0.00    -0.040 A 
ATOM      4  C   LIG    1       -0.851  -8.429  -0.277  0.00  0.00    -0.100 A 
ATOM      5  C   LIG    1       -1.592  -9.471   0.296  0.00  0.00    +0.050 A 
ATOM      6  C   LIG    1       -2.757  -9.194   0.951  0.00  0.00    -0.050 A 
ATOM      7  C   LIG    1       -3.218  -7.888   1.055  0.00  0.00    +0.000 A 
ATOM      8  C   LIG    1       -2.507  -6.847   0.502  0.00  0.00    -0.020 A 
ATOM      9  C   LIG    1       -1.315  -7.102  -0.171  0.00  0.00    +0.080 A 
ENDROOT
BRANCH   2  10
ATOM     10  C   LIG    1        1.768  -6.599  -2.075  0.00  0.00    +0.540 C 
ATOM     11  O   LIG    1        2.611  -7.390  -2.479  0.00  0.00    -0.670 OA
ATOM     12  O   LIG    1        1.892  -5.403  -2.303  0.00  0.00    -0.680 OA
ENDBRANCH   2  10
BRANCH   1  13
ATOM     13  C   LIG    1       -0.500  -4.839  -0.942  0.00  0.00    +0.330 C 
BRANCH  13  14
ATOM     14  C   LIG    1        0.197  -4.175   0.247  0.00  0.00    +0.200 C 
BRANCH  14  15
ATOM     15  O   LIG    1        0.105  -2.755   0.120  0.00  0.00    -0.300 OA
BRANCH  15  21
ATOM     16  C   LIG    1        0.626  -0.619   1.042  0.00  0.00    +0.100 A 
ATOM     17  C   LIG    1        1.207   0.137   2.048  0.00  0.00    -0.050 A 
ATOM     18  C   LIG    1        1.841  -0.490   3.105  0.00  0.00    +0.000 A 
ATOM     19  C   LIG    1        1.898  -1.870   3.161  0.00  0.00    +0.020 A 
ATOM     20  C   LIG    1        1.320  -2.630   2.160  0.00  0.00    -0.030 A 
ATOM     21  C   LIG    1        0.678  -2.009   1.102  0.00  0.00    +0.110 A 
BRANCH  16  23
ATOM     22  C   LIG    1       -0.017   1.425   0.010  0.00  0.00    +0.230 C 
ATOM     23  O   LIG    1        0.002  -0.004   0.002  0.00  0.00    -0.300 OA
ENDBRANCH  16  23
ENDBRANCH  15  21
ENDBRANCH  14  15
ENDBRANCH  13  14
ENDBRANCH   1  13
TORSDOF 6
