REMARK  Name = ZINCvU0000000IiG.1
REMARK                            x       y       z     vdW  Elec       q    Type
REMARK                         _______ _______ _______ _____ _____    ______ ____
ROOT
ATOM      1  C   LIG    1        2.674   6.597  -0.255  0.00  0.00    -0.170 A 
ATOM      2  C   LIG    1        3.951   6.061  -0.438  0.00  0.00    +0.070 A 
ATOM      3  C   LIG    1        5.044   6.897  -0.511  0.00  0.00    +0.000 A 
ATOM      4  C   LIG    1        4.884   8.269  -0.403  0.00  0.00    +0.090 A 
ATOM      5  C   LIG    1        3.629   8.815  -0.221  0.00  0.00    -0.020 A 
ATOM      6  C   LIG    1        2.515   7.989  -0.151  0.00  0.00    +0.230 A 
ENDROOT
BRANCH   1   8
ATOM      7  O   LIG    1        0.391   6.180  -0.018  0.00  0.00    -0.500 OA
ATOM      8  C   LIG    1        1.501   5.709  -0.177  0.00  0.00    +0.570 C 
ATOM      9  N   LIG    1        1.658   4.374  -0.282  0.00  0.00    -0.620 N 
ATOM     10  H   LIG    1        2.543   3.999  -0.410  0.00  0.00    +0.430 HD
BRANCH   9  11
ATOM     11  C   LIG    1        0.552   3.537  -0.209  0.00  0.00    +0.270 A 
ATOM     12  N   LIG    1        0.584   2.244  -0.297  0.00  0.00    -0.500 NA
ATOM     13  C   LIG    1       -0.574   1.605  -0.204  0.00  0.00    +0.130 A 
ATOM     14  C   LIG    1       -1.653   2.390  -0.033  0.00  0.00    -0.110 A 
ATOM     15  S   LIG    1       -1.112   4.067   0.020  0.00  0.00    +0.210 S 
BRANCH  13  16
ATOM     16  C   LIG    1       -0.673   0.128  -0.289  0.00  0.00    -0.020 A 
ATOM     17  C   LIG    1       -1.915  -0.497  -0.180  0.00  0.00    +0.020 A 
ATOM     18  C   LIG    1       -2.002  -1.871  -0.265  0.00  0.00    +0.010 A 
ATOM     19  C   LIG    1       -0.860  -2.630  -0.447  0.00  0.00    +0.010 A 
ATOM     20  C   LIG    1        0.376  -2.015  -0.550  0.00  0.00    +0.010 A 
ATOM     21  C   LIG    1        0.474  -0.641  -0.472  0.00  0.00    +0.040 A 
ENDBRANCH  13  16
ENDBRANCH   9  11
ENDBRANCH   1   8
BRANCH   6  22
ATOM     22  N   LIG    1        1.250   8.535   0.025  0.00  0.00    -1.040 N 
ATOM     23  H   LIG    1        0.591   8.069   0.563  0.00  0.00    +0.440 HD
BRANCH  22  24
ATOM     24  S   LIG    1        0.869   9.984  -0.681  0.00  0.00    +2.690 S 
ATOM     25  O   LIG    1        1.880  10.901  -0.287  0.00  0.00    -0.940 OA
ATOM     26  O   LIG    1       -0.514  10.198  -0.434  0.00  0.00    -0.940 OA
BRANCH  24  27
ATOM     27  C   LIG    1        1.036   9.775  -2.422  0.00  0.00    -0.690 A 
ATOM     28  C   LIG    1        2.248  10.036  -3.035  0.00  0.00    +0.160 A 
ATOM     29  C   LIG    1        2.382   9.867  -4.401  0.00  0.00    -0.020 A 
ATOM     30  C   LIG    1        1.300   9.448  -5.156  0.00  0.00    +0.160 A 
ATOM     31  C   LIG    1        0.085   9.193  -4.541  0.00  0.00    -0.020 A 
ATOM     32  F   LIG    1        1.428   9.290  -6.491  0.00  0.00    -0.130 F 
ATOM     33  C   LIG    1       -0.045   9.357  -3.175  0.00  0.00    +0.170 A 
ENDBRANCH  24  27
ENDBRANCH  22  24
ENDBRANCH   6  22
TORSDOF 6
