REMARK  Name = ZINCrD000000CO73.0
REMARK                            x       y       z     vdW  Elec       q    Type
REMARK                         _______ _______ _______ _____ _____    ______ ____
ROOT
ATOM      1  S   LIG    1       -0.062   1.758  -0.003  0.00  0.00    +2.700 S 
ATOM      2  O   LIG    1       -0.983   2.208  -0.988  0.00  0.00    -0.960 OA
ATOM      3  O   LIG    1        1.321   2.082  -0.028  0.00  0.00    -0.950 OA
ENDROOT
BRANCH   1  10
ATOM      4  O   LIG    1        0.375  -6.095   0.767  0.00  0.00    -0.510 OA
ATOM      5  C   LIG    1        0.443  -4.884   0.785  0.00  0.00    +0.520 C 
ATOM      6  C   LIG    1        1.463  -4.210   1.663  0.00  0.00    +0.090 C 
ATOM      7  C   LIG    1        1.988  -2.948   0.977  0.00  0.00    +0.110 C 
ATOM      8  C   LIG    1        0.829  -2.129   0.474  0.00  0.00    -0.150 A 
ATOM      9  C   LIG    1        0.907  -0.750   0.462  0.00  0.00    +0.170 A 
ATOM     10  C   LIG    1       -0.162  -0.001   0.004  0.00  0.00    -0.700 A 
ATOM     11  C   LIG    1       -1.305  -0.629  -0.453  0.00  0.00    +0.160 A 
ATOM     12  C   LIG    1       -1.387  -2.008  -0.449  0.00  0.00    -0.030 A 
ATOM     13  C   LIG    1       -0.318  -2.763   0.015  0.00  0.00    +0.220 A 
ATOM     14  N   LIG    1       -0.394  -4.159   0.021  0.00  0.00    -0.670 N 
ATOM     15  H   LIG    1       -1.054  -4.608  -0.530  0.00  0.00    +0.420 HD
ENDBRANCH   1  10
BRANCH   1  16
ATOM     16  N   LIG    1       -0.641   2.288   1.455  0.00  0.00    -1.120 NA
ATOM     17  H   LIG    1       -1.453   2.817   1.492  0.00  0.00    +0.420 HD
BRANCH  16  18
ATOM     18  C   LIG    1        0.074   1.957   2.691  0.00  0.00    +0.290 C 
BRANCH  18  19
ATOM     19  C   LIG    1       -0.407   2.872   3.819  0.00  0.00    -0.030 C 
ATOM     20  C   LIG    1       -0.223   4.346   3.416  0.00  0.00    +0.030 C 
ATOM     21  C   LIG    1        0.741   4.967   4.449  0.00  0.00    +0.010 C 
ATOM     22  C   LIG    1        1.530   3.757   5.008  0.00  0.00    +0.010 C 
ATOM     23  C   LIG    1        0.451   2.649   5.082  0.00  0.00    +0.040 C 
BRANCH  19  24
ATOM     24  C   LIG    1       -1.857   2.597   4.124  0.00  0.00    -0.070 A 
ATOM     25  C   LIG    1       -2.508   1.551   3.498  0.00  0.00    +0.010 A 
ATOM     26  C   LIG    1       -3.837   1.296   3.781  0.00  0.00    +0.000 A 
ATOM     27  C   LIG    1       -4.517   2.092   4.683  0.00  0.00    +0.000 A 
ATOM     28  C   LIG    1       -3.867   3.142   5.305  0.00  0.00    +0.000 A 
ATOM     29  C   LIG    1       -2.537   3.394   5.025  0.00  0.00    +0.010 A 
ENDBRANCH  19  24
ENDBRANCH  18  19
ENDBRANCH  16  18
ENDBRANCH   1  16
TORSDOF 5
