REMARK  Name = ZINCpe00000gLI94.0
REMARK                            x       y       z     vdW  Elec       q    Type
REMARK                         _______ _______ _______ _____ _____    ______ ____
ROOT
ATOM      1  C   LIG    1       -4.520   3.194  -1.280  0.00  0.00    +0.570 C 
ATOM      2  N   LIG    1       -3.330   2.561  -1.280  0.00  0.00    -0.610 N 
ATOM      3  C   LIG    1       -3.203   1.167  -0.822  0.00  0.00    +0.330 C 
ATOM      4  C   LIG    1       -2.736   0.326  -2.009  0.00  0.00    +0.110 C 
ATOM      5  C   LIG    1       -1.585   0.987  -2.719  0.00  0.00    +0.220 A 
ATOM      6  C   LIG    1       -1.312   2.298  -2.612  0.00  0.00    -0.280 A 
ATOM      7  C   LIG    1       -0.224   2.839  -3.348  0.00  0.00    +0.560 A 
ATOM      8  N   LIG    1        0.526   2.034  -4.124  0.00  0.00    -0.660 N 
ATOM      9  H   LIG    1        1.266   2.401  -4.632  0.00  0.00    +0.440 HD
ATOM     10  C   LIG    1        0.246   0.719  -4.196  0.00  0.00    +0.700 A 
ATOM     11  O   LIG    1        0.932  -0.004  -4.891  0.00  0.00    -0.530 OA
ATOM     12  O   LIG    1        0.031   4.028  -3.277  0.00  0.00    -0.510 OA
ATOM     13  N   LIG    1       -0.782   0.197  -3.509  0.00  0.00    -0.640 N 
ATOM     14  H   LIG    1       -0.965  -0.753  -3.574  0.00  0.00    +0.440 HD
ATOM     15  C   LIG    1       -2.107   3.231  -1.737  0.00  0.00    +0.380 C 
ATOM     16  O   LIG    1       -5.526   2.597  -0.952  0.00  0.00    -0.500 OA
ENDROOT
BRANCH   1  21
ATOM     17  C   LIG    1       -3.603   6.798  -1.833  0.00  0.00    +0.150 A 
ATOM     18  C   LIG    1       -4.760   7.280  -2.432  0.00  0.00    +0.070 A 
ATOM     19  C   LIG    1       -5.832   6.437  -2.655  0.00  0.00    +0.050 A 
ATOM     20  C   LIG    1       -5.758   5.107  -2.289  0.00  0.00    -0.000 A 
ATOM     21  C   LIG    1       -4.601   4.614  -1.680  0.00  0.00    -0.110 A 
ATOM     22 CL   LIG    1       -7.104   4.050  -2.579  0.00  0.00    -0.040 Cl
ATOM     23  C   LIG    1       -3.520   5.467  -1.456  0.00  0.00    +0.040 A 
BRANCH  17  26
ATOM     24  C   LIG    1       -1.176   9.656  -2.174  0.00  0.00    +0.120 C 
ATOM     25  C   LIG    1       -2.265   8.659  -2.475  0.00  0.00    +0.510 C 
ATOM     26  N   LIG    1       -2.520   7.658  -1.609  0.00  0.00    -0.670 N 
ATOM     27  H   LIG    1       -1.954   7.533  -0.832  0.00  0.00    +0.420 HD
ATOM     28  O   LIG    1       -2.912   8.758  -3.496  0.00  0.00    -0.520 OA
ENDBRANCH  17  26
ENDBRANCH   1  21
TORSDOF 2
