REMARK  Name = ZINCtj00000nxbHO.0
REMARK                            x       y       z     vdW  Elec       q    Type
REMARK                         _______ _______ _______ _____ _____    ______ ____
ROOT
ATOM      1  C   LIG    1       -0.735   1.571  -1.222  0.00  0.00    -0.130 A 
ATOM      2  C   LIG    1       -1.620   0.743  -1.887  0.00  0.00    +0.040 A 
ATOM      3  C   LIG    1       -2.296   1.204  -3.000  0.00  0.00    +0.020 A 
ATOM      4  C   LIG    1       -2.078   2.497  -3.458  0.00  0.00    +0.170 A 
ATOM      5  C   LIG    1       -1.183   3.324  -2.791  0.00  0.00    -0.010 A 
ATOM      6  C   LIG    1       -0.515   2.859  -1.675  0.00  0.00    +0.040 A 
ENDROOT
BRANCH   4   7
ATOM      7  N   LIG    1       -2.756   2.965  -4.588  0.00  0.00    -0.670 N 
ATOM      8  H   LIG    1       -2.324   3.593  -5.187  0.00  0.00    +0.410 HD
ATOM      9  C   LIG    1       -4.010   2.543  -4.844  0.00  0.00    +0.580 C 
ATOM     10  O   LIG    1       -4.587   1.832  -4.044  0.00  0.00    -0.510 OA
BRANCH   9  11
ATOM     11  C   LIG    1       -4.683   2.943  -6.095  0.00  0.00    -0.230 A 
ATOM     12  C   LIG    1       -4.027   3.767  -7.019  0.00  0.00    +0.370 A 
ATOM     13  N   LIG    1       -4.603   4.132  -8.142  0.00  0.00    -0.470 NA
ATOM     14  C   LIG    1       -5.839   3.748  -8.451  0.00  0.00    +0.400 A 
ATOM     15  N   LIG    1       -6.425   4.132  -9.604  0.00  0.00    -0.520 NA
ATOM     16  C   LIG    1       -7.631   3.764  -9.918  0.00  0.00    +0.650 A 
ATOM     17  N   LIG    1       -8.401   2.973  -9.130  0.00  0.00    -0.650 N 
ATOM     18  H   LIG    1       -9.295   2.731  -9.417  0.00  0.00    +0.430 HD
ATOM     19  C   LIG    1       -7.929   2.519  -7.945  0.00  0.00    +0.560 A 
ATOM     20  O   LIG    1       -8.604   1.808  -7.224  0.00  0.00    -0.490 OA
ATOM     21  C   LIG    1       -6.567   2.920  -7.564  0.00  0.00    -0.260 A 
ATOM     22  C   LIG    1       -5.984   2.510  -6.369  0.00  0.00    +0.240 A 
ENDBRANCH   9  11
ENDBRANCH   4   7
BRANCH   1  23
ATOM     23  C   LIG    1       -0.004   1.067  -0.005  0.00  0.00    +0.080 C 
BRANCH  23  24
ATOM     24  C   LIG    1       -0.826   1.375   1.248  0.00  0.00    +0.250 C 
BRANCH  24  29
ATOM     25  C   LIG    1        0.698  -1.194   6.025  0.00  0.00    +0.220 C 
ATOM     26  N   LIG    1        0.030  -0.674   4.824  0.00  0.00    -0.540 NA
ATOM     27  C   LIG    1       -0.091   0.790   4.882  0.00  0.00    +0.200 C 
ATOM     28  C   LIG    1       -0.843   1.285   3.645  0.00  0.00    +0.280 C 
ATOM     29  N   LIG    1       -0.113   0.884   2.435  0.00  0.00    -0.390 N 
ATOM     30  C   LIG    1       -0.022  -0.581   2.379  0.00  0.00    +0.270 C 
ATOM     31  H   LIG    1        0.816   1.278   2.456  0.00  0.00    +0.420 HD
ATOM     32  C   LIG    1        0.737  -1.092   3.606  0.00  0.00    +0.200 C 
ENDBRANCH  24  29
ENDBRANCH  23  24
ENDBRANCH   1  23
TORSDOF 5
