REMARK  Name = ZINCtj00000nxbHO.1
REMARK                            x       y       z     vdW  Elec       q    Type
REMARK                         _______ _______ _______ _____ _____    ______ ____
ROOT
ATOM      1  C   LIG    1        1.688  -3.933   2.407  0.00  0.00    -0.110 A 
ATOM      2  C   LIG    1        0.927  -4.585   3.361  0.00  0.00    +0.040 A 
ATOM      3  C   LIG    1        0.913  -5.965   3.409  0.00  0.00    +0.020 A 
ATOM      4  C   LIG    1        1.671  -6.698   2.505  0.00  0.00    +0.150 A 
ATOM      5  C   LIG    1        2.438  -6.040   1.552  0.00  0.00    -0.010 A 
ATOM      6  C   LIG    1        2.444  -4.659   1.506  0.00  0.00    +0.030 A 
ENDROOT
BRANCH   4   7
ATOM      7  N   LIG    1        1.663  -8.095   2.555  0.00  0.00    -0.670 N 
ATOM      8  H   LIG    1        2.463  -8.594   2.323  0.00  0.00    +0.410 HD
ATOM      9  C   LIG    1        0.545  -8.750   2.926  0.00  0.00    +0.570 C 
ATOM     10  O   LIG    1       -0.484  -8.133   3.124  0.00  0.00    -0.510 OA
BRANCH   9  11
ATOM     11  C   LIG    1        0.569 -10.217   3.091  0.00  0.00    -0.230 A 
ATOM     12  C   LIG    1        1.748 -10.937   2.860  0.00  0.00    +0.370 A 
ATOM     13  N   LIG    1        1.796 -12.241   3.006  0.00  0.00    -0.470 NA
ATOM     14  C   LIG    1        0.726 -12.944   3.370  0.00  0.00    +0.390 A 
ATOM     15  N   LIG    1        0.782 -14.284   3.513  0.00  0.00    -0.520 NA
ATOM     16  C   LIG    1       -0.256 -14.980   3.868  0.00  0.00    +0.640 A 
ATOM     17  N   LIG    1       -1.472 -14.436   4.123  0.00  0.00    -0.650 N 
ATOM     18  H   LIG    1       -2.210 -15.008   4.384  0.00  0.00    +0.430 HD
ATOM     19  C   LIG    1       -1.660 -13.100   4.016  0.00  0.00    +0.560 A 
ATOM     20  O   LIG    1       -2.744 -12.593   4.241  0.00  0.00    -0.490 OA
ATOM     21  C   LIG    1       -0.503 -12.286   3.616  0.00  0.00    -0.260 A 
ATOM     22  C   LIG    1       -0.587 -10.905   3.476  0.00  0.00    +0.250 A 
ENDBRANCH   9  11
ENDBRANCH   4   7
BRANCH   1  23
ATOM     23  C   LIG    1        1.697  -2.427   2.354  0.00  0.00    +0.080 C 
BRANCH  23  24
ATOM     24  C   LIG    1        0.585  -1.943   1.421  0.00  0.00    +0.200 C 
BRANCH  24  29
ATOM     25  C   LIG    1        1.049   3.519   0.116  0.00  0.00    +0.310 C 
ATOM     26  N   LIG    1        1.060   2.050   0.116  0.00  0.00    -0.390 N 
ATOM     27  C   LIG    1       -0.305   1.550   0.327  0.00  0.00    +0.280 C 
ATOM     28  C   LIG    1       -0.297   0.020   0.309  0.00  0.00    +0.200 C 
ATOM     29  N   LIG    1        0.593  -0.475   1.369  0.00  0.00    -0.540 NA
ATOM     30  C   LIG    1        1.959   0.038   1.185  0.00  0.00    +0.210 C 
ATOM     31  C   LIG    1        1.932   1.568   1.196  0.00  0.00    +0.280 C 
ATOM     32  H   LIG    1        1.407   1.716  -0.770  0.00  0.00    +0.420 HD
ENDBRANCH  24  29
ENDBRANCH  23  24
ENDBRANCH   1  23
TORSDOF 5
