REMARK  Name = ZINCvU0000000414.0
REMARK                            x       y       z     vdW  Elec       q    Type
REMARK                         _______ _______ _______ _____ _____    ______ ____
ROOT
ATOM      1  C   LIG    1        4.865   1.049  -0.254  0.00  0.00    +0.100 C 
ENDROOT
BRANCH   1   2
ATOM      2  C   LIG    1        6.012   2.055  -0.361  0.00  0.00    +0.070 C 
ATOM      3  S   LIG    1        5.852   3.002  -1.905  0.00  0.00    -0.020 S 
ATOM      4  C   LIG    1        6.362   1.815  -3.109  0.00  0.00    -0.120 A 
ATOM      5  C   LIG    1        5.834   1.857  -4.389  0.00  0.00    +0.090 A 
ATOM      6  C   LIG    1        6.239   0.930  -5.332  0.00  0.00    +0.070 A 
ATOM      7  C   LIG    1        7.171  -0.034  -4.995  0.00  0.00    -0.150 A 
ATOM      8  C   LIG    1        7.698  -0.082  -3.720  0.00  0.00    +0.060 A 
ATOM      9  C   LIG    1        7.296   0.841  -2.760  0.00  0.00    +0.160 A 
ATOM     10  N   LIG    1        7.827   0.756  -1.475  0.00  0.00    -0.650 N 
ATOM     11  H   LIG    1        8.638   0.235  -1.369  0.00  0.00    +0.420 HD
ATOM     12  C   LIG    1        7.328   1.322  -0.376  0.00  0.00    +0.530 C 
ATOM     13  O   LIG    1        7.959   1.246   0.657  0.00  0.00    -0.500 OA
BRANCH   7  14
ATOM     14  C   LIG    1        7.613  -1.041  -6.026  0.00  0.00    +0.510 C 
ATOM     15  F   LIG    1        8.931  -1.429  -5.763  0.00  0.00    -0.170 F 
ATOM     16  F   LIG    1        7.542  -0.466  -7.300  0.00  0.00    -0.170 F 
ATOM     17  F   LIG    1        6.777  -2.161  -5.973  0.00  0.00    -0.170 F 
ENDBRANCH   7  14
ENDBRANCH   1   2
BRANCH   1  19
ATOM     18  O   LIG    1        3.546   3.001  -0.118  0.00  0.00    -0.500 OA
ATOM     19  C   LIG    1        3.558   1.788  -0.124  0.00  0.00    +0.520 C 
ATOM     20  N   LIG    1        2.403   1.102  -0.015  0.00  0.00    -0.670 N 
ATOM     21  H   LIG    1        2.418   0.134   0.047  0.00  0.00    +0.410 HD
BRANCH  20  22
ATOM     22  C   LIG    1        1.181   1.787   0.008  0.00  0.00    +0.110 A 
ATOM     23  C   LIG    1        0.059   1.225  -0.586  0.00  0.00    +0.020 A 
ATOM     24  C   LIG    1       -1.144   1.902  -0.568  0.00  0.00    -0.020 A 
ATOM     25  C   LIG    1       -1.235   3.140   0.054  0.00  0.00    +0.100 A 
ATOM     26  C   LIG    1       -0.113   3.702   0.650  0.00  0.00    +0.010 A 
ATOM     27  C   LIG    1        1.091   3.027   0.627  0.00  0.00    +0.050 A 
BRANCH  25  28
ATOM     28  N   LIG    1       -2.455   3.824   0.078  0.00  0.00    -0.490 N 
ATOM     29  C   LIG    1       -2.849   4.151   1.454  0.00  0.00    +0.180 C 
ATOM     30  C   LIG    1       -4.108   5.021   1.433  0.00  0.00    +0.020 C 
ATOM     31  C   LIG    1       -5.235   4.263   0.727  0.00  0.00    +0.010 C 
ATOM     32  C   LIG    1       -4.781   3.891  -0.688  0.00  0.00    +0.020 C 
ATOM     33  C   LIG    1       -3.503   3.054  -0.605  0.00  0.00    +0.180 C 
ENDBRANCH  25  28
ENDBRANCH  20  22
ENDBRANCH   1  19
TORSDOF 5
