REMARK  Name = ZINCvU0000000GgP.0
REMARK                            x       y       z     vdW  Elec       q    Type
REMARK                         _______ _______ _______ _____ _____    ______ ____
ROOT
ATOM      1  C   LIG    1        0.743   7.948  -7.187  0.00  0.00    +0.450 C 
ATOM      2  O   LIG    1        1.949   8.005  -7.313  0.00  0.00    -0.460 OA
ENDROOT
BRANCH   1   6
ATOM      3  C   LIG    1       -3.384   8.922 -10.013  0.00  0.00    +0.120 C 
ATOM      4  C   LIG    1       -1.964   8.764  -9.532  0.00  0.00    +0.010 A 
ATOM      5  C   LIG    1       -1.597   8.330  -8.315  0.00  0.00    +0.000 A 
ATOM      6  C   LIG    1       -0.129   8.338  -8.297  0.00  0.00    -0.260 A 
ATOM      7  C   LIG    1        0.262   8.796  -9.542  0.00  0.00    +0.130 A 
ATOM      8  C   LIG    1        1.682   8.986 -10.008  0.00  0.00    +0.150 C 
ATOM      9  N   LIG    1       -0.846   9.038 -10.266  0.00  0.00    -0.430 N 
BRANCH   9  10
ATOM     10  C   LIG    1       -0.851   9.533 -11.644  0.00  0.00    +0.350 C 
BRANCH  10  11
ATOM     11  C   LIG    1       -0.867  11.040 -11.637  0.00  0.00    -0.130 A 
ATOM     12  C   LIG    1       -2.071  11.719 -11.639  0.00  0.00    +0.060 A 
ATOM     13  C   LIG    1       -2.087  13.101 -11.626  0.00  0.00    -0.010 A 
ATOM     14  C   LIG    1       -0.895  13.806 -11.624  0.00  0.00    +0.110 A 
ATOM     15  C   LIG    1        0.311  13.125 -11.627  0.00  0.00    -0.010 A 
ATOM     16  F   LIG    1       -0.909  15.157 -11.618  0.00  0.00    -0.130 F 
ATOM     17  C   LIG    1        0.324  11.743 -11.634  0.00  0.00    +0.070 A 
ENDBRANCH  10  11
ENDBRANCH   9  10
ENDBRANCH   1   6
BRANCH   1  18
ATOM     18  C   LIG    1        0.143   7.475  -5.888  0.00  0.00    +0.090 C 
BRANCH  18  19
ATOM     19  S   LIG    1        1.468   7.070  -4.724  0.00  0.00    +0.120 S 
BRANCH  19  20
ATOM     20  C   LIG    1        0.510   6.561  -3.335  0.00  0.00    +0.120 A 
ATOM     21  N   LIG    1       -0.799   6.523  -3.265  0.00  0.00    -0.290 NA
ATOM     22  N   LIG    1       -1.151   6.102  -2.102  0.00  0.00    -0.270 NA
ATOM     23  C   LIG    1       -0.091   5.856  -1.389  0.00  0.00    +0.170 A 
ATOM     24  O   LIG    1        0.986   6.145  -2.146  0.00  0.00    -0.200 OA
BRANCH  23  25
ATOM     25  C   LIG    1       -0.070   5.347   0.030  0.00  0.00    +0.250 C 
BRANCH  25  26
ATOM     26  C   LIG    1       -0.050   3.840   0.022  0.00  0.00    -0.100 A 
ATOM     27  C   LIG    1        1.156   3.165   0.008  0.00  0.00    +0.010 A 
ATOM     28  C   LIG    1        1.175   1.783   0.000  0.00  0.00    +0.010 A 
ATOM     29  C   LIG    1       -0.013   1.076   0.008  0.00  0.00    +0.010 A 
ATOM     30  C   LIG    1       -1.219   1.751   0.017  0.00  0.00    +0.010 A 
ATOM     31  C   LIG    1       -1.238   3.133   0.030  0.00  0.00    +0.030 A 
ENDBRANCH  25  26
ENDBRANCH  23  25
ENDBRANCH  19  20
ENDBRANCH  18  19
ENDBRANCH   1  18
TORSDOF 8
