REMARK  Name = ZINCrH000004pmfu.0
REMARK                            x       y       z     vdW  Elec       q    Type
REMARK                         _______ _______ _______ _____ _____    ______ ____
ROOT
ATOM      1  N   LIG    1        4.231   5.415  -2.808  0.00  0.00    -0.740 N 
ATOM      2  H   LIG    1        3.618   5.101  -3.490  0.00  0.00    +0.390 HD
ATOM      3  C   LIG    1        3.868   5.388  -1.510  0.00  0.00    +0.710 C 
ATOM      4  N   LIG    1        2.652   4.923  -1.160  0.00  0.00    -0.740 N 
ATOM      5  H   LIG    1        2.038   4.608  -1.843  0.00  0.00    +0.400 HD
ATOM      6  O   LIG    1        4.636   5.782  -0.655  0.00  0.00    -0.580 OA
ENDROOT
BRANCH   1   8
ATOM      7  C   LIG    1        6.571   4.780  -3.130  0.00  0.00    +0.040 C 
ATOM      8  C   LIG    1        5.552   5.921  -3.187  0.00  0.00    +0.310 C 
BRANCH   8   9
ATOM      9  C   LIG    1        5.495   6.473  -4.589  0.00  0.00    -0.080 A 
ATOM     10  C   LIG    1        4.567   5.982  -5.487  0.00  0.00    +0.050 A 
ATOM     11  C   LIG    1        4.510   6.492  -6.771  0.00  0.00    +0.040 A 
ATOM     12  C   LIG    1        5.391   7.485  -7.160  0.00  0.00    -0.030 A 
ATOM     13  C   LIG    1        6.324   7.973  -6.263  0.00  0.00    +0.050 A 
ATOM     14 CL   LIG    1        5.324   8.120  -8.775  0.00  0.00    -0.050 Cl
ATOM     15  C   LIG    1        6.377   7.466  -4.977  0.00  0.00    -0.020 A 
ATOM     16 CL   LIG    1        7.547   8.078  -3.851  0.00  0.00    -0.040 Cl
ENDBRANCH   8   9
ENDBRANCH   1   8
BRANCH   4  17
ATOM     17  C   LIG    1        2.257   4.893   0.250  0.00  0.00    +0.340 C 
BRANCH  17  18
ATOM     18  C   LIG    1        0.863   4.333   0.369  0.00  0.00    -0.040 A 
ATOM     19  C   LIG    1        0.656   2.969   0.528  0.00  0.00    -0.040 A 
ATOM     20  C   LIG    1       -0.633   2.488   0.634  0.00  0.00    +0.290 A 
ATOM     21  N   LIG    1       -1.667   3.306   0.581  0.00  0.00    -0.510 NA
ATOM     22  C   LIG    1       -1.512   4.613   0.436  0.00  0.00    +0.310 A 
ATOM     23  C   LIG    1       -0.240   5.167   0.323  0.00  0.00    -0.030 A 
BRANCH  22  24
ATOM     24  N   LIG    1       -2.629   5.439   0.390  0.00  0.00    -0.480 N 
ATOM     25  C   LIG    1       -2.554   6.483   1.423  0.00  0.00    +0.180 C 
ATOM     26  C   LIG    1       -3.772   7.404   1.299  0.00  0.00    +0.230 C 
ATOM     27  O   LIG    1       -4.966   6.623   1.403  0.00  0.00    -0.380 OA
ATOM     28  C   LIG    1       -5.071   5.597   0.412  0.00  0.00    +0.230 C 
ATOM     29  C   LIG    1       -3.867   4.659   0.527  0.00  0.00    +0.190 C 
ENDBRANCH  22  24
ENDBRANCH  17  18
ENDBRANCH   4  17
TORSDOF 5
