REMARK  Name = ZINCpe00000xLLUH.0
REMARK                            x       y       z     vdW  Elec       q    Type
REMARK                         _______ _______ _______ _____ _____    ______ ____
ROOT
ATOM      1  C   LIG    1        6.225   3.774   4.912  0.00  0.00    +0.520 C 
ATOM      2  N   LIG    1        4.957   3.674   4.467  0.00  0.00    -0.730 N 
ATOM      3  H   LIG    1        4.784   3.376   3.560  0.00  0.00    +0.400 HD
ATOM      4  O   LIG    1        6.442   4.147   6.046  0.00  0.00    -0.530 OA
ENDROOT
BRANCH   1   5
ATOM      5  C   LIG    1        7.373   3.422   4.002  0.00  0.00    +0.050 C 
BRANCH   5   6
ATOM      6  C   LIG    1        8.694   3.621   4.748  0.00  0.00    +0.130 C 
BRANCH   6   7
ATOM      7  C   LIG    1        9.861   3.264   3.824  0.00  0.00    +0.040 C 
ATOM      8  N   LIG    1        9.690   3.440   2.380  0.00  0.00    -0.120 NA
ATOM      9  N   LIG    1        9.643   2.264   2.776  0.00  0.00    -0.120 NA
BRANCH   7  10
ATOM     10  C   LIG    1       11.263   3.408   4.419  0.00  0.00    +0.120 C 
BRANCH  10  11
ATOM     11  C   LIG    1       12.305   3.014   3.370  0.00  0.00    +0.160 C 
BRANCH  11  13
ATOM     12  C   LIG    1       14.730   3.264   4.398  0.00  0.00    +0.030 C 
ATOM     13  C   LIG    1       13.654   3.153   3.942  0.00  0.00    -0.190 C 
ENDBRANCH  11  13
ENDBRANCH  10  11
ENDBRANCH   7  10
ENDBRANCH   6   7
ENDBRANCH   5   6
ENDBRANCH   1   5
BRANCH   2  14
ATOM     14  C   LIG    1        3.840   4.016   5.351  0.00  0.00    +0.390 C 
BRANCH  14  15
ATOM     15  C   LIG    1        2.539   3.821   4.617  0.00  0.00    -0.040 A 
ATOM     16  C   LIG    1        1.749   2.722   4.648  0.00  0.00    +0.170 A 
ATOM     17  N   LIG    1        0.697   2.992   3.841  0.00  0.00    -0.280 N 
ATOM     18  N   LIG    1        0.846   4.179   3.366  0.00  0.00    -0.070 NA
ATOM     19  N   LIG    1        1.935   4.700   3.810  0.00  0.00    -0.250 NA
BRANCH  17  20
ATOM     20  C   LIG    1       -0.424   2.091   3.562  0.00  0.00    +0.250 C 
ATOM     21  C   LIG    1       -0.680   1.160   4.763  0.00  0.00    +0.240 C 
ATOM     22  O   LIG    1       -0.436  -0.186   4.320  0.00  0.00    -0.360 OA
ATOM     23  C   LIG    1       -0.676  -0.211   2.897  0.00  0.00    +0.230 C 
ATOM     24  C   LIG    1       -0.068   1.127   2.404  0.00  0.00    +0.140 C 
BRANCH  24  25
ATOM     25  O   LIG    1       -0.682   1.547   1.184  0.00  0.00    -0.370 OA
ATOM     26  C   LIG    1       -0.013   1.086   0.008  0.00  0.00    +0.230 C 
ENDBRANCH  24  25
ENDBRANCH  17  20
ENDBRANCH  14  15
ENDBRANCH   2  14
TORSDOF 10
