REMARK  Name = ZINCvU00000004vw.1
REMARK                            x       y       z     vdW  Elec       q    Type
REMARK                         _______ _______ _______ _____ _____    ______ ____
ROOT
ATOM      1  N   LIG    1        3.589   3.801   1.187  0.00  0.00    -0.510 NA
ENDROOT
BRANCH   1   2
ATOM      2  C   LIG    1        4.889   3.348   1.698  0.00  0.00    +0.210 C 
BRANCH   2   4
ATOM      3  C   LIG    1        4.699   2.902   4.091  0.00  0.00    +0.020 C 
ATOM      4  C   LIG    1        5.027   3.747   3.145  0.00  0.00    -0.120 C 
ATOM      5  C   LIG    1        5.541   5.118   3.503  0.00  0.00    +0.070 C 
ENDBRANCH   2   4
ENDBRANCH   1   2
BRANCH   1   6
ATOM      6  C   LIG    1        3.585   5.254   0.971  0.00  0.00    +0.300 C 
BRANCH   6   7
ATOM      7  C   LIG    1        4.540   5.599  -0.142  0.00  0.00    -0.250 A 
ATOM      8  C   LIG    1        5.377   4.742  -0.766  0.00  0.00    +0.230 A 
ATOM      9  N   LIG    1        6.060   5.435  -1.703  0.00  0.00    -0.470 N 
ATOM     10  H   LIG    1        6.730   5.072  -2.303  0.00  0.00    +0.440 HD
ATOM     11  N   LIG    1        5.639   6.770  -1.652  0.00  0.00    -0.260 NA
ATOM     12  C   LIG    1        4.722   6.874  -0.713  0.00  0.00    +0.120 A 
BRANCH  12  13
ATOM     13  C   LIG    1        4.007   8.115  -0.324  0.00  0.00    -0.050 A 
ATOM     14  C   LIG    1        3.138   8.110   0.764  0.00  0.00    +0.070 A 
ATOM     15  C   LIG    1        2.480   9.269   1.125  0.00  0.00    +0.010 A 
ATOM     16  C   LIG    1        2.673  10.432   0.402  0.00  0.00    +0.060 A 
ATOM     17  C   LIG    1        3.530  10.443  -0.684  0.00  0.00    -0.020 A 
ATOM     18  C   LIG    1        4.199   9.291  -1.051  0.00  0.00    +0.120 A 
ATOM     19  F   LIG    1        5.036   9.303  -2.112  0.00  0.00    -0.120 F 
ENDBRANCH  12  13
ENDBRANCH   6   7
ENDBRANCH   1   6
BRANCH   1  20
ATOM     20  C   LIG    1        3.229   3.085  -0.044  0.00  0.00    +0.260 C 
BRANCH  20  21
ATOM     21  C   LIG    1        2.746   1.701   0.303  0.00  0.00    -0.210 A 
ATOM     22  C   LIG    1        3.426   0.549   0.111  0.00  0.00    +0.230 A 
ATOM     23  N   LIG    1        2.653  -0.469   0.545  0.00  0.00    -0.470 N 
ATOM     24  H   LIG    1        2.887  -1.410   0.526  0.00  0.00    +0.440 HD
ATOM     25  N   LIG    1        1.453   0.070   1.028  0.00  0.00    -0.270 NA
ATOM     26  C   LIG    1        1.506   1.377   0.887  0.00  0.00    +0.130 A 
BRANCH  26  27
ATOM     27  C   LIG    1        0.443   2.340   1.270  0.00  0.00    -0.030 A 
ATOM     28  C   LIG    1        0.019   3.310   0.365  0.00  0.00    +0.060 A 
ATOM     29  C   LIG    1       -0.970   4.203   0.726  0.00  0.00    +0.000 A 
ATOM     30  C   LIG    1       -1.540   4.137   1.985  0.00  0.00    +0.050 A 
ATOM     31  C   LIG    1       -1.128   3.173   2.887  0.00  0.00    -0.020 A 
ATOM     32  C   LIG    1       -0.135   2.277   2.539  0.00  0.00    +0.130 A 
ATOM     33  F   LIG    1        0.271   1.339   3.422  0.00  0.00    -0.130 F 
ENDBRANCH  26  27
ENDBRANCH  20  21
ENDBRANCH   1  20
TORSDOF 8
