REMARK  Name = ZINCrH00000tj1ae.0
REMARK                            x       y       z     vdW  Elec       q    Type
REMARK                         _______ _______ _______ _____ _____    ______ ____
ROOT
ATOM      1  C   LIG    1        2.039  -0.286   3.254  0.00  0.00    +0.340 A 
ATOM      2  C   LIG    1        2.364  -1.353   4.081  0.00  0.00    -0.040 A 
ATOM      3  C   LIG    1        3.440  -1.256   4.942  0.00  0.00    +0.190 A 
ATOM      4  C   LIG    1        4.193  -0.097   4.981  0.00  0.00    -0.110 A 
ATOM      5  C   LIG    1        3.876   0.966   4.154  0.00  0.00    +0.260 A 
ATOM      6  C   LIG    1        2.799   0.877   3.295  0.00  0.00    -0.750 A 
ENDROOT
BRANCH   4   7
ATOM      7  N   LIG    1        5.346   0.004   5.904  0.00  0.00    +0.040 N 
ATOM      8  O   LIG    1        6.011   1.024   5.939  0.00  0.00    -0.160 OA
ATOM      9  O   LIG    1        5.629  -0.933   6.629  0.00  0.00    -0.160 OA
ENDBRANCH   4   7
BRANCH   6  10
ATOM     10  S   LIG    1        2.392   2.234   2.248  0.00  0.00    +2.690 S 
ATOM     11  O   LIG    1        1.011   2.500   2.454  0.00  0.00    -0.950 OA
ATOM     12  O   LIG    1        3.408   3.209   2.441  0.00  0.00    -0.930 OA
BRANCH  10  13
ATOM     13  N   LIG    1        2.538   1.708   0.685  0.00  0.00    -1.000 NA
BRANCH  13  14
ATOM     14  C   LIG    1        3.866   1.568   0.081  0.00  0.00    +0.280 C 
ATOM     15  C   LIG    1        4.207   2.838  -0.700  0.00  0.00    +0.020 C 
ENDBRANCH  13  14
BRANCH  13  16
ATOM     16  C   LIG    1        1.341   1.383  -0.094  0.00  0.00    +0.280 C 
ATOM     17  C   LIG    1        1.347  -0.107  -0.441  0.00  0.00    +0.020 C 
ENDBRANCH  13  16
ENDBRANCH  10  13
ENDBRANCH   6  10
BRANCH   1  18
ATOM     18  N   LIG    1        0.952  -0.381   2.382  0.00  0.00    -0.660 N 
ATOM     19  H   LIG    1        0.642   0.405   1.905  0.00  0.00    +0.420 HD
BRANCH  18  23
ATOM     20  C   LIG    1       -0.965  -4.042   1.831  0.00  0.00    +0.130 A 
ATOM     21  C   LIG    1       -1.710  -2.875   1.919  0.00  0.00    +0.020 A 
ATOM     22  C   LIG    1       -1.076  -1.662   2.102  0.00  0.00    +0.050 A 
ATOM     23  C   LIG    1        0.308  -1.610   2.198  0.00  0.00    +0.100 A 
ATOM     24  C   LIG    1        1.054  -2.778   2.105  0.00  0.00    +0.030 A 
ATOM     25  C   LIG    1        0.418  -3.991   1.927  0.00  0.00    -0.040 A 
BRANCH  20  26
ATOM     26  O   LIG    1       -1.590  -5.236   1.651  0.00  0.00    -0.310 OA
BRANCH  26  28
ATOM     27  C   LIG    1       -1.635  -7.636   1.367  0.00  0.00    +0.070 C 
ATOM     28  C   LIG    1       -0.760  -6.397   1.569  0.00  0.00    +0.170 C 
ENDBRANCH  26  28
ENDBRANCH  20  26
ENDBRANCH  18  23
ENDBRANCH   1  18
TORSDOF 9
