REMARK  Name = ZINCvU0000000JUF.0
REMARK                            x       y       z     vdW  Elec       q    Type
REMARK                         _______ _______ _______ _____ _____    ______ ____
ROOT
ATOM      1  C   LIG    1        2.748   3.151  -2.180  0.00  0.00    +0.290 C 
ATOM      2  N   LIG    1        2.239   4.310  -1.443  0.00  0.00    -0.600 N 
ATOM      3  C   LIG    1        2.256   5.532  -2.013  0.00  0.00    +0.560 C 
ATOM      4  O   LIG    1        1.760   6.479  -1.434  0.00  0.00    -0.510 OA
ENDROOT
BRANCH   3   5
ATOM      5  C   LIG    1        2.875   5.719  -3.337  0.00  0.00    -0.070 A 
ATOM      6  C   LIG    1        2.554   4.860  -4.391  0.00  0.00    +0.030 A 
ATOM      7  C   LIG    1        3.132   5.045  -5.628  0.00  0.00    +0.040 A 
ATOM      8  C   LIG    1        4.041   6.071  -5.831  0.00  0.00    +0.030 A 
ATOM      9  C   LIG    1        4.374   6.923  -4.799  0.00  0.00    +0.080 A 
ATOM     10  C   LIG    1        3.797   6.758  -3.545  0.00  0.00    -0.090 A 
BRANCH  10  11
ATOM     11  S   LIG    1        4.219   7.846  -2.225  0.00  0.00    +0.070 S 
BRANCH  11  12
ATOM     12  C   LIG    1        5.328   6.879  -1.255  0.00  0.00    +0.120 A 
ATOM     13  C   LIG    1        5.782   7.370  -0.035  0.00  0.00    +0.010 A 
ATOM     14  C   LIG    1        6.652   6.601   0.718  0.00  0.00    +0.120 A 
ATOM     15  C   LIG    1        7.040   5.362   0.222  0.00  0.00    -0.160 A 
ATOM     16  C   LIG    1        6.549   4.938  -0.998  0.00  0.00    +0.320 A 
ATOM     17 BR   LIG    1        8.226   4.268   1.208  0.00  0.00    -0.030 Br
ATOM     18  N   LIG    1        5.717   5.691  -1.691  0.00  0.00    -0.470 NA
ENDBRANCH  11  12
ENDBRANCH  10  11
ENDBRANCH   3   5
BRANCH   2  19
ATOM     19  C   LIG    1        1.712   4.142  -0.086  0.00  0.00    +0.330 C 
BRANCH  19  20
ATOM     20  C   LIG    1        0.235   3.853  -0.154  0.00  0.00    -0.080 A 
ATOM     21  C   LIG    1       -0.209   2.546  -0.240  0.00  0.00    +0.020 A 
ATOM     22  C   LIG    1       -1.560   2.275  -0.303  0.00  0.00    +0.080 A 
ATOM     23  C   LIG    1       -2.480   3.324  -0.284  0.00  0.00    -0.130 A 
ATOM     24  C   LIG    1       -2.027   4.640  -0.190  0.00  0.00    +0.030 A 
ATOM     25  C   LIG    1       -0.673   4.898  -0.129  0.00  0.00    +0.040 A 
BRANCH  23  26
ATOM     26  C   LIG    1       -3.930   3.041  -0.357  0.00  0.00    +0.560 C 
ATOM     27  N   LIG    1       -4.816   4.056  -0.338  0.00  0.00    -0.700 N 
ATOM     28  H   LIG    1       -4.503   4.973  -0.277  0.00  0.00    +0.400 HD
ATOM     29  O   LIG    1       -4.322   1.893  -0.434  0.00  0.00    -0.530 OA
BRANCH  27  30
ATOM     30  C   LIG    1       -6.252   3.776  -0.411  0.00  0.00    +0.220 C 
ATOM     31  C   LIG    1       -7.097   4.654  -1.336  0.00  0.00    +0.010 C 
ATOM     32  C   LIG    1       -7.205   4.816   0.181  0.00  0.00    +0.020 C 
ENDBRANCH  27  30
ENDBRANCH  23  26
ENDBRANCH  19  20
ENDBRANCH   2  19
TORSDOF 7
