REMARK  Name = ZINCqH0000006lLj.0
REMARK                            x       y       z     vdW  Elec       q    Type
REMARK                         _______ _______ _______ _____ _____    ______ ____
ROOT
ATOM      1  C   LIG    1       -1.324   2.492  -0.009  0.00  0.00    +0.430 C 
ATOM      2  O   LIG    1       -1.228   3.700   0.056  0.00  0.00    -0.450 OA
ENDROOT
BRANCH   1   6
ATOM      3  N   LIG    1        1.911   1.067  -0.841  0.00  0.00    -0.430 N 
ATOM      4  C   LIG    1        1.184  -0.086  -0.758  0.00  0.00    +0.020 A 
ATOM      5  C   LIG    1       -0.088   0.217  -0.447  0.00  0.00    +0.000 A 
ATOM      6  C   LIG    1       -0.148   1.680  -0.329  0.00  0.00    -0.270 A 
ATOM      7  C   LIG    1        1.722  -1.476  -0.980  0.00  0.00    +0.120 C 
ATOM      8  C   LIG    1        1.132   2.133  -0.588  0.00  0.00    +0.130 A 
ATOM      9  C   LIG    1        1.577   3.573  -0.587  0.00  0.00    +0.150 C 
BRANCH   3  10
ATOM     10  C   LIG    1        3.339   1.132  -1.161  0.00  0.00    +0.230 C 
ATOM     11  C   LIG    1        4.147   0.510  -0.020  0.00  0.00    +0.070 C 
BRANCH  10  12
ATOM     12  C   LIG    1        3.608   0.361  -2.455  0.00  0.00    +0.180 C 
BRANCH  12  14
ATOM     13  C   LIG    1        5.335  -0.162  -4.032  0.00  0.00    +0.210 C 
ATOM     14  O   LIG    1        4.978   0.522  -2.830  0.00  0.00    -0.390 OA
ENDBRANCH  12  14
ENDBRANCH  10  12
ENDBRANCH   3  10
ENDBRANCH   1   6
BRANCH   1  15
ATOM     15  C   LIG    1       -2.653   1.827   0.240  0.00  0.00    +0.210 C 
BRANCH  15  16
ATOM     16  O   LIG    1       -3.636   2.823   0.531  0.00  0.00    -0.280 OA
BRANCH  16  17
ATOM     17  C   LIG    1       -4.899   2.388   0.781  0.00  0.00    +0.190 A 
ATOM     18  C   LIG    1       -5.186   1.031   0.749  0.00  0.00    -0.070 A 
ATOM     19  C   LIG    1       -6.471   0.592   1.004  0.00  0.00    +0.150 A 
ATOM     20  C   LIG    1       -7.470   1.503   1.293  0.00  0.00    -0.090 A 
ATOM     21  C   LIG    1       -7.186   2.856   1.326  0.00  0.00    +0.030 A 
ATOM     22  C   LIG    1       -8.278   3.846   1.641  0.00  0.00    +0.140 C 
ATOM     23  C   LIG    1       -5.903   3.300   1.076  0.00  0.00    +0.000 A 
BRANCH  20  24
ATOM     24  N   LIG    1       -8.845   1.029   1.566  0.00  0.00    +0.040 N 
ATOM     25  O   LIG    1       -9.691   1.810   1.964  0.00  0.00    -0.160 OA
ATOM     26  O   LIG    1       -9.132  -0.142   1.393  0.00  0.00    -0.170 OA
ENDBRANCH  20  24
ENDBRANCH  16  17
ENDBRANCH  15  16
ENDBRANCH   1  15
TORSDOF 8
