REMARK  Name = ZINCpe00000VVGtd.0
REMARK                            x       y       z     vdW  Elec       q    Type
REMARK                         _______ _______ _______ _____ _____    ______ ____
ROOT
ATOM      1  O   LIG    1       -2.371   6.636  -2.128  0.00  0.00    -0.520 OA
ATOM      2  C   LIG    1       -2.202   7.259  -1.101  0.00  0.00    +0.500 C 
ATOM      3  N   LIG    1       -1.346   6.798  -0.167  0.00  0.00    -0.720 N 
ATOM      4  H   LIG    1       -1.211   7.296   0.655  0.00  0.00    +0.410 HD
ENDROOT
BRANCH   3   5
ATOM      5  C   LIG    1       -0.620   5.546  -0.392  0.00  0.00    +0.240 C 
ATOM      6  C   LIG    1        0.672   5.551   0.429  0.00  0.00    +0.040 C 
ATOM      7  C   LIG    1        1.540   4.356   0.013  0.00  0.00    +0.160 C 
ATOM      8  C   LIG    1        0.672   3.120   0.013  0.00  0.00    +0.200 A 
ATOM      9  N   LIG    1        1.063   1.879   0.002  0.00  0.00    -0.480 NA
ATOM     10  C   LIG    1       -0.013   1.076   0.008  0.00  0.00    +0.140 A 
ATOM     11  C   LIG    1       -1.115   1.853   0.017  0.00  0.00    +0.130 A 
ATOM     12  N   LIG    1       -0.682   3.146   0.025  0.00  0.00    -0.450 N 
ATOM     13  C   LIG    1       -1.495   4.364   0.038  0.00  0.00    +0.270 C 
ENDBRANCH   3   5
BRANCH   2  14
ATOM     14  C   LIG    1       -2.949   8.547  -0.869  0.00  0.00    +0.340 C 
BRANCH  14  15
ATOM     15  N   LIG    1       -3.808   8.828  -2.022  0.00  0.00    -0.530 N 
ATOM     16  C   LIG    1       -3.326   9.563  -3.058  0.00  0.00    +0.580 A 
ATOM     17  N   LIG    1       -4.022   9.848  -4.116  0.00  0.00    -0.510 NA
ATOM     18  C   LIG    1       -5.306   9.434  -4.255  0.00  0.00    +0.140 A 
ATOM     19  C   LIG    1       -6.057   9.748  -5.390  0.00  0.00    +0.070 A 
ATOM     20  C   LIG    1       -7.358   9.307  -5.491  0.00  0.00    +0.050 A 
ATOM     21  C   LIG    1       -7.935   8.554  -4.475  0.00  0.00    +0.090 A 
ATOM     22  C   LIG    1       -7.213   8.232  -3.344  0.00  0.00    +0.070 A 
ATOM     23  F   LIG    1       -9.213   8.133  -4.596  0.00  0.00    -0.130 F 
ATOM     24  C   LIG    1       -5.895   8.669  -3.224  0.00  0.00    -0.170 A 
ATOM     25  C   LIG    1       -5.077   8.357  -2.043  0.00  0.00    +0.560 A 
ATOM     26  O   LIG    1       -5.523   7.702  -1.119  0.00  0.00    -0.500 OA
ENDBRANCH  14  15
ENDBRANCH   2  14
TORSDOF 3
