REMARK  Name = ZINCkj00000hafO1.0
REMARK                            x       y       z     vdW  Elec       q    Type
REMARK                         _______ _______ _______ _____ _____    ______ ____
ROOT
ATOM      1  C   LIG    1        1.688  -1.715   2.969  0.00  0.00    -0.020 A 
ATOM      2  N   LIG    1        2.989  -1.471   2.924  0.00  0.00    -0.230 NA
ATOM      3  N   LIG    1        3.557  -2.106   3.888  0.00  0.00    -0.210 N 
ATOM      4  H   LIG    1        4.510  -2.087   4.071  0.00  0.00    +0.480 HD
ATOM      5  N   LIG    1        2.698  -2.771   4.574  0.00  0.00    -0.270 NA
ATOM      6  C   LIG    1        1.504  -2.581   4.065  0.00  0.00    +0.050 A 
ENDROOT
BRANCH   1  13
ATOM      7  C   LIG    1        1.101   3.869   0.260  0.00  0.00    +0.080 C 
ATOM      8  C   LIG    1        1.073   2.380   0.490  0.00  0.00    -0.060 C 
ATOM      9  C   LIG    1        2.183   1.802   0.827  0.00  0.00    -0.170 C 
ATOM     10  C   LIG    1        2.312   0.325   1.070  0.00  0.00    +0.360 C 
ATOM     11  N   LIG    1        0.970  -0.274   1.124  0.00  0.00    -0.590 N 
ATOM     12  C   LIG    1       -0.008   0.170   0.117  0.00  0.00    +0.310 C 
ATOM     13  C   LIG    1        0.649  -1.192   2.057  0.00  0.00    +0.610 C 
ATOM     14  O   LIG    1       -0.496  -1.591   2.149  0.00  0.00    -0.530 OA
ATOM     15 BR   LIG    1        3.726   2.878   1.023  0.00  0.00    -0.040 Br
ATOM     16  C   LIG    1       -0.236   1.671   0.312  0.00  0.00    +0.090 C 
ENDBRANCH   1  13
BRANCH   6  17
ATOM     17  C   LIG    1        0.204  -3.168   4.552  0.00  0.00    +0.120 C 
ATOM     18  C   LIG    1        0.272  -4.709   4.534  0.00  0.00    +0.080 C 
ATOM     19  C   LIG    1        0.070  -5.136   6.004  0.00  0.00    +0.280 C 
ATOM     20  N   LIG    1       -0.658  -4.002   6.627  0.00  0.00    -0.520 N 
ATOM     21  H   LIG    1       -0.533  -4.009   7.628  0.00  0.00    +0.440 HD
ATOM     22  H   LIG    1       -1.639  -4.042   6.394  0.00  0.00    +0.440 HD
ATOM     23  C   LIG    1       -0.033  -2.792   6.030  0.00  0.00    +0.280 C 
ENDBRANCH   6  17
TORSDOF 2
