REMARK  Name = ZINCpk000000nKWd.0
REMARK                            x       y       z     vdW  Elec       q    Type
REMARK                         _______ _______ _______ _____ _____    ______ ____
ROOT
ATOM      1  C   LIG    1        3.090   0.654   0.591  0.00  0.00    +0.520 C 
ATOM      2  N   LIG    1        2.205   1.600   0.962  0.00  0.00    -0.720 N 
ATOM      3  H   LIG    1        2.224   1.954   1.864  0.00  0.00    +0.400 HD
ATOM      4  O   LIG    1        3.067   0.210  -0.538  0.00  0.00    -0.520 OA
ENDROOT
BRANCH   2   5
ATOM      5  C   LIG    1        1.214   2.092   0.002  0.00  0.00    +0.250 C 
ATOM      6  C   LIG    1        0.685   3.480   0.433  0.00  0.00    +0.060 C 
ATOM      7  C   LIG    1       -0.800   3.394   0.017  0.00  0.00    +0.270 C 
ATOM      8  N   LIG    1       -1.127   1.964   0.018  0.00  0.00    -0.530 N 
ATOM      9  C   LIG    1       -0.014   1.209   0.009  0.00  0.00    +0.500 C 
ATOM     10  O   LIG    1        0.002  -0.004   0.002  0.00  0.00    -0.500 OA
BRANCH   8  11
ATOM     11  C   LIG    1       -2.436   1.448   0.029  0.00  0.00    +0.000 A 
ATOM     12  C   LIG    1       -2.778   0.134   0.028  0.00  0.00    +0.230 A 
ATOM     13  N   LIG    1       -4.135   0.064   0.043  0.00  0.00    -0.370 N 
ATOM     14  N   LIG    1       -4.633   1.373   0.046  0.00  0.00    -0.280 NA
ATOM     15  C   LIG    1       -4.934  -1.164   0.051  0.00  0.00    +0.360 C 
ATOM     16  C   LIG    1       -3.620   2.200   0.037  0.00  0.00    +0.230 A 
ENDBRANCH   8  11
ENDBRANCH   2   5
BRANCH   1  17
ATOM     17  C   LIG    1        4.110   0.147   1.578  0.00  0.00    +0.070 C 
BRANCH  17  20
ATOM     18  C   LIG    1        6.923  -2.456   1.220  0.00  0.00    +0.160 C 
ATOM     19  C   LIG    1        6.100  -1.339   1.869  0.00  0.00    +0.000 C 
ATOM     20  C   LIG    1        4.986  -0.913   0.908  0.00  0.00    +0.010 C 
ATOM     21  C   LIG    1        4.133  -2.137   0.559  0.00  0.00    -0.010 C 
ATOM     22  C   LIG    1        5.031  -3.222  -0.039  0.00  0.00    +0.200 C 
ATOM     23  O   LIG    1        6.064  -3.550   0.893  0.00  0.00    -0.380 OA
BRANCH  18  25
ATOM     24  C   LIG    1        8.823  -4.044   1.550  0.00  0.00    +0.010 C 
ATOM     25  C   LIG    1        8.001  -2.928   2.198  0.00  0.00    -0.010 C 
ATOM     26  C   LIG    1        8.920  -1.756   2.549  0.00  0.00    +0.030 C 
ENDBRANCH  18  25
ENDBRANCH  17  20
ENDBRANCH   1  17
TORSDOF 5
