REMARK  Name = ZINCqH00000512uE.0
REMARK                            x       y       z     vdW  Elec       q    Type
REMARK                         _______ _______ _______ _____ _____    ______ ____
ROOT
ATOM      1  C   LIG    1        2.250   1.433  -2.318  0.00  0.00    +0.480 C 
ATOM      2  O   LIG    1        1.657   0.928  -3.242  0.00  0.00    -0.490 OA
ENDROOT
BRANCH   1   3
ATOM      3  C   LIG    1        2.122   0.854  -0.933  0.00  0.00    -0.010 C 
ATOM      4  C   LIG    1        1.475   1.886   0.013  0.00  0.00    +0.060 C 
ATOM      5  C   LIG    1       -0.029   1.513   0.011  0.00  0.00    +0.020 C 
ATOM      6  C   LIG    1        0.003  -0.035  -0.025  0.00  0.00    +0.020 C 
ATOM      7  C   LIG    1        1.186  -0.368  -0.957  0.00  0.00    +0.050 C 
BRANCH   3   8
ATOM      8  C   LIG    1        3.478   0.455  -0.412  0.00  0.00    -0.090 A 
ATOM      9  C   LIG    1        4.578   0.494  -1.248  0.00  0.00    +0.040 A 
ATOM     10  C   LIG    1        5.824   0.132  -0.770  0.00  0.00    -0.010 A 
ATOM     11  C   LIG    1        5.968  -0.279   0.544  0.00  0.00    +0.100 A 
ATOM     12  C   LIG    1        4.864  -0.323   1.379  0.00  0.00    -0.010 A 
ATOM     13  F   LIG    1        7.184  -0.637   1.011  0.00  0.00    -0.140 F 
ATOM     14  C   LIG    1        3.621   0.044   0.900  0.00  0.00    +0.060 A 
ENDBRANCH   3   8
ENDBRANCH   1   3
BRANCH   1  15
ATOM     15  O   LIG    1        3.024   2.510  -2.526  0.00  0.00    -0.320 OA
BRANCH  15  16
ATOM     16  C   LIG    1        3.101   3.014  -3.886  0.00  0.00    +0.270 C 
BRANCH  16  19
ATOM     17  N   LIG    1        4.231   4.854  -5.092  0.00  0.00    -0.630 N 
ATOM     18  H   LIG    1        3.807   4.540  -5.906  0.00  0.00    +0.420 HD
ATOM     19  C   LIG    1        4.008   4.216  -3.926  0.00  0.00    +0.510 C 
ATOM     20  O   LIG    1        4.537   4.610  -2.908  0.00  0.00    -0.470 OA
BRANCH  17  22
ATOM     21  C   LIG    1        5.362   6.677  -6.259  0.00  0.00    -0.110 A 
ATOM     22  C   LIG    1        5.066   5.962  -5.128  0.00  0.00    +0.050 A 
ATOM     23  S   LIG    1        5.870   6.615  -3.774  0.00  0.00    +0.320 S 
ATOM     24  C   LIG    1        6.619   7.880  -4.731  0.00  0.00    -0.100 A 
ATOM     25  C   LIG    1        6.258   7.784  -6.004  0.00  0.00    +0.080 A 
BRANCH  21  27
ATOM     26  N   LIG    1        4.424   6.115  -8.582  0.00  0.00    -0.420 NA
ATOM     27  C   LIG    1        4.839   6.364  -7.554  0.00  0.00    +0.270 C 
ENDBRANCH  21  27
ENDBRANCH  17  22
ENDBRANCH  16  19
ENDBRANCH  15  16
ENDBRANCH   1  15
TORSDOF 7
