REMARK  Name = ZINCrD000003Sg5G.0
REMARK                            x       y       z     vdW  Elec       q    Type
REMARK                         _______ _______ _______ _____ _____    ______ ____
ROOT
ATOM      1  S   LIG    1       -1.032   2.167   1.325  0.00  0.00    +2.710 S 
ATOM      2  O   LIG    1       -0.095   3.215   1.116  0.00  0.00    -0.910 OA
ATOM      3  O   LIG    1       -0.690   0.929   1.933  0.00  0.00    -0.940 OA
ENDROOT
BRANCH   1   9
ATOM      4  C   LIG    1       -2.392   4.266   2.402  0.00  0.00    +0.340 C 
ATOM      5  C   LIG    1       -3.835   4.662   2.068  0.00  0.00    +0.220 C 
ATOM      6  O   LIG    1       -4.734   3.849   2.827  0.00  0.00    -0.370 OA
ATOM      7  C   LIG    1       -4.651   2.453   2.531  0.00  0.00    +0.210 C 
ATOM      8  C   LIG    1       -3.253   1.944   2.884  0.00  0.00    +0.280 C 
ATOM      9  N   LIG    1       -2.259   2.810   2.231  0.00  0.00    -0.990 NA
BRANCH   4  14
ATOM     10  C   LIG    1       -0.238   5.965  -1.831  0.00  0.00    +0.160 C 
ATOM     11  C   LIG    1       -0.505   5.714  -0.369  0.00  0.00    +0.020 A 
ATOM     12  C   LIG    1        0.226   6.186   0.657  0.00  0.00    -0.070 A 
ATOM     13  C   LIG    1       -0.381   5.714   1.843  0.00  0.00    -0.010 A 
ATOM     14  C   LIG    1       -1.442   4.975   1.471  0.00  0.00    -0.050 A 
ATOM     15  O   LIG    1       -1.514   4.981   0.130  0.00  0.00    -0.150 OA
ENDBRANCH   4  14
ENDBRANCH   1   9
BRANCH   1  16
ATOM     16  C   LIG    1       -1.701   1.776  -0.258  0.00  0.00    -0.560 A 
ATOM     17  C   LIG    1       -2.155   0.560  -0.659  0.00  0.00    +0.130 A 
ATOM     18  O   LIG    1       -2.572   0.701  -1.936  0.00  0.00    -0.190 OA
ATOM     19  C   LIG    1       -2.372   1.977  -2.292  0.00  0.00    +0.190 A 
ATOM     20  C   LIG    1       -2.699   2.571  -3.638  0.00  0.00    +0.240 C 
ATOM     21  N   LIG    1       -1.850   2.622  -1.287  0.00  0.00    -0.390 NA
BRANCH  17  22
ATOM     22  C   LIG    1       -2.185  -0.679   0.147  0.00  0.00    -0.080 A 
ATOM     23  C   LIG    1       -1.010  -1.178   0.710  0.00  0.00    +0.100 A 
ATOM     24  C   LIG    1       -1.046  -2.332   1.464  0.00  0.00    +0.010 A 
ATOM     25  C   LIG    1       -2.242  -3.001   1.655  0.00  0.00    +0.040 A 
ATOM     26  C   LIG    1       -3.410  -2.514   1.095  0.00  0.00    +0.000 A 
ATOM     27  C   LIG    1       -3.388  -1.358   0.342  0.00  0.00    +0.050 A 
ENDBRANCH  17  22
ENDBRANCH   1  16
TORSDOF 4
