REMARK  Name = ZINCqH0000006T9f.0
REMARK                            x       y       z     vdW  Elec       q    Type
REMARK                         _______ _______ _______ _____ _____    ______ ____
ROOT
ATOM      1  N   LIG    1       -2.833   3.693   6.373  0.00  0.00    -0.660 N 
ATOM      2  H   LIG    1       -2.205   3.557   7.100  0.00  0.00    +0.420 HD
ENDROOT
BRANCH   1   3
ATOM      3  C   LIG    1       -2.482   3.342   5.080  0.00  0.00    +0.370 A 
ATOM      4  N   LIG    1       -1.362   2.825   4.688  0.00  0.00    -0.350 NA
ATOM      5  N   LIG    1       -1.185   2.536   3.340  0.00  0.00    -0.300 N 
ATOM      6  C   LIG    1       -0.218   2.008   2.497  0.00  0.00    +0.190 A 
ATOM      7  C   LIG    1       -0.724   2.012   1.250  0.00  0.00    +0.040 A 
ATOM      8  N   LIG    1       -1.960   2.527   1.299  0.00  0.00    -0.420 NA
ATOM      9  C   LIG    1       -2.244   2.836   2.542  0.00  0.00    +0.120 A 
ATOM     10  S   LIG    1       -3.475   3.509   3.621  0.00  0.00    +0.130 S 
BRANCH   7  11
ATOM     11  C   LIG    1       -0.019   1.526   0.010  0.00  0.00    +0.020 C 
ATOM     12  C   LIG    1       -0.759   2.033  -1.229  0.00  0.00    +0.050 C 
ATOM     13  C   LIG    1        1.417   2.055  -0.000  0.00  0.00    +0.050 C 
ATOM     14  C   LIG    1        0.002  -0.004   0.002  0.00  0.00    +0.040 C 
ENDBRANCH   7  11
ENDBRANCH   1   3
BRANCH   1  15
ATOM     15  C   LIG    1       -4.152   4.271   6.644  0.00  0.00    +0.350 C 
BRANCH  15  21
ATOM     16  C   LIG    1       -3.708   5.706   8.650  0.00  0.00    +0.160 A 
ATOM     17  C   LIG    1       -3.826   5.975  10.005  0.00  0.00    -0.120 A 
ATOM     18  C   LIG    1       -4.516   5.099  10.827  0.00  0.00    +0.160 A 
ATOM     19  C   LIG    1       -5.090   3.951  10.290  0.00  0.00    +0.060 A 
ATOM     20  C   LIG    1       -4.974   3.688   8.934  0.00  0.00    +0.040 A 
ATOM     21  C   LIG    1       -4.280   4.561   8.117  0.00  0.00    -0.150 A 
BRANCH  16  23
ATOM     22  C   LIG    1       -2.466   7.726   8.459  0.00  0.00    +0.240 C 
ATOM     23  O   LIG    1       -3.031   6.566   7.843  0.00  0.00    -0.310 OA
ENDBRANCH  16  23
BRANCH  19  24
ATOM     24  O   LIG    1       -5.768   3.088  11.095  0.00  0.00    -0.300 OA
ATOM     25  C   LIG    1       -6.331   1.930  10.476  0.00  0.00    +0.240 C 
ENDBRANCH  19  24
BRANCH  18  26
ATOM     26  O   LIG    1       -4.633   5.361  12.156  0.00  0.00    -0.300 OA
ATOM     27  C   LIG    1       -4.020   6.558  12.638  0.00  0.00    +0.250 C 
ENDBRANCH  18  26
ENDBRANCH  15  21
ENDBRANCH   1  15
TORSDOF 7
