REMARK  Name = ZINCrH00000tj1dz.0
REMARK                            x       y       z     vdW  Elec       q    Type
REMARK                         _______ _______ _______ _____ _____    ______ ____
ROOT
ATOM      1  C   LIG    1       -1.831  -7.023  -4.429  0.00  0.00    +0.300 A 
ATOM      2  N   LIG    1       -1.810  -5.810  -4.918  0.00  0.00    -0.510 NA
ATOM      3  C   LIG    1       -1.899  -4.920  -3.924  0.00  0.00    +0.200 A 
ATOM      4  N   LIG    1       -1.973  -5.567  -2.785  0.00  0.00    -0.320 NA
ATOM      5  N   LIG    1       -1.936  -6.936  -3.093  0.00  0.00    -0.460 N 
ATOM      6  H   LIG    1       -1.974  -7.674  -2.464  0.00  0.00    +0.450 HD
ENDROOT
BRANCH   1   7
ATOM      7  C   LIG    1       -1.752  -8.299  -5.228  0.00  0.00    +0.360 C 
BRANCH   7   8
ATOM      8  O   LIG    1       -1.806  -9.419  -4.343  0.00  0.00    -0.320 OA
BRANCH   8  13
ATOM      9  C   LIG    1       -1.557 -14.539  -6.679  0.00  0.00    +0.100 C 
ATOM     10  C   LIG    1       -1.623 -13.169  -6.054  0.00  0.00    -0.120 A 
ATOM     11  C   LIG    1       -1.732 -13.041  -4.681  0.00  0.00    +0.050 A 
ATOM     12  C   LIG    1       -1.793 -11.787  -4.106  0.00  0.00    -0.010 A 
ATOM     13  C   LIG    1       -1.746 -10.655  -4.907  0.00  0.00    +0.120 A 
ATOM     14  C   LIG    1       -1.643 -10.786  -6.284  0.00  0.00    -0.070 A 
ATOM     15  C   LIG    1       -1.576 -12.042  -6.854  0.00  0.00    +0.050 A 
ENDBRANCH   8  13
ENDBRANCH   7   8
ENDBRANCH   1   7
BRANCH   3  16
ATOM     16  S   LIG    1       -1.907  -3.168  -4.113  0.00  0.00    +0.120 S 
BRANCH  16  17
ATOM     17  C   LIG    1       -2.048  -2.575  -2.404  0.00  0.00    +0.080 C 
BRANCH  17  18
ATOM     18  C   LIG    1       -2.068  -1.068  -2.396  0.00  0.00    +0.540 C 
ATOM     19  N   LIG    1       -2.168  -0.402  -1.229  0.00  0.00    -0.710 N 
ATOM     20  H   LIG    1       -2.227  -0.892  -0.394  0.00  0.00    +0.400 HD
ATOM     21  O   LIG    1       -1.995  -0.455  -3.440  0.00  0.00    -0.520 OA
BRANCH  19  22
ATOM     22  C   LIG    1       -2.188   1.063  -1.221  0.00  0.00    +0.240 C 
ATOM     23  C   LIG    1       -0.753   1.593  -1.232  0.00  0.00    +0.010 C 
ATOM     24  C   LIG    1       -0.013   1.086   0.008  0.00  0.00    +0.000 C 
ATOM     25  C   LIG    1       -0.729   1.579   1.267  0.00  0.00    +0.000 C 
ATOM     26  C   LIG    1       -2.164   1.050   1.278  0.00  0.00    -0.020 C 
ATOM     27  C   LIG    1       -2.880   1.543   2.537  0.00  0.00    +0.020 C 
ATOM     28  C   LIG    1       -2.904   1.556   0.038  0.00  0.00    +0.000 C 
ATOM     29  C   LIG    1       -4.340   1.027   0.049  0.00  0.00    +0.020 C 
ENDBRANCH  19  22
ENDBRANCH  17  18
ENDBRANCH  16  17
ENDBRANCH   3  16
TORSDOF 7
