REMARK  Name = ZINCqH0000050R5L.0
REMARK                            x       y       z     vdW  Elec       q    Type
REMARK                         _______ _______ _______ _____ _____    ______ ____
ROOT
ATOM      1  C   LIG    1        0.358  -1.706   1.407  0.00  0.00    +0.150 A 
ATOM      2  C   LIG    1        0.269  -2.474   0.255  0.00  0.00    -0.090 A 
ATOM      3  C   LIG    1        0.199  -3.851   0.344  0.00  0.00    +0.070 A 
ATOM      4  C   LIG    1        0.205  -4.467   1.580  0.00  0.00    -0.050 A 
ATOM      5  C   LIG    1        0.289  -3.703   2.738  0.00  0.00    +0.190 A 
ATOM      6  C   LIG    1        0.365  -2.320   2.650  0.00  0.00    -0.010 A 
ENDROOT
BRANCH   5   7
ATOM      7  N   LIG    1        0.296  -4.326   3.990  0.00  0.00    -0.670 N 
ATOM      8  H   LIG    1        0.712  -5.196   4.096  0.00  0.00    +0.410 HD
ATOM      9  C   LIG    1       -0.274  -3.719   5.048  0.00  0.00    +0.560 C 
ATOM     10  O   LIG    1       -0.877  -2.674   4.898  0.00  0.00    -0.510 OA
BRANCH   9  11
ATOM     11  C   LIG    1       -0.168  -4.323   6.393  0.00  0.00    -0.140 A 
ATOM     12  C   LIG    1        0.519  -5.526   6.569  0.00  0.00    +0.040 A 
ATOM     13  C   LIG    1        0.620  -6.081   7.828  0.00  0.00    +0.000 A 
ATOM     14  C   LIG    1        0.033  -5.454   8.913  0.00  0.00    +0.040 A 
ATOM     15  C   LIG    1       -0.654  -4.265   8.745  0.00  0.00    +0.000 A 
ATOM     16  C   LIG    1       -0.757  -3.696   7.492  0.00  0.00    +0.080 A 
ENDBRANCH   9  11
ENDBRANCH   5   7
BRANCH   1  17
ATOM     17  O   LIG    1        0.432  -0.352   1.318  0.00  0.00    -0.310 OA
BRANCH  17  18
ATOM     18  C   LIG    1        0.420   0.213   0.005  0.00  0.00    +0.340 C 
BRANCH  18  23
ATOM     19  C   LIG    1       -0.740   5.117   0.369  0.00  0.00    +0.200 C 
ATOM     20  C   LIG    1        0.012   3.816   0.260  0.00  0.00    +0.190 A 
ATOM     21  N   LIG    1        1.309   3.673   0.211  0.00  0.00    -0.290 NA
ATOM     22  N   LIG    1        1.604   2.425   0.118  0.00  0.00    -0.260 NA
ATOM     23  C   LIG    1        0.509   1.714   0.104  0.00  0.00    +0.170 A 
ATOM     24  N   LIG    1       -0.532   2.577   0.188  0.00  0.00    -0.440 N 
BRANCH  24  25
ATOM     25  C   LIG    1       -1.958   2.239   0.202  0.00  0.00    +0.180 C 
ATOM     26  C   LIG    1       -2.466   1.276  -0.873  0.00  0.00    +0.060 C 
ATOM     27  C   LIG    1       -2.819   2.763  -0.949  0.00  0.00    +0.070 C 
ENDBRANCH  24  25
ENDBRANCH  18  23
ENDBRANCH  17  18
ENDBRANCH   1  17
TORSDOF 6
