REMARK  Name = ZINCtV00000KTBK7.0
REMARK                            x       y       z     vdW  Elec       q    Type
REMARK                         _______ _______ _______ _____ _____    ______ ____
ROOT
ATOM      1  C   LIG    1       -1.522  -1.740  -0.977  0.00  0.00    -0.130 A 
ATOM      2  C   LIG    1       -2.705  -2.478  -0.936  0.00  0.00    +0.050 A 
ATOM      3  C   LIG    1       -3.626  -2.249   0.065  0.00  0.00    +0.020 A 
ATOM      4  C   LIG    1       -3.382  -1.294   1.037  0.00  0.00    +0.060 A 
ATOM      5  C   LIG    1       -2.214  -0.558   1.016  0.00  0.00    +0.030 A 
ATOM      6  C   LIG    1       -1.273  -0.773   0.014  0.00  0.00    +0.010 A 
ENDROOT
BRANCH   6   7
ATOM      7  C   LIG    1       -0.018   0.015  -0.013  0.00  0.00    -0.020 A 
ATOM      8  C   LIG    1        0.296   0.794  -1.125  0.00  0.00    +0.070 A 
ATOM      9  C   LIG    1        1.465   1.526  -1.144  0.00  0.00    +0.060 A 
ATOM     10  C   LIG    1        2.326   1.488  -0.062  0.00  0.00    -0.180 A 
ATOM     11  C   LIG    1        2.020   0.716   1.045  0.00  0.00    +0.070 A 
ATOM     12  C   LIG    1        0.853  -0.020   1.075  0.00  0.00    +0.030 A 
BRANCH  10  13
ATOM     13  C   LIG    1        3.602   2.289  -0.089  0.00  0.00    +0.510 C 
ATOM     14  F   LIG    1        3.944   2.664   1.215  0.00  0.00    -0.180 F 
ATOM     15  F   LIG    1        3.416   3.435  -0.870  0.00  0.00    -0.180 F 
ATOM     16  F   LIG    1        4.629   1.513  -0.636  0.00  0.00    -0.180 F 
ENDBRANCH  10  13
ENDBRANCH   6   7
BRANCH   1  18
ATOM     17  O   LIG    1        0.546  -1.424  -2.012  0.00  0.00    -0.490 OA
ATOM     18  C   LIG    1       -0.536  -1.976  -2.050  0.00  0.00    +0.560 C 
ATOM     19  N   LIG    1       -0.836  -2.803  -3.071  0.00  0.00    -0.670 N 
ATOM     20  H   LIG    1       -1.727  -3.179  -3.144  0.00  0.00    +0.410 HD
BRANCH  19  21
ATOM     21  C   LIG    1        0.137  -3.119  -4.024  0.00  0.00    +0.200 A 
ATOM     22  C   LIG    1        1.484  -3.030  -3.698  0.00  0.00    +0.030 A 
ATOM     23  C   LIG    1        2.443  -3.348  -4.640  0.00  0.00    +0.080 A 
ATOM     24  C   LIG    1        2.064  -3.743  -5.909  0.00  0.00    +0.000 A 
ATOM     25  C   LIG    1        0.723  -3.827  -6.239  0.00  0.00    +0.090 A 
ATOM     26  C   LIG    1       -0.241  -3.516  -5.300  0.00  0.00    -0.220 A 
BRANCH  26  27
ATOM     27  C   LIG    1       -1.702  -3.608  -5.659  0.00  0.00    +0.510 C 
ATOM     28  F   LIG    1       -2.299  -2.352  -5.506  0.00  0.00    -0.170 F 
ATOM     29  F   LIG    1       -2.332  -4.530  -4.818  0.00  0.00    -0.180 F 
ATOM     30  F   LIG    1       -1.829  -4.026  -6.988  0.00  0.00    -0.170 F 
ENDBRANCH  26  27
ENDBRANCH  19  21
ENDBRANCH   1  18
TORSDOF 5
