REMARK  Name = ZINCvU0000000EII.0
REMARK                            x       y       z     vdW  Elec       q    Type
REMARK                         _______ _______ _______ _____ _____    ______ ____
ROOT
ATOM      1  C   LIG    1       -0.002  -0.004   0.045  0.00  0.00    -0.070 A 
ATOM      2  C   LIG    1        1.241  -0.622   0.026  0.00  0.00    +0.010 A 
ATOM      3  C   LIG    1        2.402   0.166   0.018  0.00  0.00    +0.200 A 
ATOM      4  N   LIG    1        2.360   1.481   0.029  0.00  0.00    -0.440 NA
ATOM      5  C   LIG    1        1.210   2.158   0.047  0.00  0.00    +0.130 A 
ATOM      6  C   LIG    1        1.196   3.564   0.057  0.00  0.00    +0.050 A 
ATOM      7  C   LIG    1        0.006   4.227   0.076  0.00  0.00    +0.050 A 
ATOM      8  C   LIG    1       -1.202   3.535   0.085  0.00  0.00    +0.030 A 
ATOM      9  C   LIG    1       -1.227   2.171   0.081  0.00  0.00    +0.070 A 
ATOM     10  C   LIG    1       -0.024   1.459   0.056  0.00  0.00    -0.060 A 
ENDROOT
BRANCH   3  11
ATOM     11  C   LIG    1        3.723  -0.507  -0.002  0.00  0.00    -0.050 A 
ATOM     12  C   LIG    1        4.894   0.249  -0.010  0.00  0.00    +0.090 A 
ATOM     13  C   LIG    1        6.121  -0.382  -0.028  0.00  0.00    +0.030 A 
ATOM     14  C   LIG    1        6.191  -1.763  -0.038  0.00  0.00    +0.060 A 
ATOM     15  C   LIG    1        5.032  -2.521  -0.030  0.00  0.00    -0.090 A 
ATOM     16 BR   LIG    1        5.138  -4.409  -0.043  0.00  0.00    -0.040 Br
ATOM     17  C   LIG    1        3.799  -1.899  -0.007  0.00  0.00    +0.060 A 
ENDBRANCH   3  11
BRANCH   1  20
ATOM     18  N   LIG    1       -1.205  -2.133  -0.079  0.00  0.00    -0.640 N 
ATOM     19  H   LIG    1       -0.350  -2.581  -0.180  0.00  0.00    +0.410 HD
ATOM     20  C   LIG    1       -1.252  -0.792   0.053  0.00  0.00    +0.540 C 
ATOM     21  O   LIG    1       -2.323  -0.232   0.179  0.00  0.00    -0.390 OA
BRANCH  18  22
ATOM     22  C   LIG    1       -2.345  -2.851  -0.072  0.00  0.00    +0.510 C 
ATOM     23  S   LIG    1       -3.854  -2.061   0.106  0.00  0.00    -0.480 S 
BRANCH  22  25
ATOM     24  C   LIG    1       -1.005  -4.879  -0.244  0.00  0.00    +0.300 C 
ATOM     25  N   LIG    1       -2.298  -4.192  -0.204  0.00  0.00    -0.520 N 
BRANCH  25  26
ATOM     26  C   LIG    1       -3.486  -4.928  -0.302  0.00  0.00    +0.120 A 
ATOM     27  C   LIG    1       -3.837  -5.818   0.704  0.00  0.00    +0.040 A 
ATOM     28  C   LIG    1       -5.010  -6.540   0.608  0.00  0.00    +0.000 A 
ATOM     29  C   LIG    1       -5.833  -6.384  -0.498  0.00  0.00    +0.120 A 
ATOM     30  C   LIG    1       -5.480  -5.499  -1.506  0.00  0.00    +0.010 A 
ATOM     31  C   LIG    1       -4.309  -4.773  -1.410  0.00  0.00    +0.070 A 
BRANCH  29  32
ATOM     32  O   LIG    1       -6.985  -7.099  -0.594  0.00  0.00    -0.500 OA
ATOM     33  H   LIG    1       -6.883  -7.953  -1.036  0.00  0.00    +0.390 HD
ENDBRANCH  29  32
ENDBRANCH  25  26
ENDBRANCH  22  25
ENDBRANCH  18  22
ENDBRANCH   1  20
TORSDOF 6
