REMARK  Name = ZINCpe000000SY66.0
REMARK                            x       y       z     vdW  Elec       q    Type
REMARK                         _______ _______ _______ _____ _____    ______ ____
ROOT
ATOM      1  C   LIG    1       -3.138   0.729  -0.053  0.00  0.00    +0.240 C 
ATOM      2  C   LIG    1       -3.614   0.027  -1.328  0.00  0.00    +0.040 C 
ATOM      3  C   LIG    1       -5.101  -0.309  -1.195  0.00  0.00    +0.020 C 
ATOM      4  C   LIG    1       -5.907   0.981  -1.021  0.00  0.00    +0.010 C 
ATOM      5  C   LIG    1       -5.455   1.691   0.259  0.00  0.00    +0.290 C 
ATOM      6  N   LIG    1       -4.001   1.891   0.201  0.00  0.00    -0.990 NA
ENDROOT
BRANCH   1   9
ATOM      7  N   LIG    1       -0.801   0.942   0.731  0.00  0.00    -0.690 N 
ATOM      8  H   LIG    1       -1.062   0.470   1.538  0.00  0.00    +0.410 HD
ATOM      9  C   LIG    1       -1.713   1.188  -0.230  0.00  0.00    +0.520 C 
ATOM     10  O   LIG    1       -1.387   1.778  -1.238  0.00  0.00    -0.540 OA
BRANCH   7  11
ATOM     11  C   LIG    1        0.585   1.383   0.556  0.00  0.00    +0.320 C 
BRANCH  11  14
ATOM     12  N   LIG    1        2.708   1.284   1.822  0.00  0.00    -0.720 N 
ATOM     13  H   LIG    1        3.130   1.760   1.090  0.00  0.00    +0.400 HD
ATOM     14  C   LIG    1        1.396   0.982   1.761  0.00  0.00    +0.510 C 
ATOM     15  O   LIG    1        0.868   0.387   2.677  0.00  0.00    -0.540 OA
BRANCH  12  17
ATOM     16  C   LIG    1        4.968   0.768   2.599  0.00  0.00    +0.030 C 
ATOM     17  C   LIG    1        3.496   0.895   2.994  0.00  0.00    +0.230 C 
ATOM     18  C   LIG    1        3.350   1.959   4.084  0.00  0.00    +0.020 C 
ENDBRANCH  12  17
ENDBRANCH  11  14
ENDBRANCH   7  11
ENDBRANCH   1   9
BRANCH   6  19
ATOM     19  S   LIG    1       -3.347   3.397   0.418  0.00  0.00    +2.690 S 
ATOM     20  O   LIG    1       -1.980   3.196   0.752  0.00  0.00    -0.940 OA
ATOM     21  O   LIG    1       -4.253   4.112   1.247  0.00  0.00    -0.950 OA
BRANCH  19  22
ATOM     22  C   LIG    1       -3.363   4.203  -1.148  0.00  0.00    -0.680 A 
ATOM     23  C   LIG    1       -2.211   4.258  -1.909  0.00  0.00    +0.160 A 
ATOM     24  C   LIG    1       -2.224   4.888  -3.140  0.00  0.00    -0.020 A 
ATOM     25  C   LIG    1       -3.389   5.469  -3.606  0.00  0.00    +0.070 A 
ATOM     26  C   LIG    1       -4.540   5.419  -2.842  0.00  0.00    -0.020 A 
ATOM     27  C   LIG    1       -4.527   4.786  -1.613  0.00  0.00    +0.110 A 
ENDBRANCH  19  22
ENDBRANCH   6  19
TORSDOF 6
