REMARK  Name = ZINCvU00000008dw.0
REMARK                            x       y       z     vdW  Elec       q    Type
REMARK                         _______ _______ _______ _____ _____    ______ ____
ROOT
ATOM      1  O   LIG    1       -1.396   6.122  -0.263  0.00  0.00    -0.330 OA
ENDROOT
BRANCH   1   2
ATOM      2  C   LIG    1       -1.583   7.454  -0.363  0.00  0.00    +0.550 C 
ATOM      3  O   LIG    1       -0.624   8.203  -0.382  0.00  0.00    -0.490 OA
BRANCH   2   4
ATOM      4  C   LIG    1       -2.940   7.999  -0.448  0.00  0.00    -0.240 A 
ATOM      5  C   LIG    1       -3.250   9.327  -0.552  0.00  0.00    +0.130 A 
ATOM      6  C   LIG    1       -4.588   9.599  -0.618  0.00  0.00    +0.070 A 
ATOM      7  C   LIG    1       -5.398   8.498  -0.570  0.00  0.00    -0.130 A 
ATOM      8  S   LIG    1       -4.417   7.045  -0.441  0.00  0.00    +0.260 S 
BRANCH   7   9
ATOM      9  C   LIG    1       -6.869   8.526  -0.624  0.00  0.00    +0.170 A 
ATOM     10  N   LIG    1       -7.585   9.598  -0.719  0.00  0.00    -0.440 NA
ATOM     11  C   LIG    1       -8.915   9.463  -0.762  0.00  0.00    +0.080 A 
ATOM     12  C   LIG    1       -9.903  10.469  -0.868  0.00  0.00    +0.080 A 
ATOM     13  C   LIG    1      -11.223  10.141  -0.891  0.00  0.00    +0.030 A 
ATOM     14  C   LIG    1      -11.629   8.816  -0.813  0.00  0.00    +0.050 A 
ATOM     15  C   LIG    1      -10.690   7.814  -0.710  0.00  0.00    +0.060 A 
ATOM     16  C   LIG    1       -9.333   8.129  -0.684  0.00  0.00    -0.170 A 
ATOM     17  S   LIG    1       -7.904   7.106  -0.562  0.00  0.00    +0.080 S 
ENDBRANCH   7   9
ENDBRANCH   2   4
ENDBRANCH   1   2
BRANCH   1  18
ATOM     18  C   LIG    1       -0.024   5.653  -0.183  0.00  0.00    +0.270 C 
BRANCH  18  20
ATOM     19  O   LIG    1       -1.058   3.534  -0.071  0.00  0.00    -0.490 OA
ATOM     20  C   LIG    1       -0.013   4.149  -0.077  0.00  0.00    +0.520 C 
ATOM     21  N   LIG    1        1.159   3.489   0.010  0.00  0.00    -0.660 N 
ATOM     22  H   LIG    1        1.990   3.983   0.086  0.00  0.00    +0.420 HD
BRANCH  21  23
ATOM     23  C   LIG    1        1.176   2.088  -0.009  0.00  0.00    +0.140 A 
ATOM     24  C   LIG    1        0.140   1.388  -0.610  0.00  0.00    +0.060 A 
ATOM     25  C   LIG    1        0.160   0.005  -0.627  0.00  0.00    +0.010 A 
ATOM     26  C   LIG    1        1.209  -0.682  -0.047  0.00  0.00    +0.030 A 
ATOM     27  C   LIG    1        2.245   0.009   0.554  0.00  0.00    -0.030 A 
ATOM     28  C   LIG    1        2.234   1.394   0.575  0.00  0.00    +0.080 A 
BRANCH  28  29
ATOM     29  O   LIG    1        3.252   2.075   1.165  0.00  0.00    -0.330 OA
BRANCH  29  30
ATOM     30  C   LIG    1        4.303   1.298   1.744  0.00  0.00    +0.590 C 
ATOM     31  F   LIG    1        4.901   0.511   0.754  0.00  0.00    -0.200 F 
ATOM     32  F   LIG    1        3.776   0.471   2.742  0.00  0.00    -0.200 F 
ENDBRANCH  29  30
ENDBRANCH  28  29
ENDBRANCH  21  23
ENDBRANCH  18  20
ENDBRANCH   1  18
TORSDOF 8
