REMARK  Name = ZINCrH00000No4IS.0
REMARK                            x       y       z     vdW  Elec       q    Type
REMARK                         _______ _______ _______ _____ _____    ______ ____
ROOT
ATOM      1  C   LIG    1       -0.000   0.023   0.178  0.00  0.00    +0.320 C 
ATOM      2  N   LIG    1       -1.104  -0.659   0.127  0.00  0.00    -0.250 NA
ENDROOT
BRANCH   2   3
ATOM      3  N   LIG    1       -1.063  -2.059   0.111  0.00  0.00    -0.390 N 
ATOM      4  C   LIG    1        0.126  -2.702   0.255  0.00  0.00    +0.540 A 
ATOM      5  N   LIG    1        0.209  -4.000   0.251  0.00  0.00    -0.480 NA
ATOM      6  C   LIG    1       -0.881  -4.780   0.092  0.00  0.00    +0.060 A 
ATOM      7  C   LIG    1       -2.132  -4.189  -0.067  0.00  0.00    -0.210 A 
ATOM      8  C   LIG    1       -3.185  -5.172  -0.223  0.00  0.00    -0.040 A 
ATOM      9  C   LIG    1       -2.780  -6.428  -0.188  0.00  0.00    -0.200 A 
ATOM     10  C   LIG    1       -3.692  -7.620  -0.328  0.00  0.00    +0.150 C 
ATOM     11  C   LIG    1       -4.631  -4.790  -0.411  0.00  0.00    +0.130 C 
ATOM     12  S   LIG    1       -1.045  -6.530   0.043  0.00  0.00    +0.210 S 
ATOM     13  C   LIG    1       -2.201  -2.761  -0.054  0.00  0.00    +0.580 A 
ATOM     14  O   LIG    1       -3.270  -2.190  -0.189  0.00  0.00    -0.490 OA
ENDBRANCH   2   3
BRANCH   1  21
ATOM     15  C   LIG    1       -2.610   1.796  -0.142  0.00  0.00    +0.170 C 
ATOM     16  C   LIG    1       -1.192   2.296  -0.048  0.00  0.00    +0.130 A 
ATOM     17  N   LIG    1       -0.817   3.546  -0.079  0.00  0.00    -0.290 NA
ATOM     18  N   LIG    1        0.577   3.604   0.029  0.00  0.00    -0.310 N 
ATOM     19  C   LIG    1        1.048   2.344   0.136  0.00  0.00    +0.140 A 
ATOM     20  C   LIG    1        2.493   1.940   0.274  0.00  0.00    +0.160 C 
ATOM     21  C   LIG    1       -0.038   1.494   0.095  0.00  0.00    -0.220 A 
BRANCH  18  22
ATOM     22  C   LIG    1        1.352   4.771   0.029  0.00  0.00    +0.140 A 
ATOM     23  C   LIG    1        0.928   5.888   0.736  0.00  0.00    +0.030 A 
ATOM     24  C   LIG    1        1.697   7.036   0.738  0.00  0.00    +0.040 A 
ATOM     25  C   LIG    1        2.882   7.077   0.026  0.00  0.00    +0.020 A 
ATOM     26  C   LIG    1        3.304   5.968  -0.684  0.00  0.00    +0.040 A 
ATOM     27  C   LIG    1        2.543   4.815  -0.685  0.00  0.00    +0.010 A 
ENDBRANCH  18  22
ENDBRANCH   1  21
TORSDOF 3
