REMARK  Name = ZINCvU00000005QO.0
REMARK                            x       y       z     vdW  Elec       q    Type
REMARK                         _______ _______ _______ _____ _____    ______ ____
ROOT
ATOM      1  C   LIG    1       -0.008  -2.467  -2.190  0.00  0.00    +0.610 C 
ATOM      2  N   LIG    1        0.149  -2.721  -0.876  0.00  0.00    -0.610 N 
ATOM      3  C   LIG    1       -0.726  -3.578  -0.056  0.00  0.00    +0.250 C 
ATOM      4  C   LIG    1        0.165  -4.041   1.124  0.00  0.00    +0.040 C 
ATOM      5  C   LIG    1        1.017  -2.770   1.393  0.00  0.00    +0.050 C 
ATOM      6  C   LIG    1        1.223  -2.190  -0.023  0.00  0.00    +0.270 C 
ATOM      7  O   LIG    1        0.743  -1.694  -2.754  0.00  0.00    -0.510 OA
ENDROOT
BRANCH   6   8
ATOM      8  C   LIG    1        1.144  -0.686   0.023  0.00  0.00    -0.080 A 
ATOM      9  C   LIG    1       -0.088  -0.062   0.064  0.00  0.00    +0.030 A 
ATOM     10  C   LIG    1       -0.169   1.319   0.107  0.00  0.00    +0.020 A 
ATOM     11  C   LIG    1        0.992   2.074   0.108  0.00  0.00    +0.070 A 
ATOM     12  O   LIG    1        0.927   3.437   0.150  0.00  0.00    -0.320 OA
ATOM     13  C   LIG    1        1.396   4.048   1.353  0.00  0.00    +0.220 C 
ATOM     14  C   LIG    1        2.904   4.232   1.313  0.00  0.00    -0.020 C 
ATOM     15  C   LIG    1        3.649   2.907   1.276  0.00  0.00    +0.220 C 
ATOM     16  O   LIG    1        3.367   2.200   0.066  0.00  0.00    -0.320 OA
ATOM     17  C   LIG    1        2.229   1.447   0.066  0.00  0.00    +0.070 A 
ATOM     18  C   LIG    1        2.306   0.066   0.024  0.00  0.00    +0.030 A 
ENDBRANCH   6   8
BRANCH   1  25
ATOM     19  C   LIG    1       -2.574  -3.514  -7.372  0.00  0.00    +0.160 C 
ATOM     20  C   LIG    1       -3.002  -4.023  -6.019  0.00  0.00    +0.130 A 
ATOM     21  N   LIG    1       -4.025  -4.788  -5.786  0.00  0.00    -0.260 NA
ATOM     22  N   LIG    1       -4.106  -5.052  -4.416  0.00  0.00    -0.340 N 
ATOM     23  C   LIG    1       -3.071  -4.408  -3.798  0.00  0.00    +0.020 A 
ATOM     24  S   LIG    1       -2.333  -4.129  -2.225  0.00  0.00    +0.190 S 
ATOM     25  C   LIG    1       -1.085  -3.121  -2.939  0.00  0.00    -0.270 A 
ATOM     26  C   LIG    1       -1.252  -3.040  -4.267  0.00  0.00    +0.180 A 
ATOM     27  C   LIG    1       -2.350  -3.746  -4.778  0.00  0.00    -0.230 A 
BRANCH  22  28
ATOM     28  C   LIG    1       -5.123  -5.876  -3.758  0.00  0.00    +0.330 C 
BRANCH  28  29
ATOM     29  C   LIG    1       -4.646  -7.329  -3.705  0.00  0.00    -0.040 C 
ATOM     30  C   LIG    1       -4.537  -7.882  -5.127  0.00  0.00    +0.030 C 
ATOM     31  C   LIG    1       -5.649  -8.166  -2.908  0.00  0.00    +0.040 C 
ENDBRANCH  28  29
ENDBRANCH  22  28
ENDBRANCH   1  25
TORSDOF 4
