REMARK  Name = ZINCqH0000031Ew6.0
REMARK                            x       y       z     vdW  Elec       q    Type
REMARK                         _______ _______ _______ _____ _____    ______ ____
ROOT
ATOM      1  C   LIG    1       -1.255   2.103   0.024  0.00  0.00    +0.560 C 
ATOM      2  N   LIG    1       -1.244   3.450   0.030  0.00  0.00    -0.650 N 
ATOM      3  H   LIG    1       -0.404   3.929  -0.046  0.00  0.00    +0.420 HD
ATOM      4  O   LIG    1       -2.313   1.503   0.017  0.00  0.00    -0.520 OA
ENDROOT
BRANCH   1  12
ATOM      5  C   LIG    1        5.868  -1.624   0.125  0.00  0.00    +0.110 C 
ATOM      6  C   LIG    1        4.790  -0.577   0.014  0.00  0.00    +0.520 C 
ATOM      7  N   LIG    1        3.493  -0.944   0.013  0.00  0.00    -0.560 N 
ATOM      8  C   LIG    1        3.013  -2.328   0.008  0.00  0.00    +0.280 C 
ATOM      9  C   LIG    1        1.479  -2.224   0.009  0.00  0.00    +0.110 C 
ATOM     10  C   LIG    1        1.200  -0.737   0.015  0.00  0.00    -0.150 A 
ATOM     11  C   LIG    1        0.011  -0.043   0.019  0.00  0.00    +0.130 A 
ATOM     12  C   LIG    1        0.017   1.354   0.026  0.00  0.00    -0.160 A 
ATOM     13  C   LIG    1        1.235   2.038   0.027  0.00  0.00    +0.080 A 
ATOM     14  C   LIG    1        2.418   1.338   0.023  0.00  0.00    +0.010 A 
ATOM     15  C   LIG    1        2.414  -0.061   0.017  0.00  0.00    +0.180 A 
ATOM     16  O   LIG    1        5.089   0.595  -0.074  0.00  0.00    -0.520 OA
ENDBRANCH   1  12
BRANCH   2  17
ATOM     17  C   LIG    1       -2.442   4.158   0.145  0.00  0.00    +0.170 A 
ATOM     18  C   LIG    1       -3.537   3.576   0.746  0.00  0.00    +0.030 A 
ATOM     19  C   LIG    1       -4.737   4.271   0.868  0.00  0.00    +0.040 A 
ATOM     20  C   LIG    1       -4.862   5.542   0.396  0.00  0.00    +0.010 A 
ATOM     21  C   LIG    1       -3.769   6.169  -0.224  0.00  0.00    -0.090 A 
ATOM     22  C   LIG    1       -3.866   7.482  -0.723  0.00  0.00    +0.090 A 
ATOM     23  C   LIG    1       -2.763   8.030  -1.313  0.00  0.00    -0.030 A 
ATOM     24  C   LIG    1       -1.586   7.292  -1.409  0.00  0.00    +0.160 A 
ATOM     25  N   LIG    1       -1.500   6.069  -0.943  0.00  0.00    -0.480 NA
ATOM     26  C   LIG    1       -0.380   7.914  -2.063  0.00  0.00    +0.130 C 
ATOM     27  C   LIG    1       -2.540   5.477  -0.349  0.00  0.00    +0.110 A 
ENDBRANCH   2  17
TORSDOF 2
