REMARK  Name = ZINCvU000000081s.0
REMARK                            x       y       z     vdW  Elec       q    Type
REMARK                         _______ _______ _______ _____ _____    ______ ____
ROOT
ATOM      1  C   LIG    1       -0.018  -0.416   2.457  0.00  0.00    +0.220 A 
ATOM      2  N   LIG    1        0.253  -1.207   1.458  0.00  0.00    -0.270 NA
ATOM      3  N   LIG    1        0.162  -2.434   1.828  0.00  0.00    -0.290 NA
ATOM      4  C   LIG    1       -0.186  -2.495   3.093  0.00  0.00    +0.160 A 
ATOM      5  N   LIG    1       -0.312  -1.207   3.535  0.00  0.00    -0.420 N 
ENDROOT
BRANCH   5   6
ATOM      6  C   LIG    1       -0.668  -0.785   4.825  0.00  0.00    +0.110 A 
ATOM      7  C   LIG    1        0.245  -0.093   5.607  0.00  0.00    +0.050 A 
ATOM      8  C   LIG    1       -0.109   0.325   6.875  0.00  0.00    +0.050 A 
ATOM      9  C   LIG    1       -1.371   0.046   7.369  0.00  0.00    -0.020 A 
ATOM     10  C   LIG    1       -2.283  -0.649   6.593  0.00  0.00    +0.060 A 
ATOM     11 CL   LIG    1       -1.812   0.567   8.965  0.00  0.00    -0.050 Cl
ATOM     12  C   LIG    1       -1.934  -1.065   5.323  0.00  0.00    +0.060 A 
ENDBRANCH   5   6
BRANCH   1  14
ATOM     13  C   LIG    1        1.427   1.599   2.429  0.00  0.00    +0.030 C 
ATOM     14  C   LIG    1       -0.016   1.091   2.429  0.00  0.00    +0.270 C 
BRANCH  14  15
ATOM     15  N   LIG    1       -0.700   1.560   1.217  0.00  0.00    -0.530 NA
ATOM     16  C   LIG    1       -0.822   3.023   1.213  0.00  0.00    +0.200 C 
ATOM     17  C   LIG    1       -0.013   1.086   0.008  0.00  0.00    +0.210 C 
ENDBRANCH  14  15
ENDBRANCH   1  14
BRANCH   4  18
ATOM     18  S   LIG    1       -0.441  -3.959   4.040  0.00  0.00    +0.030 S 
BRANCH  18  19
ATOM     19  C   LIG    1       -0.091  -5.213   2.782  0.00  0.00    +0.220 C 
BRANCH  19  20
ATOM     20  C   LIG    1       -0.251  -6.585   3.382  0.00  0.00    -0.010 A 
ATOM     21  C   LIG    1        0.714  -7.306   3.982  0.00  0.00    +0.200 A 
ATOM     22  O   LIG    1        0.157  -8.467   4.380  0.00  0.00    -0.190 OA
ATOM     23  C   LIG    1       -1.135  -8.448   4.012  0.00  0.00    +0.240 A 
ATOM     24  N   LIG    1       -1.381  -7.309   3.409  0.00  0.00    -0.450 NA
BRANCH  23  25
ATOM     25  C   LIG    1       -2.116  -9.529   4.247  0.00  0.00    +0.010 A 
ATOM     26  C   LIG    1       -3.436  -9.383   3.819  0.00  0.00    +0.070 A 
ATOM     27  C   LIG    1       -4.346 -10.397   4.036  0.00  0.00    +0.060 A 
ATOM     28  C   LIG    1       -3.956 -11.553   4.688  0.00  0.00    +0.010 A 
ATOM     29  C   LIG    1       -2.648 -11.703   5.121  0.00  0.00    +0.100 A 
ATOM     30  F   LIG    1       -2.274 -12.835   5.756  0.00  0.00    -0.130 F 
ATOM     31  C   LIG    1       -1.727 -10.697   4.904  0.00  0.00    +0.010 A 
ENDBRANCH  23  25
ENDBRANCH  19  20
ENDBRANCH  18  19
ENDBRANCH   4  18
TORSDOF 7
