REMARK  Name = ZINCvU000000060i.0
REMARK                            x       y       z     vdW  Elec       q    Type
REMARK                         _______ _______ _______ _____ _____    ______ ____
ROOT
ATOM      1  N   LIG    1        0.002  -0.004   0.002  0.00  0.00    -0.660 N 
ATOM      2  H   LIG    1        0.845  -0.477  -0.083  0.00  0.00    +0.420 HD
ATOM      3  C   LIG    1       -0.016   1.343   0.011  0.00  0.00    +0.510 C 
ATOM      4  O   LIG    1       -1.075   1.936   0.015  0.00  0.00    -0.500 OA
ENDROOT
BRANCH   1  17
ATOM      5  C   LIG    1       -1.277  -2.020  -0.391  0.00  0.00    +0.090 A 
ATOM      6  C   LIG    1       -2.457  -2.730  -0.282  0.00  0.00    +0.000 A 
ATOM      7  C   LIG    1       -3.561  -2.147   0.335  0.00  0.00    -0.100 A 
ATOM      8  C   LIG    1       -3.482  -0.844   0.845  0.00  0.00    +0.080 A 
ATOM      9  O   LIG    1       -4.679  -0.521   1.385  0.00  0.00    -0.200 OA
ATOM     10  C   LIG    1       -5.564  -1.535   1.269  0.00  0.00    +0.090 A 
ATOM     11  C   LIG    1       -6.890  -1.669   1.665  0.00  0.00    +0.030 A 
ATOM     12  C   LIG    1       -7.571  -2.842   1.415  0.00  0.00    +0.060 A 
ATOM     13  C   LIG    1       -6.946  -3.897   0.769  0.00  0.00    -0.010 A 
ATOM     14  C   LIG    1       -5.632  -3.782   0.367  0.00  0.00    +0.070 A 
ATOM     15  C   LIG    1       -2.289  -0.141   0.734  0.00  0.00    +0.070 A 
ATOM     16  C   LIG    1       -4.935  -2.604   0.615  0.00  0.00    -0.120 A 
ATOM     17  C   LIG    1       -1.196  -0.721   0.115  0.00  0.00    +0.160 A 
BRANCH   5  19
ATOM     18  C   LIG    1       -0.351  -3.916  -1.488  0.00  0.00    +0.250 C 
ATOM     19  O   LIG    1       -0.196  -2.585  -0.993  0.00  0.00    -0.320 OA
ENDBRANCH   5  19
ENDBRANCH   1  17
BRANCH   3  20
ATOM     20  C   LIG    1        1.279   2.115   0.011  0.00  0.00    +0.130 C 
BRANCH  20  21
ATOM     21  C   LIG    1        0.984   3.592   0.023  0.00  0.00    -0.130 A 
ATOM     22  C   LIG    1        0.850   4.272  -1.155  0.00  0.00    -0.000 A 
ATOM     23  C   LIG    1        0.570   5.650  -1.098  0.00  0.00    -0.100 A 
ATOM     24  C   LIG    1        0.415   6.413  -2.266  0.00  0.00    +0.040 A 
ATOM     25  C   LIG    1        0.150   7.745  -2.169  0.00  0.00    +0.010 A 
ATOM     26  C   LIG    1        0.030   8.362  -0.925  0.00  0.00    +0.030 A 
ATOM     27  C   LIG    1        0.174   7.652   0.227  0.00  0.00    +0.040 A 
ATOM     28  C   LIG    1        0.449   6.275   0.168  0.00  0.00    +0.140 A 
ATOM     29  N   LIG    1        0.596   5.552   1.284  0.00  0.00    -0.480 NA
ATOM     30  C   LIG    1        0.994   3.564  -2.478  0.00  0.00    +0.110 C 
ATOM     31  C   LIG    1        0.852   4.268   1.234  0.00  0.00    +0.180 A 
ATOM     32  C   LIG    1        1.008   3.501   2.522  0.00  0.00    +0.120 C 
ENDBRANCH  20  21
ENDBRANCH   3  20
TORSDOF 4
