REMARK  Name = ZINCrH00000tj0sH.0
REMARK                            x       y       z     vdW  Elec       q    Type
REMARK                         _______ _______ _______ _____ _____    ______ ____
ROOT
ATOM      1  C   LIG    1       -4.814   2.354   0.038  0.00  0.00    +0.330 C 
ATOM      2  C   LIG    1       -5.319   1.972  -1.355  0.00  0.00    +0.060 C 
ENDROOT
BRANCH   1  11
ATOM      3  N   LIG    1       -2.564   3.541   0.044  0.00  0.00    -0.480 N 
ATOM      4  C   LIG    1       -1.236   3.164   0.030  0.00  0.00    +0.050 A 
ATOM      5  C   LIG    1       -0.034   3.859   0.022  0.00  0.00    +0.010 A 
ATOM      6  C   LIG    1        1.157   3.163   0.007  0.00  0.00    +0.030 A 
ATOM      7  C   LIG    1        1.161   1.776   0.001  0.00  0.00    +0.000 A 
ATOM      8  C   LIG    1       -0.013   1.076   0.008  0.00  0.00    +0.070 A 
ATOM      9  C   LIG    1       -1.231   1.759   0.017  0.00  0.00    +0.050 A 
ATOM     10  N   LIG    1       -2.529   1.359   0.021  0.00  0.00    -0.480 NA
ATOM     11  C   LIG    1       -3.308   2.402   0.030  0.00  0.00    +0.270 A 
BRANCH   3  12
ATOM     12  C   LIG    1       -3.077   4.913   0.055  0.00  0.00    +0.330 C 
BRANCH  12  14
ATOM     13  C   LIG    1       -4.432   5.845  -1.750  0.00  0.00    +0.060 C 
ATOM     14  C   LIG    1       -3.267   5.390  -1.362  0.00  0.00    -0.070 C 
ENDBRANCH  12  14
ENDBRANCH   3  12
ENDBRANCH   1  11
BRANCH   1  15
ATOM     15  N   LIG    1       -5.266   1.357   1.012  0.00  0.00    -0.710 N 
ATOM     16  H   LIG    1       -4.685   0.620   1.256  0.00  0.00    +0.410 HD
ATOM     17  C   LIG    1       -6.489   1.465   1.567  0.00  0.00    +0.570 C 
ATOM     18  O   LIG    1       -7.217   2.389   1.260  0.00  0.00    -0.540 OA
BRANCH  17  19
ATOM     19  C   LIG    1       -6.945   0.461   2.548  0.00  0.00    -0.140 A 
ATOM     20  C   LIG    1       -6.112  -0.605   2.898  0.00  0.00    +0.050 A 
ATOM     21  C   LIG    1       -6.537  -1.539   3.817  0.00  0.00    -0.040 A 
ATOM     22  C   LIG    1       -7.796  -1.430   4.391  0.00  0.00    +0.130 A 
ATOM     23  C   LIG    1       -8.635  -0.372   4.042  0.00  0.00    +0.090 A 
ATOM     24  C   LIG    1       -8.213   0.570   3.125  0.00  0.00    +0.040 A 
BRANCH  23  25
ATOM     25  O   LIG    1       -9.868  -0.268   4.606  0.00  0.00    -0.300 OA
ATOM     26  C   LIG    1      -10.674   0.841   4.203  0.00  0.00    +0.240 C 
ENDBRANCH  23  25
BRANCH  22  27
ATOM     27  O   LIG    1       -8.212  -2.356   5.293  0.00  0.00    -0.300 OA
ATOM     28  C   LIG    1       -7.303  -3.413   5.604  0.00  0.00    +0.240 C 
ENDBRANCH  22  27
ENDBRANCH  17  19
ENDBRANCH   1  15
TORSDOF 7
