REMARK  Name = ZINCpk00000e1xco.0
REMARK                            x       y       z     vdW  Elec       q    Type
REMARK                         _______ _______ _______ _____ _____    ______ ____
ROOT
ATOM      1  C   LIG    1        2.263   0.156   1.052  0.00  0.00    +0.010 C 
ATOM      2  C   LIG    1        0.880  -0.492   1.159  0.00  0.00    +0.050 C 
ATOM      3  C   LIG    1        0.002  -0.004   0.002  0.00  0.00    +0.300 C 
ATOM      4  N   LIG    1       -0.018   1.465   0.010  0.00  0.00    -1.000 NA
ATOM      5  C   LIG    1        1.261   2.189   0.002  0.00  0.00    +0.300 C 
ATOM      6  C   LIG    1        2.125   1.677   1.158  0.00  0.00    +0.030 C 
ENDROOT
BRANCH   1   9
ATOM      7  N   LIG    1        4.411   0.089   2.277  0.00  0.00    -0.720 N 
ATOM      8  H   LIG    1        4.760   0.728   1.636  0.00  0.00    +0.410 HD
ATOM      9  C   LIG    1        3.140  -0.347   2.169  0.00  0.00    +0.530 C 
ATOM     10  O   LIG    1        2.703  -1.145   2.971  0.00  0.00    -0.530 OA
BRANCH   7  11
ATOM     11  C   LIG    1        5.264  -0.400   3.363  0.00  0.00    +0.280 C 
ATOM     12  C   LIG    1        5.024   0.440   4.619  0.00  0.00    +0.060 C 
BRANCH  11  13
ATOM     13  C   LIG    1        6.710  -0.290   2.954  0.00  0.00    +0.460 C 
ATOM     14  O   LIG    1        6.999   0.152   1.867  0.00  0.00    -0.500 OA
BRANCH  13  16
ATOM     15  C   LIG    1        9.048  -0.547   3.337  0.00  0.00    +0.280 C 
ATOM     16  O   LIG    1        7.678  -0.683   3.797  0.00  0.00    -0.350 OA
ENDBRANCH  13  16
ENDBRANCH  11  13
ENDBRANCH   7  11
ENDBRANCH   1   9
BRANCH   4  17
ATOM     17  S   LIG    1       -1.454   2.289   0.021  0.00  0.00    +2.690 S 
ATOM     18  O   LIG    1       -2.427   1.408  -0.523  0.00  0.00    -0.950 OA
ATOM     19  O   LIG    1       -1.183   3.576  -0.517  0.00  0.00    -0.950 OA
BRANCH  17  20
ATOM     20  C   LIG    1       -1.898   2.540   1.708  0.00  0.00    -0.680 A 
ATOM     21  C   LIG    1       -2.673   1.602   2.365  0.00  0.00    +0.140 A 
ATOM     22  C   LIG    1       -3.018   1.795   3.689  0.00  0.00    +0.020 A 
ATOM     23  C   LIG    1       -2.596   2.933   4.355  0.00  0.00    +0.020 A 
ATOM     24  C   LIG    1       -1.825   3.873   3.695  0.00  0.00    +0.010 A 
ATOM     25 CL   LIG    1       -3.033   3.179   6.016  0.00  0.00    -0.050 Cl
ATOM     26  C   LIG    1       -1.477   3.676   2.372  0.00  0.00    +0.140 A 
ENDBRANCH  17  20
ENDBRANCH   4  17
TORSDOF 6
