REMARK  Name = ZINCpe00000MJJwX.0
REMARK                            x       y       z     vdW  Elec       q    Type
REMARK                         _______ _______ _______ _____ _____    ______ ____
ROOT
ATOM      1  N   LIG    1       -2.712   2.934  -4.516  0.00  0.00    -0.670 N 
ATOM      2  H   LIG    1       -2.524   3.820  -4.865  0.00  0.00    +0.410 HD
ATOM      3  C   LIG    1       -3.628   2.152  -5.121  0.00  0.00    +0.730 C 
ATOM      4  N   LIG    1       -4.206   2.556  -6.270  0.00  0.00    -0.630 N 
ATOM      5  C   LIG    1       -3.935   3.827  -6.968  0.00  0.00    +0.270 C 
ATOM      6  C   LIG    1       -4.322   3.558  -8.449  0.00  0.00    +0.090 C 
ATOM      7  C   LIG    1       -5.539   2.631  -8.280  0.00  0.00    +0.100 C 
ATOM      8  N   LIG    1       -5.750   1.795  -9.459  0.00  0.00    -0.710 N 
ATOM      9  H   LIG    1       -5.125   1.162  -9.845  0.00  0.00    +0.450 HD
ATOM     10  C   LIG    1       -6.992   2.083  -9.901  0.00  0.00    +0.700 C 
ATOM     11  N   LIG    1       -7.602   3.005  -9.145  0.00  0.00    -0.580 N 
ATOM     12  C   LIG    1       -8.956   3.509  -9.391  0.00  0.00    +0.340 C 
ATOM     13  O   LIG    1       -7.500   1.564 -10.877  0.00  0.00    -0.530 OA
ATOM     14  C   LIG    1       -6.813   3.414  -8.126  0.00  0.00    +0.540 C 
ATOM     15  O   LIG    1       -7.075   4.234  -7.273  0.00  0.00    -0.450 OA
ATOM     16  C   LIG    1       -5.217   1.804  -7.033  0.00  0.00    +0.330 C 
ATOM     17  O   LIG    1       -3.933   1.083  -4.630  0.00  0.00    -0.560 OA
ENDROOT
BRANCH   1  21
ATOM     18  C   LIG    1       -0.728   1.578  -1.224  0.00  0.00    +0.300 A 
ATOM     19  N   LIG    1       -1.085   0.717  -2.156  0.00  0.00    -0.490 NA
ATOM     20  C   LIG    1       -1.734   1.116  -3.236  0.00  0.00    +0.330 A 
ATOM     21  C   LIG    1       -2.031   2.469  -3.385  0.00  0.00    +0.050 A 
ATOM     22  C   LIG    1       -1.631   3.345  -2.380  0.00  0.00    +0.300 A 
ATOM     23  N   LIG    1       -0.990   2.866  -1.328  0.00  0.00    -0.490 NA
BRANCH  18  24
ATOM     24  C   LIG    1        0.006   1.077  -0.007  0.00  0.00    +0.130 C 
BRANCH  24  26
ATOM     25  C   LIG    1       -0.268   0.081   2.268  0.00  0.00    +0.030 C 
ATOM     26  C   LIG    1       -1.004   0.706   1.081  0.00  0.00    -0.020 C 
ATOM     27  C   LIG    1       -1.741   1.965   1.543  0.00  0.00    +0.010 C 
ENDBRANCH  24  26
ENDBRANCH  18  24
ENDBRANCH   1  21
TORSDOF 3
