REMARK  Name = ZINCrg000000tTSO.0
REMARK                            x       y       z     vdW  Elec       q    Type
REMARK                         _______ _______ _______ _____ _____    ______ ____
ROOT
ATOM      1  C   LIG    1       -0.742   1.585  -1.213  0.00  0.00    +0.500 C 
ATOM      2  N   LIG    1       -0.288   1.272  -2.443  0.00  0.00    -0.620 N 
ATOM      3  C   LIG    1        0.919   0.450  -2.616  0.00  0.00    +0.280 C 
ATOM      4  C   LIG    1        0.584  -0.702  -3.577  0.00  0.00    +0.200 C 
ATOM      5  N   LIG    1        0.025  -0.150  -4.819  0.00  0.00    -0.490 N 
ATOM      6  C   LIG    1       -1.242   0.551  -4.568  0.00  0.00    +0.190 C 
ATOM      7  C   LIG    1       -0.985   1.749  -3.648  0.00  0.00    +0.300 C 
ATOM      8  O   LIG    1       -1.736   2.268  -1.088  0.00  0.00    -0.500 OA
ENDROOT
BRANCH   5   9
ATOM      9  C   LIG    1       -0.138  -1.150  -5.782  0.00  0.00    +0.080 A 
ATOM     10  C   LIG    1       -0.576  -0.822  -7.058  0.00  0.00    +0.030 A 
ATOM     11  C   LIG    1       -0.730  -1.812  -8.010  0.00  0.00    +0.030 A 
ATOM     12  C   LIG    1       -0.461  -3.129  -7.691  0.00  0.00    +0.020 A 
ATOM     13  C   LIG    1       -0.030  -3.462  -6.419  0.00  0.00    +0.010 A 
ATOM     14  C   LIG    1        0.132  -2.477  -5.463  0.00  0.00    +0.050 A 
ATOM     15  F   LIG    1        0.553  -2.802  -4.221  0.00  0.00    -0.140 F 
ENDBRANCH   5   9
BRANCH   1  16
ATOM     16  C   LIG    1       -0.013   1.086   0.008  0.00  0.00    +0.370 C 
BRANCH  16  26
ATOM     17  O   LIG    1       -1.880   0.514   5.231  0.00  0.00    -0.530 OA
ATOM     18  C   LIG    1       -2.352   1.313   4.445  0.00  0.00    +0.610 C 
ATOM     19  N   LIG    1       -3.498   1.996   4.700  0.00  0.00    -0.730 N 
ATOM     20  H   LIG    1       -3.858   2.030   5.600  0.00  0.00    +0.400 HD
ATOM     21  C   LIG    1       -4.179   2.674   3.610  0.00  0.00    +0.260 C 
ATOM     22  C   LIG    1       -3.689   4.099   3.363  0.00  0.00    +0.030 C 
ATOM     23  C   LIG    1       -2.154   4.134   3.396  0.00  0.00    +0.140 C 
ATOM     24  C   LIG    1       -1.611   2.941   2.657  0.00  0.00    +0.110 A 
ATOM     25  N   LIG    1       -0.997   2.895   1.515  0.00  0.00    -0.250 NA
ATOM     26  N   LIG    1       -0.698   1.558   1.213  0.00  0.00    -0.360 N 
ATOM     27  C   LIG    1       -1.153   0.781   2.216  0.00  0.00    +0.310 A 
ATOM     28  C   LIG    1       -1.717   1.612   3.139  0.00  0.00    -0.300 A 
ENDBRANCH  16  26
ENDBRANCH   1  16
TORSDOF 3
