REMARK  Name = ZINCpe000000SVR2.0
REMARK                            x       y       z     vdW  Elec       q    Type
REMARK                         _______ _______ _______ _____ _____    ______ ____
ROOT
ATOM      1  C   LIG    1        0.002  -0.004   0.002  0.00  0.00    +0.600 C 
ATOM      2  N   LIG    1       -0.021   1.342  -0.055  0.00  0.00    -0.600 N 
ATOM      3  C   LIG    1       -1.298   2.066  -0.141  0.00  0.00    +0.260 C 
ATOM      4  C   LIG    1       -1.255   3.008  -1.343  0.00  0.00    +0.030 C 
ATOM      5  C   LIG    1       -0.025   3.913  -1.236  0.00  0.00    +0.060 C 
ATOM      6  C   LIG    1        1.243   3.056  -1.246  0.00  0.00    +0.130 C 
ATOM      7  C   LIG    1        1.228   2.114  -0.038  0.00  0.00    +0.250 C 
ATOM      8  O   LIG    1        1.063  -0.596  -0.045  0.00  0.00    -0.550 OA
ENDROOT
BRANCH   1  11
ATOM      9  N   LIG    1       -2.762  -2.352  -0.026  0.00  0.00    -0.350 N 
ATOM     10  C   LIG    1       -1.494  -2.039  -0.338  0.00  0.00    +0.320 A 
ATOM     11  C   LIG    1       -1.259  -0.759   0.121  0.00  0.00    -0.290 A 
ATOM     12  C   LIG    1       -2.454  -0.305   0.722  0.00  0.00    +0.260 A 
ATOM     13  N   LIG    1       -3.340  -1.259   0.629  0.00  0.00    -0.290 NA
BRANCH   9  14
ATOM     14  C   LIG    1       -3.429  -3.621  -0.327  0.00  0.00    +0.320 C 
BRANCH  14  16
ATOM     15  C   LIG    1       -4.800  -5.476   0.633  0.00  0.00    +0.030 C 
ATOM     16  C   LIG    1       -3.997  -4.216   0.963  0.00  0.00    -0.020 C 
ATOM     17  C   LIG    1       -2.848  -4.577   1.907  0.00  0.00    +0.020 C 
ENDBRANCH  14  16
ENDBRANCH   9  14
ENDBRANCH   1  11
BRANCH   6  18
ATOM     18  O   LIG    1        1.289   2.287  -2.450  0.00  0.00    -0.540 OA
ATOM     19  H   LIG    1        2.067   1.717  -2.523  0.00  0.00    +0.380 HD
ENDBRANCH   6  18
BRANCH   6  20
ATOM     20  C   LIG    1        2.473   3.962  -1.172  0.00  0.00    +0.140 C 
BRANCH  20  21
ATOM     21  C   LIG    1        3.721   3.118  -1.179  0.00  0.00    +0.160 A 
ATOM     22  N   LIG    1        4.389   2.733  -2.232  0.00  0.00    -0.280 NA
ATOM     23  N   LIG    1        5.400   2.026  -1.870  0.00  0.00    -0.290 NA
ATOM     24  C   LIG    1        5.423   1.927  -0.568  0.00  0.00    +0.380 A 
ATOM     25  N   LIG    1        4.361   2.621  -0.093  0.00  0.00    -0.470 N 
ATOM     26  C   LIG    1        3.980   2.797   1.311  0.00  0.00    +0.340 C 
ENDBRANCH  20  21
ENDBRANCH   6  20
TORSDOF 6
