REMARK  Name = ZINCrD00000F5LI3.0
REMARK                            x       y       z     vdW  Elec       q    Type
REMARK                         _______ _______ _______ _____ _____    ______ ____
ROOT
ATOM      1  C   LIG    1       -2.959   4.036   1.466  0.00  0.00    +0.410 C 
ATOM      2  O   LIG    1       -2.096   4.273   2.286  0.00  0.00    -0.430 OA
ENDROOT
BRANCH   1   4
ATOM      3  C   LIG    1       -4.661   4.365   3.119  0.00  0.00    +0.160 C 
ATOM      4  C   LIG    1       -4.320   4.070   1.844  0.00  0.00    -0.110 C 
BRANCH   3   8
ATOM      5  C   LIG    1       -8.751   4.466   4.254  0.00  0.00    -0.120 A 
ATOM      6  C   LIG    1       -7.758   4.738   5.198  0.00  0.00    +0.080 A 
ATOM      7  C   LIG    1       -6.432   4.706   4.831  0.00  0.00    +0.050 A 
ATOM      8  C   LIG    1       -6.078   4.400   3.512  0.00  0.00    -0.070 A 
ATOM      9  C   LIG    1       -7.075   4.133   2.566  0.00  0.00    +0.040 A 
ATOM     10  C   LIG    1       -8.400   4.161   2.937  0.00  0.00    +0.040 A 
BRANCH   5  14
ATOM     11  C   LIG    1      -12.546   4.275   4.131  0.00  0.00    +0.290 C 
ATOM     12  N   LIG    1      -11.135   4.240   3.739  0.00  0.00    -0.730 N 
ATOM     13  H   LIG    1      -10.890   4.027   2.825  0.00  0.00    +0.400 HD
ATOM     14  C   LIG    1      -10.176   4.502   4.650  0.00  0.00    +0.550 C 
ATOM     15  O   LIG    1      -10.482   4.768   5.795  0.00  0.00    -0.530 OA
ENDBRANCH   5  14
ENDBRANCH   3   8
ENDBRANCH   1   4
BRANCH   1  16
ATOM     16  C   LIG    1       -2.580   3.707   0.045  0.00  0.00    +0.180 C 
BRANCH  16  17
ATOM     17  C   LIG    1       -1.234   3.029   0.029  0.00  0.00    +0.160 A 
ATOM     18  C   LIG    1       -0.084   3.795   0.022  0.00  0.00    +0.010 A 
ATOM     19  C   LIG    1        1.150   3.161   0.008  0.00  0.00    +0.140 A 
ATOM     20  C   LIG    1        1.180   1.775   0.000  0.00  0.00    -0.230 A 
ATOM     21  C   LIG    1       -0.013   1.076   0.008  0.00  0.00    +0.340 A 
ATOM     22  N   LIG    1       -1.167   1.712   0.017  0.00  0.00    -0.460 NA
BRANCH  20  23
ATOM     23  C   LIG    1        2.495   1.040  -0.016  0.00  0.00    +0.520 C 
ATOM     24  F   LIG    1        3.235   1.383   1.121  0.00  0.00    -0.170 F 
ATOM     25  F   LIG    1        3.213   1.395  -1.163  0.00  0.00    -0.170 F 
ATOM     26  F   LIG    1        2.259  -0.339  -0.021  0.00  0.00    -0.170 F 
ENDBRANCH  20  23
ENDBRANCH  16  17
BRANCH  16  27
ATOM     27  C   LIG    1       -2.514   4.947  -0.745  0.00  0.00    +0.210 C 
ATOM     28  N   LIG    1       -2.463   5.904  -1.355  0.00  0.00    -0.380 NA
ENDBRANCH  16  27
ENDBRANCH   1  16
TORSDOF 7
