REMARK  Name = ZINCqH0000004dnp.0
REMARK                            x       y       z     vdW  Elec       q    Type
REMARK                         _______ _______ _______ _____ _____    ______ ____
ROOT
ATOM      1  C   LIG    1       -3.707  -6.567  -6.258  0.00  0.00    +0.520 C 
ATOM      2  N   LIG    1       -3.482  -5.285  -5.906  0.00  0.00    -0.610 N 
ATOM      3  C   LIG    1       -3.284  -4.251  -6.931  0.00  0.00    +0.290 C 
ATOM      4  C   LIG    1       -1.971  -3.518  -6.644  0.00  0.00    +0.010 C 
ATOM      5  C   LIG    1       -1.992  -2.985  -5.209  0.00  0.00    +0.240 C 
ATOM      6  C   LIG    1       -2.115  -4.155  -4.231  0.00  0.00    +0.000 C 
ATOM      7  C   LIG    1       -3.430  -4.896  -4.490  0.00  0.00    +0.280 C 
ATOM      8  O   LIG    1       -3.840  -6.860  -7.427  0.00  0.00    -0.530 OA
ENDROOT
BRANCH   5   9
ATOM      9  N   LIG    1       -0.750  -2.254  -4.942  0.00  0.00    -0.730 N 
ATOM     10  H   LIG    1        0.052  -2.459  -5.447  0.00  0.00    +0.400 HD
ATOM     11  C   LIG    1       -0.723  -1.296  -3.994  0.00  0.00    +0.510 C 
ATOM     12  O   LIG    1       -1.726  -1.040  -3.362  0.00  0.00    -0.530 OA
BRANCH  11  13
ATOM     13  C   LIG    1        0.554  -0.544  -3.719  0.00  0.00    +0.040 C 
BRANCH  13  14
ATOM     14  C   LIG    1        0.314   0.478  -2.606  0.00  0.00    +0.040 C 
ATOM     15  C   LIG    1       -0.682   1.534  -3.090  0.00  0.00    +0.020 C 
BRANCH  14  16
ATOM     16  C   LIG    1        1.637   1.154  -2.241  0.00  0.00    -0.050 C 
ATOM     17  C   LIG    1        2.770   0.260  -1.732  0.00  0.00    +0.000 C 
ATOM     18  C   LIG    1        2.031   1.184  -0.762  0.00  0.00    +0.000 C 
ENDBRANCH  14  16
ENDBRANCH  13  14
ENDBRANCH  11  13
ENDBRANCH   5   9
BRANCH   1  19
ATOM     19  C   LIG    1       -3.794  -7.635  -5.198  0.00  0.00    +0.030 C 
BRANCH  19  20
ATOM     20  C   LIG    1       -3.444  -8.971  -5.801  0.00  0.00    -0.070 A 
ATOM     21  C   LIG    1       -4.198  -9.478  -6.843  0.00  0.00    +0.040 A 
ATOM     22  C   LIG    1       -3.875 -10.701  -7.399  0.00  0.00    +0.000 A 
ATOM     23  C   LIG    1       -2.802 -11.421  -6.908  0.00  0.00    +0.000 A 
ATOM     24  C   LIG    1       -2.050 -10.917  -5.864  0.00  0.00    +0.000 A 
ATOM     25  C   LIG    1       -2.372  -9.691  -5.310  0.00  0.00    +0.010 A 
ENDBRANCH  19  20
BRANCH  19  27
ATOM     26  C   LIG    1       -5.274  -8.676  -3.475  0.00  0.00    +0.030 C 
ATOM     27  C   LIG    1       -5.218  -7.685  -4.640  0.00  0.00    +0.030 C 
ENDBRANCH  19  27
ENDBRANCH   1  19
TORSDOF 7
