REMARK  Name = ZINCrH000004ocYX.0
REMARK                            x       y       z     vdW  Elec       q    Type
REMARK                         _______ _______ _______ _____ _____    ______ ____
ROOT
ATOM      1  C   LIG    1        0.003  -0.006  -0.004  0.00  0.00    +0.200 A 
ATOM      2  C   LIG    1        1.206  -0.673  -0.199  0.00  0.00    -0.020 A 
ATOM      3  C   LIG    1        2.394   0.032  -0.212  0.00  0.00    +0.070 A 
ATOM      4  C   LIG    1        2.389   1.402  -0.032  0.00  0.00    -0.090 A 
ATOM      5  C   LIG    1        1.190   2.074   0.163  0.00  0.00    +0.150 A 
ATOM      6  C   LIG    1       -0.004   1.370   0.177  0.00  0.00    -0.050 A 
ENDROOT
BRANCH   1  10
ATOM      7  N   LIG    1       -2.364  -2.704   0.411  0.00  0.00    -0.740 N 
ATOM      8  H   LIG    1       -3.155  -2.323  -0.000  0.00  0.00    +0.400 HD
ATOM      9  C   LIG    1       -1.232  -1.977   0.496  0.00  0.00    +0.710 C 
ATOM     10  N   LIG    1       -1.200  -0.721   0.009  0.00  0.00    -0.680 N 
ATOM     11  H   LIG    1       -2.010  -0.312  -0.332  0.00  0.00    +0.410 HD
ATOM     12  O   LIG    1       -0.240  -2.455   1.012  0.00  0.00    -0.560 OA
BRANCH   7  14
ATOM     13  C   LIG    1       -2.711  -4.029   2.438  0.00  0.00    +0.040 C 
ATOM     14  C   LIG    1       -2.399  -4.070   0.940  0.00  0.00    +0.250 C 
BRANCH  14  15
ATOM     15  C   LIG    1       -3.482  -4.870   0.215  0.00  0.00    +0.310 C 
BRANCH  15  16
ATOM     16  N   LIG    1       -3.122  -5.011  -1.198  0.00  0.00    -0.460 N 
ATOM     17  C   LIG    1       -3.463  -4.158  -2.212  0.00  0.00    +0.110 A 
ATOM     18  C   LIG    1       -2.926  -4.660  -3.341  0.00  0.00    +0.140 A 
ATOM     19  N   LIG    1       -2.283  -5.794  -3.026  0.00  0.00    -0.490 NA
ATOM     20  C   LIG    1       -2.396  -6.011  -1.744  0.00  0.00    +0.380 A 
ENDBRANCH  15  16
ENDBRANCH  14  15
ENDBRANCH   7  14
ENDBRANCH   1  10
BRANCH   5  21
ATOM     21  O   LIG    1        1.186   3.421   0.340  0.00  0.00    -0.310 OA
BRANCH  21  22
ATOM     22  C   LIG    1        2.453   4.082   0.313  0.00  0.00    +0.210 C 
BRANCH  22  23
ATOM     23  C   LIG    1        2.249   5.584   0.528  0.00  0.00    +0.080 C 
BRANCH  23  24
ATOM     24  C   LIG    1        3.585   6.281   0.500  0.00  0.00    -0.090 A 
ATOM     25  C   LIG    1        4.300   6.451   1.671  0.00  0.00    +0.010 A 
ATOM     26  C   LIG    1        5.528   7.086   1.644  0.00  0.00    +0.000 A 
ATOM     27  C   LIG    1        6.035   7.561   0.449  0.00  0.00    +0.000 A 
ATOM     28  C   LIG    1        5.317   7.395  -0.721  0.00  0.00    +0.000 A 
ATOM     29  C   LIG    1        4.092   6.755  -0.695  0.00  0.00    +0.010 A 
ENDBRANCH  23  24
ENDBRANCH  22  23
ENDBRANCH  21  22
ENDBRANCH   5  21
TORSDOF 8
