REMARK  Name = ZINCrD00000hQ4kh.0
REMARK                            x       y       z     vdW  Elec       q    Type
REMARK                         _______ _______ _______ _____ _____    ______ ____
ROOT
ATOM      1  C   LIG    1        1.346   4.294   0.005  0.00  0.00    +0.210 C 
ATOM      2  C   LIG    1        0.790   4.656   1.384  0.00  0.00    +0.110 C 
ENDROOT
BRANCH   1   3
ATOM      3  C   LIG    1        2.144   3.020   0.104  0.00  0.00    +0.550 C 
ATOM      4  N   LIG    1        1.513   1.829   0.113  0.00  0.00    -0.600 N 
ATOM      5  C   LIG    1        0.054   1.528   0.036  0.00  0.00    +0.280 C 
ATOM      6  C   LIG    1        0.116  -0.037   0.098  0.00  0.00    +0.000 C 
ATOM      7  C   LIG    1        1.178  -0.393   1.183  0.00  0.00    +0.070 C 
ATOM      8  C   LIG    1        1.293  -0.345  -0.864  0.00  0.00    +0.050 C 
ATOM      9  C   LIG    1        2.088   0.448   0.203  0.00  0.00    +0.070 C 
ATOM     10  O   LIG    1        3.354   3.066   0.176  0.00  0.00    -0.510 OA
BRANCH   9  11
ATOM     11  C   LIG    1        3.609   0.307   0.283  0.00  0.00    +0.420 C 
ATOM     12  F   LIG    1        4.179   0.708  -0.931  0.00  0.00    -0.190 F 
ATOM     13  F   LIG    1        3.942  -1.028   0.536  0.00  0.00    -0.200 F 
ENDBRANCH   9  11
ENDBRANCH   1   3
BRANCH   1  14
ATOM     14  C   LIG    1        2.235   5.407  -0.486  0.00  0.00    -0.090 A 
ATOM     15  C   LIG    1        1.835   6.193  -1.550  0.00  0.00    +0.060 A 
ATOM     16  C   LIG    1        2.648   7.217  -1.998  0.00  0.00    +0.010 A 
ATOM     17  C   LIG    1        3.867   7.448  -1.388  0.00  0.00    +0.080 A 
ATOM     18  C   LIG    1        4.270   6.658  -0.328  0.00  0.00    -0.190 A 
ATOM     19  C   LIG    1        3.454   5.638   0.123  0.00  0.00    +0.110 A 
BRANCH  18  20
ATOM     20  C   LIG    1        5.600   6.909   0.337  0.00  0.00    +0.510 C 
ATOM     21  F   LIG    1        5.525   6.541   1.684  0.00  0.00    -0.180 F 
ATOM     22  F   LIG    1        5.919   8.268   0.242  0.00  0.00    -0.180 F 
ATOM     23  F   LIG    1        6.589   6.153  -0.300  0.00  0.00    -0.170 F 
ENDBRANCH  18  20
ENDBRANCH   1  14
BRANCH   1  26
ATOM     24  C   LIG    1       -0.652   3.582  -3.182  0.00  0.00    +0.100 C 
ATOM     25  C   LIG    1        0.489   3.777  -2.216  0.00  0.00    +0.500 C 
ATOM     26  N   LIG    1        0.237   4.104  -0.933  0.00  0.00    -0.730 N 
ATOM     27  H   LIG    1       -0.678   4.214  -0.631  0.00  0.00    +0.410 HD
ATOM     28  O   LIG    1        1.633   3.640  -2.594  0.00  0.00    -0.510 OA
ENDBRANCH   1  26
TORSDOF 5
