REMARK  Name = ZINCrg00000b46NF.0
REMARK                            x       y       z     vdW  Elec       q    Type
REMARK                         _______ _______ _______ _____ _____    ______ ____
ROOT
ATOM      1  N   LIG    1       -6.002   6.823  -1.984  0.00  0.00    -0.530 NA
ATOM      2  C   LIG    1       -4.903   6.402  -2.863  0.00  0.00    +0.170 C 
ATOM      3  C   LIG    1       -4.663   4.898  -2.691  0.00  0.00    +0.300 C 
ATOM      4  N   LIG    1       -4.459   4.617  -1.262  0.00  0.00    -0.610 N 
ATOM      5  C   LIG    1       -5.455   5.123  -0.305  0.00  0.00    +0.290 C 
ATOM      6  C   LIG    1       -3.391   3.911  -0.842  0.00  0.00    +0.510 C 
ATOM      7  O   LIG    1       -2.583   3.497  -1.646  0.00  0.00    -0.520 OA
ATOM      8  C   LIG    1       -5.660   6.623  -0.569  0.00  0.00    +0.170 C 
ENDROOT
BRANCH   1   9
ATOM      9  C   LIG    1       -6.378   8.219  -2.242  0.00  0.00    +0.210 C 
BRANCH   9  10
ATOM     10  C   LIG    1       -7.185   8.298  -3.539  0.00  0.00    +0.200 C 
BRANCH  10  11
ATOM     11  O   LIG    1       -8.415   7.590  -3.379  0.00  0.00    -0.300 OA
BRANCH  11  15
ATOM     12  C   LIG    1      -10.968   7.508  -6.622  0.00  0.00    +0.090 A 
ATOM     13  C   LIG    1      -11.322   6.866  -5.445  0.00  0.00    +0.030 A 
ATOM     14  C   LIG    1      -10.468   6.893  -4.360  0.00  0.00    +0.030 A 
ATOM     15  C   LIG    1       -9.256   7.563  -4.447  0.00  0.00    +0.100 A 
ATOM     16  C   LIG    1       -8.905   8.210  -5.623  0.00  0.00    -0.040 A 
ATOM     17  C   LIG    1       -9.757   8.178  -6.710  0.00  0.00    -0.040 A 
BRANCH  12  19
ATOM     18  C   LIG    1      -11.381   8.165  -8.870  0.00  0.00    +0.230 C 
ATOM     19  O   LIG    1      -11.809   7.482  -7.690  0.00  0.00    -0.320 OA
ENDBRANCH  12  19
ENDBRANCH  11  15
ENDBRANCH  10  11
ENDBRANCH   9  10
ENDBRANCH   1   9
BRANCH   6  20
ATOM     20  C   LIG    1       -3.201   3.635   0.628  0.00  0.00    +0.320 C 
BRANCH  20  21
ATOM     21  N   LIG    1       -1.977   2.855   0.824  0.00  0.00    -0.480 N 
ATOM     22  C   LIG    1       -0.797   3.498   1.022  0.00  0.00    +0.300 A 
ATOM     23  C   LIG    1        0.348   2.799   1.206  0.00  0.00    -0.080 A 
ATOM     24  C   LIG    1        0.322   1.398   1.193  0.00  0.00    +0.120 A 
ATOM     25  C   LIG    1       -0.864   0.754   0.994  0.00  0.00    -0.090 A 
ATOM     26  C   LIG    1       -2.033   1.510   0.802  0.00  0.00    +0.520 A 
ATOM     27  O   LIG    1       -3.100   0.947   0.618  0.00  0.00    -0.550 OA
ENDBRANCH  20  21
ENDBRANCH   6  20
TORSDOF 7
