REMARK  Name = ZINCqH0000005hRB.0
REMARK                            x       y       z     vdW  Elec       q    Type
REMARK                         _______ _______ _______ _____ _____    ______ ____
ROOT
ATOM      1  C   LIG    1       -2.499   2.949   2.007  0.00  0.00    +0.020 A 
ATOM      2  N   LIG    1       -1.604   2.879   2.974  0.00  0.00    -0.250 NA
ATOM      3  N   LIG    1       -0.440   2.649   2.482  0.00  0.00    -0.220 N 
ATOM      4  C   LIG    1       -0.514   2.554   1.128  0.00  0.00    -0.010 A 
ATOM      5  C   LIG    1        0.317   2.318  -0.114  0.00  0.00    +0.130 C 
ATOM      6  C   LIG    1       -0.563   2.808  -1.286  0.00  0.00    +0.060 C 
ATOM      7  C   LIG    1       -1.986   2.649  -0.707  0.00  0.00    +0.110 C 
ATOM      8  C   LIG    1       -1.811   2.739   0.790  0.00  0.00    -0.150 A 
ENDROOT
BRANCH   3   9
ATOM      9  C   LIG    1        0.737   2.517   3.231  0.00  0.00    +0.120 A 
ATOM     10  C   LIG    1        1.718   1.619   2.832  0.00  0.00    +0.050 A 
ATOM     11  C   LIG    1        2.879   1.493   3.569  0.00  0.00    +0.020 A 
ATOM     12  C   LIG    1        3.061   2.255   4.711  0.00  0.00    +0.110 A 
ATOM     13  C   LIG    1        2.082   3.147   5.114  0.00  0.00    +0.020 A 
ATOM     14  F   LIG    1        4.195   2.126   5.434  0.00  0.00    -0.130 F 
ATOM     15  C   LIG    1        0.921   3.280   4.377  0.00  0.00    +0.080 A 
ENDBRANCH   3   9
BRANCH   1  18
ATOM     16  C   LIG    1       -3.624   3.183   4.582  0.00  0.00    +0.290 C 
ATOM     17  N   LIG    1       -4.484   3.281   3.399  0.00  0.00    -0.600 N 
ATOM     18  C   LIG    1       -3.946   3.199   2.166  0.00  0.00    +0.600 C 
ATOM     19  O   LIG    1       -4.651   3.331   1.185  0.00  0.00    -0.520 OA
BRANCH  17  20
ATOM     20  C   LIG    1       -5.928   3.468   3.557  0.00  0.00    +0.350 C 
BRANCH  20  21
ATOM     21  C   LIG    1       -6.605   2.123   3.626  0.00  0.00    -0.110 A 
ATOM     22  C   LIG    1       -7.050   1.514   2.468  0.00  0.00    +0.030 A 
ATOM     23  C   LIG    1       -7.666   0.278   2.530  0.00  0.00    +0.000 A 
ATOM     24  C   LIG    1       -7.846  -0.344   3.752  0.00  0.00    +0.000 A 
ATOM     25  C   LIG    1       -7.406   0.269   4.910  0.00  0.00    +0.000 A 
ATOM     26  C   LIG    1       -6.785   1.502   4.848  0.00  0.00    +0.010 A 
ENDBRANCH  20  21
ENDBRANCH  17  20
ENDBRANCH   1  18
TORSDOF 4
