REMARK  Name = ZINCpe000000Ul8O.0
REMARK                            x       y       z     vdW  Elec       q    Type
REMARK                         _______ _______ _______ _____ _____    ______ ____
ROOT
ATOM      1  N   LIG    1        2.384   3.725  -0.002  0.00  0.00    -0.460 N 
ATOM      2  C   LIG    1        2.463   4.654  -1.138  0.00  0.00    +0.240 C 
ATOM      3  C   LIG    1        3.779   5.433  -1.066  0.00  0.00    +0.230 C 
ATOM      4  N   LIG    1        4.905   4.489  -1.082  0.00  0.00    -0.480 N 
ATOM      5  C   LIG    1        4.826   3.560   0.054  0.00  0.00    +0.230 C 
ATOM      6  C   LIG    1        3.511   2.781  -0.017  0.00  0.00    +0.230 C 
ENDROOT
BRANCH   1  11
ATOM      7  N   LIG    1       -2.250   3.939   0.043  0.00  0.00    -0.370 N 
ATOM      8  N   LIG    1       -1.647   5.205   0.043  0.00  0.00    +0.000 NA
ATOM      9  N   LIG    1       -0.366   5.068   0.031  0.00  0.00    -0.180 NA
ATOM     10  C   LIG    1       -0.042   3.764   0.022  0.00  0.00    -0.130 A 
ATOM     11  C   LIG    1        1.176   3.054   0.007  0.00  0.00    +0.470 A 
ATOM     12  N   LIG    1        1.137   1.727   0.001  0.00  0.00    -0.570 NA
ATOM     13  C   LIG    1       -0.013   1.076   0.008  0.00  0.00    +0.600 A 
ATOM     14  N   LIG    1       -1.174   1.693   0.017  0.00  0.00    -0.540 NA
ATOM     15  C   LIG    1       -1.236   3.022   0.029  0.00  0.00    +0.320 A 
BRANCH   7  17
ATOM     16  C   LIG    1       -4.174   3.549   1.501  0.00  0.00    +0.050 C 
ATOM     17  C   LIG    1       -3.687   3.654   0.055  0.00  0.00    +0.350 C 
ENDBRANCH   7  17
ENDBRANCH   1  11
BRANCH   4  18
ATOM     18  C   LIG    1        6.120   5.164  -1.091  0.00  0.00    +0.320 A 
ATOM     19  C   LIG    1        6.386   6.092  -2.095  0.00  0.00    -0.010 A 
ATOM     20  C   LIG    1        7.597   6.761  -2.097  0.00  0.00    +0.100 A 
ATOM     21  C   LIG    1        8.511   6.481  -1.092  0.00  0.00    +0.010 A 
ATOM     22  C   LIG    1        8.184   5.541  -0.117  0.00  0.00    +0.220 A 
ATOM     23  N   LIG    1        7.009   4.921  -0.143  0.00  0.00    -0.490 NA
BRANCH  22  24
ATOM     24  C   LIG    1        9.120   5.245   0.925  0.00  0.00    +0.260 C 
ATOM     25  N   LIG    1        9.863   5.010   1.752  0.00  0.00    -0.380 NA
ENDBRANCH  22  24
ENDBRANCH   4  18
TORSDOF 4
