REMARK  Name = ZINCpe00000gN4u5.0
REMARK                            x       y       z     vdW  Elec       q    Type
REMARK                         _______ _______ _______ _____ _____    ______ ____
ROOT
ATOM      1  N   LIG    1       -2.194   1.294  -3.604  0.00  0.00    -0.480 N 
ATOM      2  C   LIG    1       -0.784   1.709  -3.626  0.00  0.00    +0.230 C 
ATOM      3  C   LIG    1       -0.062   1.117  -2.413  0.00  0.00    +0.200 C 
ATOM      4  N   LIG    1       -0.723   1.572  -1.182  0.00  0.00    -0.520 NA
ATOM      5  C   LIG    1       -2.133   1.158  -1.160  0.00  0.00    +0.190 C 
ATOM      6  C   LIG    1       -2.855   1.750  -2.373  0.00  0.00    +0.220 C 
ENDROOT
BRANCH   1  10
ATOM      7  C   LIG    1       -4.168   2.667  -6.947  0.00  0.00    -0.190 A 
ATOM      8  C   LIG    1       -4.883   1.916  -6.003  0.00  0.00    +0.190 A 
ATOM      9  C   LIG    1       -4.215   1.454  -4.888  0.00  0.00    -0.110 A 
ATOM     10  C   LIG    1       -2.864   1.753  -4.726  0.00  0.00    +0.400 A 
ATOM     11  N   LIG    1       -2.208   2.465  -5.632  0.00  0.00    -0.580 NA
ATOM     12  C   LIG    1       -2.805   2.924  -6.720  0.00  0.00    +0.480 A 
BRANCH  12  13
ATOM     13  N   LIG    1       -2.082   3.663  -7.640  0.00  0.00    -0.840 N 
ATOM     14  H   LIG    1       -2.516   4.002  -8.438  0.00  0.00    +0.410 HD
ATOM     15  H   LIG    1       -1.141   3.843  -7.486  0.00  0.00    +0.410 HD
ENDBRANCH  12  13
BRANCH   7  17
ATOM     16  N   LIG    1       -5.330   3.557  -9.057  0.00  0.00    -0.430 NA
ATOM     17  C   LIG    1       -4.816   3.163  -8.124  0.00  0.00    +0.260 C 
ENDBRANCH   7  17
ENDBRANCH   1  10
BRANCH   4  18
ATOM     18  C   LIG    1       -0.013   1.086   0.008  0.00  0.00    +0.190 C 
BRANCH  18  19
ATOM     19  C   LIG    1       -0.718   1.572   1.248  0.00  0.00    -0.090 A 
ATOM     20  C   LIG    1       -1.223   2.858   1.297  0.00  0.00    +0.040 A 
ATOM     21  C   LIG    1       -1.874   3.302   2.432  0.00  0.00    +0.000 A 
ATOM     22  C   LIG    1       -2.011   2.464   3.523  0.00  0.00    +0.010 A 
ATOM     23  C   LIG    1       -1.502   1.180   3.476  0.00  0.00    +0.000 A 
ATOM     24  C   LIG    1       -0.855   0.734   2.339  0.00  0.00    +0.010 A 
ENDBRANCH  18  19
BRANCH  18  25
ATOM     25  C   LIG    1        1.401   1.607  -0.003  0.00  0.00    +0.530 C 
ATOM     26  O   LIG    1        1.780   2.315  -0.912  0.00  0.00    -0.520 OA
ATOM     27  N   LIG    1        2.245   1.288   0.998  0.00  0.00    -0.850 N 
ATOM     28  H   LIG    1        3.155   1.623   0.992  0.00  0.00    +0.410 HD
ATOM     29  H   LIG    1        1.942   0.722   1.726  0.00  0.00    +0.400 HD
ENDBRANCH  18  25
ENDBRANCH   4  18
TORSDOF 6
