REMARK  Name = ZINCqH0000034t5I.0
REMARK                            x       y       z     vdW  Elec       q    Type
REMARK                         _______ _______ _______ _____ _____    ______ ____
ROOT
ATOM      1  C   LIG    1        2.510   5.508   0.108  0.00  0.00    +0.310 C 
ATOM      2  N   LIG    1        1.262   6.275   0.124  0.00  0.00    -0.590 N 
ATOM      3  C   LIG    1        0.098   5.674  -0.194  0.00  0.00    +0.560 C 
ATOM      4  O   LIG    1       -0.930   6.321  -0.230  0.00  0.00    -0.510 OA
ENDROOT
BRANCH   3   5
ATOM      5  C   LIG    1        0.072   4.224  -0.498  0.00  0.00    +0.120 A 
ATOM      6  N   LIG    1        1.213   3.551  -0.578  0.00  0.00    -0.430 NA
ATOM      7  C   LIG    1        1.241   2.265  -0.844  0.00  0.00    +0.330 A 
ATOM      8  C   LIG    1        0.056   1.553  -1.056  0.00  0.00    -0.040 A 
ATOM      9  C   LIG    1       -1.166   2.230  -0.985  0.00  0.00    +0.140 A 
ATOM     10  C   LIG    1       -1.152   3.584  -0.696  0.00  0.00    -0.040 A 
ATOM     11 CL   LIG    1       -2.638   4.476  -0.588  0.00  0.00    +0.000 Cl
BRANCH   8  12
ATOM     12  C   LIG    1        0.094   0.151  -1.347  0.00  0.00    +0.250 C 
ATOM     13  N   LIG    1        0.123  -0.961  -1.578  0.00  0.00    -0.380 NA
ENDBRANCH   8  12
ENDBRANCH   3   5
BRANCH   2  14
ATOM     14  C   LIG    1        1.279   7.695   0.484  0.00  0.00    +0.250 C 
ATOM     15  C   LIG    1        1.833   7.857   1.903  0.00  0.00    -0.010 C 
ATOM     16  C   LIG    1        1.920   9.348   2.240  0.00  0.00    +0.230 C 
ATOM     17  O   LIG    1        2.744  10.006   1.276  0.00  0.00    -0.370 OA
ATOM     18  C   LIG    1        2.250   9.928  -0.063  0.00  0.00    +0.210 C 
ATOM     19  C   LIG    1        2.174   8.461  -0.495  0.00  0.00    +0.010 C 
BRANCH  18  20
ATOM     20  C   LIG    1        3.179  10.676  -0.985  0.00  0.00    -0.100 A 
ATOM     21  C   LIG    1        4.547  10.594  -0.804  0.00  0.00    +0.080 A 
ATOM     22  C   LIG    1        5.399  11.274  -1.652  0.00  0.00    -0.020 A 
ATOM     23  C   LIG    1        4.882  12.048  -2.678  0.00  0.00    +0.100 A 
ATOM     24  C   LIG    1        3.511  12.134  -2.855  0.00  0.00    -0.010 A 
ATOM     25  F   LIG    1        5.714  12.718  -3.504  0.00  0.00    -0.140 F 
ATOM     26  C   LIG    1        2.661  11.448  -2.008  0.00  0.00    +0.050 A 
ENDBRANCH  18  20
ENDBRANCH   2  14
TORSDOF 4
