REMARK  Name = ZINCpe000000WyYz.2
REMARK                            x       y       z     vdW  Elec       q    Type
REMARK                         _______ _______ _______ _____ _____    ______ ____
ROOT
ATOM      1  C   LIG    1        0.295   7.394   1.514  0.00  0.00    +0.210 C 
ENDROOT
BRANCH   1   9
ATOM      2  C   LIG    1        1.933  11.939  -0.351  0.00  0.00    +0.130 A 
ATOM      3  C   LIG    1        2.792  12.310  -1.376  0.00  0.00    -0.080 A 
ATOM      4  C   LIG    1        3.327  11.348  -2.212  0.00  0.00    +0.040 A 
ATOM      5  C   LIG    1        3.008  10.014  -2.029  0.00  0.00    -0.030 A 
ATOM      6  C   LIG    1        2.152   9.647  -1.006  0.00  0.00    -0.040 A 
ATOM      7  C   LIG    1        1.802   8.187  -0.805  0.00  0.00    +0.040 C 
ATOM      8  C   LIG    1        2.455   7.712   0.497  0.00  0.00    +0.250 C 
ATOM      9  N   LIG    1        1.616   8.024   1.642  0.00  0.00    -0.540 NA
ATOM     10  C   LIG    1        1.491   9.429   1.996  0.00  0.00    +0.240 C 
ATOM     11  C   LIG    1        0.679  10.187   0.940  0.00  0.00    +0.050 C 
ATOM     12  C   LIG    1        1.618  10.599  -0.175  0.00  0.00    -0.110 A 
BRANCH   2  14
ATOM     13  C   LIG    1        1.775  14.239   0.228  0.00  0.00    +0.250 C 
ATOM     14  O   LIG    1        1.404  12.881   0.473  0.00  0.00    -0.310 OA
ENDBRANCH   2  14
ENDBRANCH   1   9
BRANCH   1  15
ATOM     15  C   LIG    1        0.410   5.922   1.814  0.00  0.00    +0.520 C 
ATOM     16  N   LIG    1       -0.683   5.135   1.758  0.00  0.00    -0.620 N 
ATOM     17  C   LIG    1       -1.994   5.699   1.406  0.00  0.00    +0.260 C 
ATOM     18  C   LIG    1       -2.579   4.895   0.240  0.00  0.00    +0.010 C 
ATOM     19  C   LIG    1       -2.613   3.412   0.615  0.00  0.00    +0.050 C 
ATOM     20  C   LIG    1       -1.188   2.917   0.876  0.00  0.00    -0.020 C 
ATOM     21  C   LIG    1       -0.587   3.698   2.049  0.00  0.00    +0.290 C 
ATOM     22  O   LIG    1        1.486   5.444   2.107  0.00  0.00    -0.520 OA
BRANCH  20  23
ATOM     23  C   LIG    1       -1.220   1.448   1.213  0.00  0.00    +0.520 C 
ATOM     24  O   LIG    1       -2.277   0.855   1.240  0.00  0.00    -0.540 OA
ATOM     25  N   LIG    1       -0.073   0.795   1.486  0.00  0.00    -0.850 N 
ATOM     26  H   LIG    1        0.773   1.269   1.461  0.00  0.00    +0.400 HD
ATOM     27  H   LIG    1       -0.093  -0.150   1.703  0.00  0.00    +0.400 HD
ENDBRANCH  20  23
ENDBRANCH   1  15
TORSDOF 4
