REMARK  Name = ZINCtV000002pxa8.0
REMARK                            x       y       z     vdW  Elec       q    Type
REMARK                         _______ _______ _______ _____ _____    ______ ____
ROOT
ATOM      1  C   LIG    1       -0.056   4.243   0.024  0.00  0.00    -0.070 A 
ATOM      2  C   LIG    1        1.154   3.571   0.010  0.00  0.00    +0.050 A 
ATOM      3  C   LIG    1        1.179   2.191   0.003  0.00  0.00    +0.060 A 
ATOM      4  C   LIG    1       -0.018   1.474   0.010  0.00  0.00    -0.020 A 
ATOM      5  C   LIG    1       -1.234   2.159   0.020  0.00  0.00    +0.080 A 
ATOM      6  C   LIG    1       -1.246   3.538   0.031  0.00  0.00    +0.040 A 
ENDROOT
BRANCH   4   7
ATOM      7  C   LIG    1        0.002  -0.004   0.002  0.00  0.00    +0.230 A 
ATOM      8  N   LIG    1       -1.047  -0.804   0.008  0.00  0.00    -0.460 NA
ATOM      9  C   LIG    1       -0.545  -2.057  -0.004  0.00  0.00    +0.250 A 
ATOM     10  N   LIG    1        0.760  -1.955  -0.017  0.00  0.00    -0.350 NA
ATOM     11  O   LIG    1        1.091  -0.789  -0.018  0.00  0.00    +0.100 OA
BRANCH   9  12
ATOM     12  C   LIG    1       -1.328  -3.317  -0.004  0.00  0.00    +0.040 A 
ATOM     13  C   LIG    1       -2.680  -3.424   0.007  0.00  0.00    +0.230 A 
ATOM     14  O   LIG    1       -2.970  -4.738   0.002  0.00  0.00    -0.190 OA
ATOM     15  C   LIG    1       -1.817  -5.420  -0.012  0.00  0.00    +0.220 A 
ATOM     16  N   LIG    1       -0.825  -4.578  -0.022  0.00  0.00    -0.460 NA
BRANCH  15  17
ATOM     17  C   LIG    1       -1.689  -6.921  -0.022  0.00  0.00    +0.110 C 
ATOM     18  C   LIG    1       -2.759  -7.625  -0.874  0.00  0.00    +0.040 C 
ATOM     19  C   LIG    1       -2.829  -8.688   0.234  0.00  0.00    +0.030 C 
ATOM     20  C   LIG    1       -2.327  -7.602   1.200  0.00  0.00    +0.040 C 
ENDBRANCH  15  17
ENDBRANCH   9  12
ENDBRANCH   4   7
BRANCH   1  21
ATOM     21  C   LIG    1       -0.076   5.750   0.031  0.00  0.00    +0.260 C 
BRANCH  21  22
ATOM     22  O   LIG    1       -0.095   6.232  -1.314  0.00  0.00    -0.300 OA
BRANCH  22  27
ATOM     23 BR   LIG    1       -0.184  12.201  -2.073  0.00  0.00    -0.050 Br
ATOM     24  C   LIG    1       -0.156  10.325  -1.835  0.00  0.00    -0.130 A 
ATOM     25  C   LIG    1       -0.154   9.488  -2.936  0.00  0.00    +0.090 A 
ATOM     26  C   LIG    1       -0.134   8.118  -2.764  0.00  0.00    +0.000 A 
ATOM     27  C   LIG    1       -0.115   7.581  -1.485  0.00  0.00    +0.150 A 
ATOM     28  C   LIG    1       -0.122   8.421  -0.382  0.00  0.00    -0.060 A 
ATOM     29  C   LIG    1       -0.137   9.791  -0.558  0.00  0.00    +0.090 A 
ENDBRANCH  22  27
ENDBRANCH  21  22
ENDBRANCH   1  21
TORSDOF 6
