REMARK  Name = ZINCrH00000No4NJ.0
REMARK                            x       y       z     vdW  Elec       q    Type
REMARK                         _______ _______ _______ _____ _____    ______ ____
ROOT
ATOM      1  N   LIG    1        0.939   2.627   3.545  0.00  0.00    -0.570 N 
ENDROOT
BRANCH   1   2
ATOM      2  C   LIG    1        2.231   3.126   3.493  0.00  0.00    +0.360 A 
ATOM      3  N   LIG    1        3.304   2.456   3.779  0.00  0.00    -0.540 NA
ATOM      4  C   LIG    1        4.464   3.102   3.667  0.00  0.00    +0.150 A 
ATOM      5  C   LIG    1        4.372   4.385   3.277  0.00  0.00    -0.110 A 
ATOM      6  S   LIG    1        2.669   4.768   3.035  0.00  0.00    +0.060 S 
BRANCH   4   7
ATOM      7  C   LIG    1        5.765   2.453   3.958  0.00  0.00    -0.020 A 
ATOM      8  C   LIG    1        5.816   1.094   4.264  0.00  0.00    +0.040 A 
ATOM      9  C   LIG    1        7.031   0.494   4.529  0.00  0.00    +0.000 A 
ATOM     10  C   LIG    1        8.194   1.241   4.503  0.00  0.00    +0.010 A 
ATOM     11  C   LIG    1        8.149   2.591   4.205  0.00  0.00    +0.010 A 
ATOM     12  C   LIG    1        6.941   3.201   3.934  0.00  0.00    +0.020 A 
ENDBRANCH   4   7
ENDBRANCH   1   2
BRANCH   1  13
ATOM     13  C   LIG    1        0.713   1.208   3.827  0.00  0.00    +0.430 C 
BRANCH  13  17
ATOM     14  C   LIG    1        2.153  -1.568  -0.086  0.00  0.00    +0.370 C 
ATOM     15  N   LIG    1        1.352  -0.770   0.845  0.00  0.00    -0.290 N 
ATOM     16  C   LIG    1        1.796  -0.209   1.994  0.00  0.00    +0.170 A 
ATOM     17  C   LIG    1        0.734   0.429   2.537  0.00  0.00    -0.050 A 
ATOM     18  N   LIG    1       -0.293   0.238   1.701  0.00  0.00    -0.260 NA
ATOM     19  N   LIG    1        0.106  -0.476   0.708  0.00  0.00    -0.090 NA
ENDBRANCH  13  17
ENDBRANCH   1  13
BRANCH   1  20
ATOM     20  C   LIG    1       -0.200   3.520   3.318  0.00  0.00    +0.300 C 
BRANCH  20  21
ATOM     21  C   LIG    1       -0.752   3.995   4.663  0.00  0.00    -0.030 C 
ATOM     22  C   LIG    1       -2.029   4.822   4.413  0.00  0.00    +0.030 C 
ATOM     23  C   LIG    1       -2.396   5.680   5.631  0.00  0.00    +0.000 C 
ATOM     24  C   LIG    1       -2.189   4.920   6.920  0.00  0.00    +0.220 C 
ATOM     25  O   LIG    1       -0.880   5.246   7.407  0.00  0.00    -0.380 OA
ATOM     26  C   LIG    1        0.181   4.554   6.904  0.00  0.00    +0.200 C 
ATOM     27  C   LIG    1        0.320   4.779   5.381  0.00  0.00    -0.010 C 
ENDBRANCH  20  21
ENDBRANCH   1  20
TORSDOF 6
