REMARK  Name = ZINCtV00000QQenE.0
REMARK                            x       y       z     vdW  Elec       q    Type
REMARK                         _______ _______ _______ _____ _____    ______ ____
ROOT
ATOM      1  C   LIG    1        1.285   3.407   0.017  0.00  0.00    +0.150 C 
ATOM      2  C   LIG    1        1.153   1.906   0.013  0.00  0.00    +0.110 A 
ATOM      3  C   LIG    1        2.208   1.089   0.002  0.00  0.00    -0.240 A 
ATOM      4  S   LIG    1        1.615  -0.570  -0.001  0.00  0.00    +0.140 S 
ATOM      5  C   LIG    1        0.002  -0.004   0.014  0.00  0.00    +0.270 A 
ATOM      6  N   LIG    1       -0.016   1.292   0.019  0.00  0.00    -0.470 NA
ENDROOT
BRANCH   5   7
ATOM      7  N   LIG    1       -1.126  -0.815   0.019  0.00  0.00    -0.620 N 
ATOM      8  H   LIG    1       -1.029  -1.780   0.015  0.00  0.00    +0.430 HD
ATOM      9  C   LIG    1       -2.354  -0.261   0.031  0.00  0.00    +0.580 C 
ATOM     10  O   LIG    1       -2.477   0.945   0.130  0.00  0.00    -0.460 OA
BRANCH   9  11
ATOM     11  C   LIG    1       -3.546  -1.114  -0.077  0.00  0.00    +0.020 A 
ATOM     12  C   LIG    1       -3.543  -2.473  -0.096  0.00  0.00    +0.030 A 
ATOM     13  C   LIG    1       -4.887  -2.906  -0.208  0.00  0.00    -0.110 A 
ATOM     14  C   LIG    1       -5.489  -4.169  -0.272  0.00  0.00    +0.090 A 
ATOM     15  C   LIG    1       -6.845  -4.271  -0.386  0.00  0.00    +0.000 A 
ATOM     16  C   LIG    1       -7.638  -3.131  -0.439  0.00  0.00    +0.090 A 
ATOM     17  C   LIG    1       -7.070  -1.877  -0.379  0.00  0.00    -0.100 A 
ATOM     18 BR   LIG    1       -8.163  -0.336  -0.453  0.00  0.00    -0.050 Br
ATOM     19  C   LIG    1       -5.688  -1.748  -0.262  0.00  0.00    +0.130 A 
ATOM     20  N   LIG    1       -4.848  -0.663  -0.181  0.00  0.00    -0.440 N 
ATOM     21  C   LIG    1       -5.264   0.742  -0.201  0.00  0.00    +0.330 C 
ENDBRANCH   9  11
ENDBRANCH   5   7
BRANCH   3  22
ATOM     22  C   LIG    1        3.654   1.512  -0.007  0.00  0.00    +0.200 C 
BRANCH  22  23
ATOM     23  C   LIG    1        4.146   1.648   1.411  0.00  0.00    -0.110 A 
ATOM     24  C   LIG    1        4.890   0.634   1.984  0.00  0.00    +0.070 A 
ATOM     25  C   LIG    1        5.342   0.758   3.285  0.00  0.00    +0.020 A 
ATOM     26  C   LIG    1        5.051   1.898   4.013  0.00  0.00    -0.010 A 
ATOM     27  C   LIG    1        4.306   2.913   3.441  0.00  0.00    +0.000 A 
ATOM     28 CL   LIG    1        5.619   2.052   5.647  0.00  0.00    -0.050 Cl
ATOM     29  C   LIG    1        3.858   2.791   2.137  0.00  0.00    +0.120 A 
ATOM     30  F   LIG    1        3.136   3.785   1.575  0.00  0.00    -0.120 F 
ENDBRANCH  22  23
ENDBRANCH   3  22
TORSDOF 4
