REMARK  Name = ZINCkj000005jl7z.0
REMARK                            x       y       z     vdW  Elec       q    Type
REMARK                         _______ _______ _______ _____ _____    ______ ____
ROOT
ATOM      1  C   LIG    1       -3.341   3.398  -2.808  0.00  0.00    +0.080 C 
ATOM      2  C   LIG    1       -2.078   3.873  -3.529  0.00  0.00    +0.050 C 
ATOM      3  C   LIG    1       -4.484   4.377  -3.083  0.00  0.00    +0.070 C 
ENDROOT
BRANCH   1   7
ATOM      4  C   LIG    1       -4.711   0.711  -6.697  0.00  0.00    +0.070 C 
ATOM      5  C   LIG    1       -4.461   0.702  -5.188  0.00  0.00    +0.160 C 
ATOM      6  C   LIG    1       -4.024   2.097  -4.734  0.00  0.00    +0.180 C 
ATOM      7  N   LIG    1       -3.712   2.063  -3.298  0.00  0.00    -0.540 NA
ATOM      8  C   LIG    1       -2.649   1.087  -3.018  0.00  0.00    +0.150 C 
ATOM      9  C   LIG    1       -3.100  -0.299  -3.489  0.00  0.00    +0.200 C 
ATOM     10  C   LIG    1       -4.331  -0.734  -2.691  0.00  0.00    +0.020 C 
ATOM     11  O   LIG    1       -3.429  -0.240  -4.880  0.00  0.00    -0.370 OA
ENDBRANCH   1   7
BRANCH   1  12
ATOM     12  C   LIG    1       -3.076   3.334  -1.303  0.00  0.00    +0.280 C 
BRANCH  12  13
ATOM     13  N   LIG    1       -4.244   2.758  -0.624  0.00  0.00    -0.510 N 
ATOM     14  H   LIG    1       -5.033   3.378  -0.728  0.00  0.00    +0.420 HD
ATOM     15  H   LIG    1       -4.463   1.862  -1.033  0.00  0.00    +0.440 HD
BRANCH  13  16
ATOM     16  C   LIG    1       -3.944   2.584   0.804  0.00  0.00    +0.370 C 
BRANCH  16  17
ATOM     17  C   LIG    1       -5.142   1.993   1.500  0.00  0.00    -0.130 A 
ATOM     18  C   LIG    1       -5.364   0.688   1.749  0.00  0.00    +0.230 A 
ATOM     19  N   LIG    1       -6.542   0.580   2.380  0.00  0.00    -0.490 NA
ATOM     20  C   LIG    1       -7.059   1.769   2.532  0.00  0.00    +0.460 A 
ATOM     21  N   LIG    1       -6.218   2.679   1.997  0.00  0.00    -0.460 N 
ATOM     22  C   LIG    1       -6.418   4.130   1.956  0.00  0.00    +0.340 C 
ENDBRANCH  16  17
ENDBRANCH  13  16
ENDBRANCH  12  13
ENDBRANCH   1  12
TORSDOF 5
