REMARK  Name = ZINCrD000006fiMP.0
REMARK                            x       y       z     vdW  Elec       q    Type
REMARK                         _______ _______ _______ _____ _____    ______ ____
ROOT
ATOM      1  C   LIG    1       -0.837  -0.410   4.409  0.00  0.00    +0.570 C 
ATOM      2  N   LIG    1       -1.033   0.187   3.216  0.00  0.00    -0.550 N 
ATOM      3  C   LIG    1       -0.018   0.949   2.484  0.00  0.00    +0.290 C 
ATOM      4  C   LIG    1       -0.718   1.422   1.200  0.00  0.00    +0.040 C 
ATOM      5  C   LIG    1       -2.123   0.873   1.309  0.00  0.00    -0.150 A 
ATOM      6  C   LIG    1       -3.199   0.975   0.457  0.00  0.00    +0.130 A 
ATOM      7  C   LIG    1       -4.414   0.369   0.789  0.00  0.00    -0.150 A 
ATOM      8  C   LIG    1       -4.525  -0.339   1.990  0.00  0.00    +0.120 A 
ATOM      9  C   LIG    1       -3.446  -0.436   2.834  0.00  0.00    +0.000 A 
ATOM     10  C   LIG    1       -0.015   0.850  -0.034  0.00  0.00    +0.060 C 
ATOM     11  C   LIG    1       -2.229   0.170   2.503  0.00  0.00    +0.190 A 
ATOM     12  O   LIG    1       -1.770  -0.935   4.986  0.00  0.00    -0.510 OA
ENDROOT
BRANCH   1  16
ATOM     13  C   LIG    1        3.036  -0.460   6.149  0.00  0.00    +0.180 A 
ATOM     14  C   LIG    1        2.007  -1.200   6.724  0.00  0.00    +0.020 A 
ATOM     15  C   LIG    1        0.751  -1.186   6.162  0.00  0.00    +0.110 A 
ATOM     16  C   LIG    1        0.508  -0.427   5.013  0.00  0.00    -0.160 A 
ATOM     17  C   LIG    1        1.546   0.311   4.436  0.00  0.00    +0.060 A 
ATOM     18  C   LIG    1        2.799   0.297   5.005  0.00  0.00    -0.010 A 
BRANCH  13  20
ATOM     19  C   LIG    1        4.774  -1.603   7.292  0.00  0.00    +0.540 C 
ATOM     20  N   LIG    1        4.307  -0.476   6.720  0.00  0.00    -0.670 N 
ATOM     21  H   LIG    1        4.856   0.324   6.706  0.00  0.00    +0.420 HD
ATOM     22  O   LIG    1        4.057  -2.581   7.384  0.00  0.00    -0.520 OA
BRANCH  19  24
ATOM     23  C   LIG    1        6.613  -2.763   8.370  0.00  0.00    +0.160 C 
ATOM     24  C   LIG    1        6.152  -1.651   7.805  0.00  0.00    -0.090 C 
ENDBRANCH  19  24
ENDBRANCH  13  20
ENDBRANCH   1  16
BRANCH   7  25
ATOM     25  C   LIG    1       -5.570   0.475  -0.120  0.00  0.00    +0.510 C 
ATOM     26  O   LIG    1       -5.469   1.091  -1.162  0.00  0.00    -0.510 OA
BRANCH  25  27
ATOM     27  O   LIG    1       -6.739  -0.112   0.205  0.00  0.00    -0.360 OA
ATOM     28  C   LIG    1       -7.834   0.034  -0.738  0.00  0.00    +0.260 C 
ENDBRANCH  25  27
ENDBRANCH   7  25
TORSDOF 5
