REMARK  Name = ZINCpk00000eb0CC.0
REMARK                            x       y       z     vdW  Elec       q    Type
REMARK                         _______ _______ _______ _____ _____    ______ ____
ROOT
ATOM      1  C   LIG    1        5.837  -0.596  -1.460  0.00  0.00    +0.530 C 
ATOM      2  O   LIG    1        6.683  -0.717  -0.595  0.00  0.00    -0.520 OA
ENDROOT
BRANCH   1   3
ATOM      3  C   LIG    1        5.932  -1.383  -2.694  0.00  0.00    -0.180 A 
ATOM      4  C   LIG    1        6.987  -2.264  -2.887  0.00  0.00    +0.220 A 
ATOM      5  C   LIG    1        7.040  -3.002  -4.071  0.00  0.00    -0.050 A 
ATOM      6  C   LIG    1        6.087  -2.866  -5.014  0.00  0.00    +0.340 A 
ATOM      7  N   LIG    1        5.019  -2.024  -4.874  0.00  0.00    -0.510 N 
ATOM      8  C   LIG    1        4.039  -2.032  -5.964  0.00  0.00    +0.340 C 
ATOM      9  C   LIG    1        3.474  -0.627  -6.190  0.00  0.00    -0.390 C 
ATOM     10  S   LIG    1        2.748  -0.080  -4.613  0.00  0.00    +2.550 S 
ATOM     11  N   LIG    1        3.969  -0.363  -3.533  0.00  0.00    -0.930 NA
ATOM     12  O   LIG    1        1.703  -0.953  -4.209  0.00  0.00    -0.950 OA
ATOM     13  O   LIG    1        2.578   1.331  -4.598  0.00  0.00    -0.930 OA
ATOM     14  C   LIG    1        4.908  -1.246  -3.755  0.00  0.00    +0.520 A 
ENDBRANCH   1   3
BRANCH   1  15
ATOM     15  O   LIG    1        4.810   0.261  -1.285  0.00  0.00    -0.300 OA
BRANCH  15  16
ATOM     16  C   LIG    1        4.780   1.007  -0.039  0.00  0.00    +0.230 C 
BRANCH  16  17
ATOM     17  C   LIG    1        3.553   1.921  -0.022  0.00  0.00    +0.230 C 
BRANCH  17  18
ATOM     18  O   LIG    1        2.366   1.125  -0.015  0.00  0.00    -0.310 OA
BRANCH  18  23
ATOM     19  C   LIG    1       -2.553   3.867   0.046  0.00  0.00    +0.080 C 
ATOM     20  C   LIG    1       -1.237   3.133   0.030  0.00  0.00    -0.130 A 
ATOM     21  C   LIG    1       -1.218   1.751   0.017  0.00  0.00    +0.050 A 
ATOM     22  C   LIG    1       -0.013   1.076   0.008  0.00  0.00    -0.020 A 
ATOM     23  C   LIG    1        1.179   1.786   0.000  0.00  0.00    +0.130 A 
ATOM     24  C   LIG    1        1.157   3.174   0.008  0.00  0.00    -0.080 A 
ATOM     25  C   LIG    1       -0.051   3.844   0.023  0.00  0.00    +0.040 A 
ENDBRANCH  18  23
ENDBRANCH  17  18
ENDBRANCH  16  17
ENDBRANCH  15  16
ENDBRANCH   1  15
TORSDOF 6
