REMARK  Name = ZINCrD00000hQ7cG.0
REMARK                            x       y       z     vdW  Elec       q    Type
REMARK                         _______ _______ _______ _____ _____    ______ ____
ROOT
ATOM      1  N   LIG    1        2.556  -2.736   0.887  0.00  0.00    -0.600 N 
ATOM      2  C   LIG    1        3.896  -2.624   0.979  0.00  0.00    +0.510 C 
ATOM      3  O   LIG    1        4.480  -3.085   1.937  0.00  0.00    -0.500 OA
ENDROOT
BRANCH   1   4
ATOM      4  C   LIG    1        1.839  -2.082  -0.210  0.00  0.00    +0.270 C 
ATOM      5  C   LIG    1        0.332  -2.208   0.019  0.00  0.00    +0.070 C 
BRANCH   4   6
ATOM      6  C   LIG    1        2.206  -2.743  -1.514  0.00  0.00    -0.110 A 
ATOM      7  C   LIG    1        2.484  -4.097  -1.546  0.00  0.00    +0.050 A 
ATOM      8  C   LIG    1        2.821  -4.711  -2.739  0.00  0.00    +0.040 A 
ATOM      9  C   LIG    1        2.881  -3.967  -3.904  0.00  0.00    +0.080 A 
ATOM     10  O   LIG    1        3.208  -4.555  -5.086  0.00  0.00    -0.300 OA
ATOM     11  C   LIG    1        2.594  -4.021  -6.262  0.00  0.00    +0.300 C 
ATOM     12  C   LIG    1        2.683  -2.516  -6.241  0.00  0.00    +0.490 C 
ATOM     13  N   LIG    1        2.670  -1.859  -5.059  0.00  0.00    -0.660 N 
ATOM     14  H   LIG    1        2.706  -0.890  -5.032  0.00  0.00    +0.420 HD
ATOM     15  O   LIG    1        2.770  -1.897  -7.280  0.00  0.00    -0.510 OA
ATOM     16  C   LIG    1        2.600  -2.602  -3.872  0.00  0.00    +0.100 A 
ATOM     17  C   LIG    1        2.263  -1.993  -2.675  0.00  0.00    +0.030 A 
ENDBRANCH   4   6
ENDBRANCH   1   4
BRANCH   2  18
ATOM     18  C   LIG    1        4.669  -1.925  -0.110  0.00  0.00    +0.170 C 
ATOM     19 CL   LIG    1        6.433  -2.016   0.253  0.00  0.00    -0.130 Cl
ENDBRANCH   2  18
BRANCH   1  20
ATOM     20  C   LIG    1        1.817  -3.512   1.886  0.00  0.00    +0.350 C 
BRANCH  20  25
ATOM     21  C   LIG    1        2.949  -7.096   1.498  0.00  0.00    +0.130 A 
ATOM     22  C   LIG    1        1.879  -7.649   0.810  0.00  0.00    -0.070 A 
ATOM     23  C   LIG    1        0.794  -6.862   0.474  0.00  0.00    +0.050 A 
ATOM     24  C   LIG    1        0.773  -5.526   0.827  0.00  0.00    -0.020 A 
ATOM     25  C   LIG    1        1.841  -4.971   1.508  0.00  0.00    -0.080 A 
ATOM     26  C   LIG    1        2.927  -5.753   1.846  0.00  0.00    +0.010 A 
BRANCH  21  28
ATOM     27  C   LIG    1        3.971  -9.242   1.439  0.00  0.00    +0.250 C 
ATOM     28  O   LIG    1        4.017  -7.868   1.830  0.00  0.00    -0.310 OA
ENDBRANCH  21  28
ENDBRANCH  20  25
ENDBRANCH   1  20
TORSDOF 6
