REMARK  Name = ZINCqH0000005NFV.0
REMARK                            x       y       z     vdW  Elec       q    Type
REMARK                         _______ _______ _______ _____ _____    ______ ____
ROOT
ATOM      1  C   LIG    1       -0.863   2.643   4.720  0.00  0.00    +0.590 C 
ATOM      2  N   LIG    1        0.384   2.598   5.230  0.00  0.00    -0.720 N 
ATOM      3  H   LIG    1        1.126   2.312   4.674  0.00  0.00    +0.390 HD
ATOM      4  O   LIG    1       -1.793   3.002   5.417  0.00  0.00    -0.520 OA
ENDROOT
BRANCH   1   9
ATOM      5  C   LIG    1       -2.072   1.828   1.360  0.00  0.00    -0.210 A 
ATOM      6  C   LIG    1       -0.718   1.572   1.248  0.00  0.00    +0.120 A 
ATOM      7  N   LIG    1       -0.138   1.835   2.429  0.00  0.00    -0.520 N 
ATOM      8  H   LIG    1        0.808   1.743   2.623  0.00  0.00    +0.420 HD
ATOM      9  C   LIG    1       -1.098   2.258   3.322  0.00  0.00    -0.060 A 
ATOM     10  C   LIG    1       -0.013   1.086   0.008  0.00  0.00    +0.160 C 
ATOM     11  C   LIG    1       -2.304   2.259   2.687  0.00  0.00    -0.020 A 
ATOM     12  C   LIG    1       -3.631   2.651   3.283  0.00  0.00    +0.130 C 
BRANCH   5  13
ATOM     13  C   LIG    1       -3.083   1.677   0.300  0.00  0.00    +0.550 C 
ATOM     14  O   LIG    1       -3.664   0.619   0.160  0.00  0.00    -0.500 OA
BRANCH  13  16
ATOM     15  C   LIG    1       -4.370   2.492  -1.538  0.00  0.00    +0.250 C 
ATOM     16  O   LIG    1       -3.363   2.713  -0.515  0.00  0.00    -0.350 OA
ENDBRANCH  13  16
ENDBRANCH   5  13
ENDBRANCH   1   9
BRANCH   2  17
ATOM     17  C   LIG    1        0.619   2.982   6.624  0.00  0.00    +0.240 C 
ATOM     18  C   LIG    1        0.361   1.780   7.535  0.00  0.00    +0.020 C 
BRANCH  17  19
ATOM     19  C   LIG    1        2.068   3.444   6.788  0.00  0.00    -0.060 C 
ATOM     20  C   LIG    1        2.326   4.646   5.878  0.00  0.00    +0.020 C 
ATOM     21  C   LIG    1        3.776   5.109   6.043  0.00  0.00    -0.020 C 
ATOM     22  C   LIG    1        4.721   3.968   5.661  0.00  0.00    +0.010 C 
ATOM     23  C   LIG    1        4.463   2.766   6.572  0.00  0.00    -0.020 C 
ATOM     24  C   LIG    1        4.708   3.167   8.028  0.00  0.00    +0.010 C 
ATOM     25  C   LIG    1        3.763   4.307   8.409  0.00  0.00    -0.020 C 
ATOM     26  C   LIG    1        4.021   5.510   7.499  0.00  0.00    +0.010 C 
ATOM     27  C   LIG    1        3.014   2.303   6.407  0.00  0.00    +0.020 C 
ATOM     28  C   LIG    1        2.313   3.845   8.245  0.00  0.00    +0.040 C 
ENDBRANCH  17  19
ENDBRANCH   2  17
TORSDOF 5
