REMARK  Name = ZINCpk00000e9kYa.0
REMARK                            x       y       z     vdW  Elec       q    Type
REMARK                         _______ _______ _______ _____ _____    ______ ____
ROOT
ATOM      1  C   LIG    1       -1.704   5.908  -1.885  0.00  0.00    +0.550 C 
ATOM      2  O   LIG    1       -2.287   6.739  -2.555  0.00  0.00    -0.490 OA
ENDROOT
BRANCH   1   3
ATOM      3  C   LIG    1       -0.803   6.334  -0.811  0.00  0.00    -0.090 A 
ATOM      4  C   LIG    1       -0.517   7.619  -0.441  0.00  0.00    +0.290 A 
ATOM      5  N   LIG    1        0.350   7.569   0.570  0.00  0.00    -0.490 NA
ATOM      6  C   LIG    1        0.620   6.322   0.860  0.00  0.00    +0.460 A 
ATOM      7  N   LIG    1       -0.073   5.516   0.033  0.00  0.00    -0.390 N 
BRANCH   7   8
ATOM      8  C   LIG    1       -0.054   4.114   0.025  0.00  0.00    +0.080 A 
ATOM      9  C   LIG    1        1.157   3.436   0.010  0.00  0.00    +0.060 A 
ATOM     10  C   LIG    1        1.174   2.055   0.002  0.00  0.00    +0.010 A 
ATOM     11  C   LIG    1       -0.016   1.347   0.009  0.00  0.00    +0.110 A 
ATOM     12  C   LIG    1       -1.225   2.022   0.019  0.00  0.00    +0.040 A 
ATOM     13  F   LIG    1        0.002  -0.004   0.002  0.00  0.00    -0.130 F 
ATOM     14  C   LIG    1       -1.246   3.403   0.032  0.00  0.00    +0.100 A 
ENDBRANCH   7   8
ENDBRANCH   1   3
BRANCH   1  15
ATOM     15  O   LIG    1       -1.888   4.594  -2.130  0.00  0.00    -0.320 OA
BRANCH  15  16
ATOM     16  C   LIG    1       -2.795   4.246  -3.209  0.00  0.00    +0.190 C 
ATOM     17  C   LIG    1       -2.013   4.143  -4.520  0.00  0.00    +0.070 C 
BRANCH  16  23
ATOM     18  N   LIG    1       -5.804   0.682  -4.375  0.00  0.00    -0.740 N 
ATOM     19  H   LIG    1       -6.022   1.156  -5.193  0.00  0.00    +0.400 HD
ATOM     20  C   LIG    1       -4.917   1.209  -3.507  0.00  0.00    +0.700 C 
ATOM     21  N   LIG    1       -4.334   2.394  -3.776  0.00  0.00    -0.690 N 
ATOM     22  H   LIG    1       -4.552   2.868  -4.594  0.00  0.00    +0.410 HD
ATOM     23  C   LIG    1       -3.447   2.921  -2.908  0.00  0.00    +0.520 C 
ATOM     24  O   LIG    1       -3.175   2.329  -1.886  0.00  0.00    -0.440 OA
ATOM     25  O   LIG    1       -4.644   0.616  -2.482  0.00  0.00    -0.530 OA
BRANCH  18  27
ATOM     26  C   LIG    1       -7.394  -0.973  -5.219  0.00  0.00    +0.030 C 
ATOM     27  C   LIG    1       -6.438  -0.606  -4.083  0.00  0.00    +0.270 C 
ENDBRANCH  18  27
ENDBRANCH  16  23
ENDBRANCH  15  16
ENDBRANCH   1  15
TORSDOF 6
