REMARK  Name = ZINCrg00000zyzqD.1
REMARK                            x       y       z     vdW  Elec       q    Type
REMARK                         _______ _______ _______ _____ _____    ______ ____
ROOT
ATOM      1  C   LIG    1        2.477   1.071  -0.123  0.00  0.00    +0.280 A 
ATOM      2  N   LIG    1        2.618  -0.224   0.066  0.00  0.00    -0.280 NA
ATOM      3  N   LIG    1        3.997  -0.481   0.124  0.00  0.00    -0.350 N 
ATOM      4  C   LIG    1        4.617   0.719  -0.030  0.00  0.00    +0.330 A 
ATOM      5  N   LIG    1        3.686   1.639  -0.177  0.00  0.00    -0.490 NA
ENDROOT
BRANCH   4   6
ATOM      6  C   LIG    1        6.077   0.950  -0.032  0.00  0.00    -0.070 A 
ATOM      7  C   LIG    1        6.643   1.968   0.749  0.00  0.00    +0.120 A 
ATOM      8  N   LIG    1        6.158   2.917   1.613  0.00  0.00    -0.580 N 
ATOM      9  H   LIG    1        5.229   3.053   1.854  0.00  0.00    +0.430 HD
ATOM     10  C   LIG    1        7.224   3.632   2.071  0.00  0.00    +0.300 A 
ATOM     11  N   LIG    1        8.324   3.181   1.542  0.00  0.00    -0.470 NA
ATOM     12  C   LIG    1        7.140   4.777   3.047  0.00  0.00    +0.200 C 
ATOM     13  C   LIG    1        8.038   2.147   0.711  0.00  0.00    +0.000 A 
ATOM     14  C   LIG    1        8.801   1.307  -0.101  0.00  0.00    +0.370 A 
ATOM     15  N   LIG    1        8.225   0.363  -0.817  0.00  0.00    -0.480 NA
ATOM     16  C   LIG    1        6.921   0.158  -0.806  0.00  0.00    +0.290 A 
ENDBRANCH   4   6
BRANCH   1  20
ATOM     17  C   LIG    1       -1.177   3.128  -0.484  0.00  0.00    +0.090 A 
ATOM     18  C   LIG    1       -1.210   1.749  -0.298  0.00  0.00    +0.040 A 
ATOM     19  C   LIG    1       -0.010   1.071  -0.174  0.00  0.00    +0.060 A 
ATOM     20  C   LIG    1        1.183   1.786  -0.249  0.00  0.00    +0.160 A 
ATOM     21  N   LIG    1        1.175   3.100  -0.431  0.00  0.00    -0.410 NA
ATOM     22  C   LIG    1        0.050   3.775  -0.547  0.00  0.00    +0.190 A 
BRANCH  17  24
ATOM     23  C   LIG    1       -2.215   5.244  -0.798  0.00  0.00    +0.250 C 
ATOM     24  O   LIG    1       -2.333   3.833  -0.606  0.00  0.00    -0.310 OA
ENDBRANCH  17  24
ENDBRANCH   1  20
BRANCH   3  25
ATOM     25  C   LIG    1        4.640  -1.783   0.319  0.00  0.00    +0.370 C 
BRANCH  25  26
ATOM     26  C   LIG    1        4.729  -2.084   1.793  0.00  0.00    +0.500 C 
ATOM     27  O   LIG    1        4.297  -1.289   2.601  0.00  0.00    -0.520 OA
ATOM     28  N   LIG    1        5.287  -3.236   2.213  0.00  0.00    -0.850 N 
ATOM     29  H   LIG    1        5.345  -3.430   3.161  0.00  0.00    +0.410 HD
ATOM     30  H   LIG    1        5.633  -3.872   1.566  0.00  0.00    +0.410 HD
ENDBRANCH  25  26
ENDBRANCH   3  25
TORSDOF 5
