REMARK  Name = ZINCrg00000zyzqD.0
REMARK                            x       y       z     vdW  Elec       q    Type
REMARK                         _______ _______ _______ _____ _____    ______ ____
ROOT
ATOM      1  C   LIG    1       -2.506   1.009  -0.087  0.00  0.00    +0.270 A 
ATOM      2  N   LIG    1       -3.693   1.538   0.117  0.00  0.00    -0.250 NA
ATOM      3  N   LIG    1       -4.608   0.476   0.189  0.00  0.00    -0.360 N 
ATOM      4  C   LIG    1       -3.885  -0.664   0.025  0.00  0.00    +0.340 A 
ATOM      5  N   LIG    1       -2.623  -0.323  -0.139  0.00  0.00    -0.490 NA
ENDROOT
BRANCH   4   6
ATOM      6  C   LIG    1       -4.419  -2.041   0.030  0.00  0.00    -0.030 A 
ATOM      7  C   LIG    1       -3.809  -3.050   0.807  0.00  0.00    +0.140 A 
ATOM      8  N   LIG    1       -2.753  -3.096   1.638  0.00  0.00    -0.470 NA
ATOM      9  C   LIG    1       -2.617  -4.303   2.110  0.00  0.00    +0.310 A 
ATOM     10  N   LIG    1       -3.585  -5.113   1.607  0.00  0.00    -0.580 N 
ATOM     11  H   LIG    1       -3.705  -6.056   1.800  0.00  0.00    +0.430 HD
ATOM     12  C   LIG    1       -1.542  -4.738   3.073  0.00  0.00    +0.210 C 
ATOM     13  C   LIG    1       -4.366  -4.342   0.770  0.00  0.00    -0.020 A 
ATOM     14  C   LIG    1       -5.480  -4.576  -0.021  0.00  0.00    +0.330 A 
ATOM     15  N   LIG    1       -6.017  -3.603  -0.731  0.00  0.00    -0.460 NA
ATOM     16  C   LIG    1       -5.538  -2.373  -0.726  0.00  0.00    +0.270 A 
ENDBRANCH   4   6
BRANCH   1  20
ATOM     17  C   LIG    1        1.072   3.187  -0.495  0.00  0.00    +0.090 A 
ATOM     18  C   LIG    1        1.130   1.799  -0.576  0.00  0.00    +0.040 A 
ATOM     19  C   LIG    1       -0.044   1.081  -0.438  0.00  0.00    +0.080 A 
ATOM     20  C   LIG    1       -1.238   1.767  -0.230  0.00  0.00    +0.160 A 
ATOM     21  N   LIG    1       -1.253   3.091  -0.154  0.00  0.00    -0.420 NA
ATOM     22  C   LIG    1       -0.153   3.804  -0.280  0.00  0.00    +0.180 A 
BRANCH  17  24
ATOM     23  C   LIG    1        2.060   5.349  -0.529  0.00  0.00    +0.250 C 
ATOM     24  O   LIG    1        2.202   3.931  -0.625  0.00  0.00    -0.310 OA
ENDBRANCH  17  24
ENDBRANCH   1  20
BRANCH   3  25
ATOM     25  C   LIG    1       -6.054   0.575   0.403  0.00  0.00    +0.370 C 
BRANCH  25  26
ATOM     26  C   LIG    1       -6.340   0.650   1.881  0.00  0.00    +0.500 C 
ATOM     27  O   LIG    1       -5.425   0.624   2.677  0.00  0.00    -0.510 OA
ATOM     28  N   LIG    1       -7.611   0.747   2.317  0.00  0.00    -0.850 N 
ATOM     29  H   LIG    1       -7.795   0.796   3.269  0.00  0.00    +0.410 HD
ATOM     30  H   LIG    1       -8.342   0.769   1.681  0.00  0.00    +0.400 HD
ENDBRANCH  25  26
ENDBRANCH   3  25
TORSDOF 5
