REMARK  Name = ZINCvU0000000H12.0
REMARK                            x       y       z     vdW  Elec       q    Type
REMARK                         _______ _______ _______ _____ _____    ______ ____
ROOT
ATOM      1  C   LIG    1        1.826   5.597   1.261  0.00  0.00    +0.600 C 
ATOM      2  N   LIG    1        2.932   4.827   1.248  0.00  0.00    -0.650 N 
ATOM      3  H   LIG    1        2.852   3.863   1.319  0.00  0.00    +0.430 HD
ATOM      4  O   LIG    1        1.928   6.809   1.258  0.00  0.00    -0.500 OA
ENDROOT
BRANCH   1   7
ATOM      5  N   LIG    1       -0.748   3.044   1.299  0.00  0.00    -0.350 N 
ATOM      6  N   LIG    1        0.370   3.664   1.284  0.00  0.00    -0.180 NA
ATOM      7  C   LIG    1        0.490   4.970   1.280  0.00  0.00    +0.050 A 
ATOM      8  C   LIG    1       -0.724   5.802   1.293  0.00  0.00    -0.030 A 
ATOM      9  C   LIG    1       -0.684   7.192   1.290  0.00  0.00    +0.070 A 
ATOM     10  C   LIG    1       -1.866   7.903   1.304  0.00  0.00    +0.060 A 
ATOM     11  C   LIG    1       -3.090   7.248   1.321  0.00  0.00    +0.030 A 
ATOM     12  C   LIG    1       -3.151   5.870   1.324  0.00  0.00    +0.090 A 
ATOM     13  C   LIG    1       -1.971   5.135   1.310  0.00  0.00    -0.140 A 
ATOM     14  C   LIG    1       -1.945   3.665   1.307  0.00  0.00    +0.520 A 
ATOM     15  O   LIG    1       -2.980   3.024   1.317  0.00  0.00    -0.490 OA
BRANCH   5  17
ATOM     16  C   LIG    1       -0.016   1.077   0.043  0.00  0.00    +0.050 C 
ATOM     17  C   LIG    1       -0.728   1.579   1.301  0.00  0.00    +0.250 C 
ATOM     18  C   LIG    1        0.016   1.081   2.541  0.00  0.00    +0.050 C 
ENDBRANCH   5  17
ENDBRANCH   1   7
BRANCH   2  19
ATOM     19  C   LIG    1        4.194   5.419   1.134  0.00  0.00    +0.150 A 
ATOM     20  C   LIG    1        5.203   4.774   0.429  0.00  0.00    +0.090 A 
ATOM     21  C   LIG    1        6.446   5.363   0.313  0.00  0.00    -0.160 A 
ATOM     22  C   LIG    1        6.691   6.588   0.906  0.00  0.00    +0.120 A 
ATOM     23  C   LIG    1        5.691   7.230   1.613  0.00  0.00    -0.160 A 
ATOM     24  C   LIG    1        4.443   6.649   1.729  0.00  0.00    +0.130 A 
BRANCH  23  25
ATOM     25  C   LIG    1        5.962   8.564   2.259  0.00  0.00    +0.510 C 
ATOM     26  F   LIG    1        6.330   9.491   1.278  0.00  0.00    -0.170 F 
ATOM     27  F   LIG    1        7.000   8.430   3.187  0.00  0.00    -0.170 F 
ATOM     28  F   LIG    1        4.808   9.009   2.912  0.00  0.00    -0.170 F 
ENDBRANCH  23  25
BRANCH  21  29
ATOM     29  C   LIG    1        7.540   4.668  -0.456  0.00  0.00    +0.510 C 
ATOM     30  F   LIG    1        8.396   5.622  -1.016  0.00  0.00    -0.170 F 
ATOM     31  F   LIG    1        6.973   3.894  -1.476  0.00  0.00    -0.170 F 
ATOM     32  F   LIG    1        8.265   3.841   0.408  0.00  0.00    -0.170 F 
ENDBRANCH  21  29
ENDBRANCH   2  19
TORSDOF 5
