REMARK  Name = ZINCpk00000xI9xR.0
REMARK                            x       y       z     vdW  Elec       q    Type
REMARK                         _______ _______ _______ _____ _____    ______ ____
ROOT
ATOM      1  C   LIG    1        1.095  -5.521   1.770  0.00  0.00    +0.230 C 
ATOM      2  C   LIG    1        0.186  -4.591   1.380  0.00  0.00    -0.200 C 
ATOM      3  C   LIG    1        0.213  -4.142  -0.067  0.00  0.00    +0.340 C 
ATOM      4  N   LIG    1        1.229  -4.754  -0.939  0.00  0.00    -0.710 N 
ATOM      5  H   LIG    1        1.293  -4.505  -1.874  0.00  0.00    +0.440 HD
ATOM      6  C   LIG    1        2.067  -5.667  -0.411  0.00  0.00    +0.710 C 
ATOM      7  O   LIG    1        2.908  -6.175  -1.128  0.00  0.00    -0.550 OA
ATOM      8  N   LIG    1        2.007  -6.034   0.875  0.00  0.00    -0.640 N 
ATOM      9  H   LIG    1        2.640  -6.696   1.194  0.00  0.00    +0.430 HD
ENDROOT
BRANCH   3  10
ATOM     10  C   LIG    1        0.424  -2.650  -0.086  0.00  0.00    -0.160 A 
ATOM     11  C   LIG    1       -0.666  -1.799  -0.119  0.00  0.00    +0.100 A 
ATOM     12  C   LIG    1       -0.476  -0.431  -0.136  0.00  0.00    -0.020 A 
ATOM     13  C   LIG    1        0.810   0.089  -0.120  0.00  0.00    +0.140 A 
ATOM     14  C   LIG    1        1.902  -0.766  -0.092  0.00  0.00    -0.080 A 
ATOM     15  C   LIG    1        1.706  -2.134  -0.070  0.00  0.00    +0.070 A 
BRANCH  13  16
ATOM     16  O   LIG    1        1.000   1.435  -0.137  0.00  0.00    -0.320 OA
ATOM     17  C   LIG    1        2.351   1.900  -0.119  0.00  0.00    +0.250 C 
ENDBRANCH  13  16
ENDBRANCH   3  10
BRANCH   1  18
ATOM     18  C   LIG    1        1.106  -5.989   3.176  0.00  0.00    +0.520 C 
ATOM     19  O   LIG    1        0.470  -6.974   3.492  0.00  0.00    -0.470 OA
BRANCH  18  20
ATOM     20  O   LIG    1        1.821  -5.322   4.102  0.00  0.00    -0.340 OA
BRANCH  20  22
ATOM     21  C   LIG    1        2.650  -4.957   6.363  0.00  0.00    +0.070 C 
ATOM     22  C   LIG    1        1.785  -5.838   5.459  0.00  0.00    +0.220 C 
ENDBRANCH  20  22
ENDBRANCH  18  20
ENDBRANCH   1  18
BRANCH   2  23
ATOM     23  C   LIG    1       -0.788  -4.040   2.326  0.00  0.00    +0.530 C 
ATOM     24  O   LIG    1       -0.724  -4.334   3.505  0.00  0.00    -0.500 OA
BRANCH  23  25
ATOM     25  O   LIG    1       -1.756  -3.208   1.891  0.00  0.00    -0.340 OA
BRANCH  25  26
ATOM     26  C   LIG    1       -2.686  -2.701   2.884  0.00  0.00    +0.200 C 
ATOM     27  C   LIG    1       -3.704  -1.781   2.206  0.00  0.00    +0.070 C 
ENDBRANCH  25  26
ENDBRANCH  23  25
ENDBRANCH   2  23
TORSDOF 8
