REMARK  Name = ZINCrD00000F5LCg.0
REMARK                            x       y       z     vdW  Elec       q    Type
REMARK                         _______ _______ _______ _____ _____    ______ ____
ROOT
ATOM      1  N   LIG    1       -0.490  -2.612   2.321  0.00  0.00    -0.660 N 
ATOM      2  H   LIG    1       -0.118  -1.782   1.984  0.00  0.00    +0.410 HD
ATOM      3  C   LIG    1       -0.440  -2.887   3.639  0.00  0.00    +0.540 C 
ATOM      4  O   LIG    1       -0.991  -3.880   4.074  0.00  0.00    -0.480 OA
ENDROOT
BRANCH   1   8
ATOM      5  C   LIG    1       -2.247  -5.324  -0.308  0.00  0.00    -0.100 A 
ATOM      6  C   LIG    1       -1.560  -5.785   0.821  0.00  0.00    +0.080 A 
ATOM      7  C   LIG    1       -0.981  -4.886   1.687  0.00  0.00    +0.030 A 
ATOM      8  C   LIG    1       -1.078  -3.519   1.441  0.00  0.00    +0.160 A 
ATOM      9  C   LIG    1       -1.765  -3.056   0.323  0.00  0.00    -0.020 A 
ATOM     10  C   LIG    1       -2.342  -3.948  -0.552  0.00  0.00    +0.070 A 
BRANCH   5  12
ATOM     11  C   LIG    1       -3.529  -5.833  -2.325  0.00  0.00    -0.080 C 
ATOM     12  C   LIG    1       -2.866  -6.281  -1.236  0.00  0.00    +0.160 C 
BRANCH  11  13
ATOM     13  C   LIG    1       -4.126  -6.756  -3.220  0.00  0.00    +0.500 C 
ATOM     14  O   LIG    1       -4.043  -7.951  -3.007  0.00  0.00    -0.520 OA
BRANCH  13  15
ATOM     15  O   LIG    1       -4.788  -6.310  -4.308  0.00  0.00    -0.350 OA
BRANCH  15  17
ATOM     16  C   LIG    1       -6.068  -6.604  -6.336  0.00  0.00    +0.070 C 
ATOM     17  C   LIG    1       -5.365  -7.295  -5.166  0.00  0.00    +0.200 C 
ENDBRANCH  15  17
ENDBRANCH  13  15
ENDBRANCH  11  13
ENDBRANCH   5  12
ENDBRANCH   1   8
BRANCH   3  18
ATOM     18  C   LIG    1        0.285  -1.983   4.556  0.00  0.00    -0.050 A 
ATOM     19  C   LIG    1        0.914  -0.840   4.060  0.00  0.00    +0.040 A 
ATOM     20  C   LIG    1        1.595  -0.003   4.921  0.00  0.00    +0.070 A 
ATOM     21  C   LIG    1        1.649  -0.291   6.272  0.00  0.00    +0.030 A 
ATOM     22  C   LIG    1        1.023  -1.420   6.771  0.00  0.00    +0.130 A 
ATOM     23  C   LIG    1        0.340  -2.265   5.922  0.00  0.00    -0.610 A 
BRANCH  23  24
ATOM     24  S   LIG    1       -0.456  -3.702   6.559  0.00  0.00    +2.500 S 
ATOM     25  O   LIG    1        0.012  -4.758   5.731  0.00  0.00    -0.910 OA
ATOM     26  O   LIG    1       -0.166  -3.677   7.949  0.00  0.00    -0.950 OA
BRANCH  24  27
ATOM     27  C   LIG    1       -2.223  -3.405   6.272  0.00  0.00    -0.330 C 
ATOM     28  C   LIG    1       -3.031  -4.598   6.789  0.00  0.00    +0.090 C 
ENDBRANCH  24  27
ENDBRANCH  23  24
ENDBRANCH   3  18
TORSDOF 8
