REMARK  Name = ZINCpe000000WhcA.0
REMARK                            x       y       z     vdW  Elec       q    Type
REMARK                         _______ _______ _______ _____ _____    ______ ____
ROOT
ATOM      1  C   LIG    1       -3.067   2.068   5.483  0.00  0.00    +0.230 C 
ENDROOT
BRANCH   1   2
ATOM      2  O   LIG    1       -4.077   1.360   4.762  0.00  0.00    -0.530 OA
ATOM      3  H   LIG    1       -4.810   1.915   4.465  0.00  0.00    +0.370 HD
ENDBRANCH   1   2
BRANCH   1   4
ATOM      4  C   LIG    1       -2.474   3.160   4.591  0.00  0.00    +0.160 C 
BRANCH   4   5
ATOM      5  O   LIG    1       -1.797   2.557   3.486  0.00  0.00    -0.280 OA
BRANCH   5  11
ATOM      6  C   LIG    1       -0.533   2.869   1.490  0.00  0.00    +0.090 A 
ATOM      7  C   LIG    1        0.069   3.717   0.583  0.00  0.00    +0.030 A 
ATOM      8  C   LIG    1       -0.011   5.104   0.765  0.00  0.00    -0.170 A 
ATOM      9  C   LIG    1       -0.692   5.621   1.873  0.00  0.00    +0.080 A 
ATOM     10  C   LIG    1       -1.285   4.768   2.777  0.00  0.00    -0.050 A 
ATOM     11  C   LIG    1       -1.210   3.393   2.592  0.00  0.00    +0.140 A 
BRANCH   8  12
ATOM     12  C   LIG    1        0.622   6.011  -0.200  0.00  0.00    +0.400 C 
ATOM     13  O   LIG    1        1.212   5.561  -1.159  0.00  0.00    -0.460 OA
ATOM     14  C   LIG    1        0.540   7.502   0.002  0.00  0.00    +0.080 C 
ENDBRANCH   8  12
BRANCH   6  16
ATOM     15  C   LIG    1        0.248   1.056   0.164  0.00  0.00    +0.240 C 
ATOM     16  O   LIG    1       -0.461   1.523   1.314  0.00  0.00    -0.300 OA
ENDBRANCH   6  16
ENDBRANCH   5  11
ENDBRANCH   4   5
ENDBRANCH   1   4
BRANCH   1  17
ATOM     17  C   LIG    1       -3.683   2.707   6.730  0.00  0.00    +0.160 C 
BRANCH  17  18
ATOM     18  N   LIG    1       -4.178   1.653   7.625  0.00  0.00    -0.510 NA
ATOM     19  C   LIG    1       -3.066   0.960   8.289  0.00  0.00    +0.240 C 
ATOM     20  C   LIG    1       -2.132   1.984   8.952  0.00  0.00    +0.120 C 
ATOM     21  C   LIG    1       -2.986   2.919   9.767  0.00  0.00    +0.010 A 
ATOM     22  N   LIG    1       -2.671   3.762  10.705  0.00  0.00    -0.270 NA
ATOM     23  N   LIG    1       -3.752   4.340  11.111  0.00  0.00    -0.270 N 
ATOM     24  H   LIG    1       -3.786   5.013  11.809  0.00  0.00    +0.470 HD
ATOM     25  N   LIG    1       -4.780   3.902  10.464  0.00  0.00    -0.260 NA
ATOM     26  C   LIG    1       -4.376   3.013   9.606  0.00  0.00    -0.030 A 
ATOM     27  C   LIG    1       -5.142   2.197   8.599  0.00  0.00    +0.350 C 
ENDBRANCH  17  18
ENDBRANCH   1  17
TORSDOF 8
