REMARK  Name = ZINCpe000000WhcA.1
REMARK                            x       y       z     vdW  Elec       q    Type
REMARK                         _______ _______ _______ _____ _____    ______ ____
ROOT
ATOM      1  C   LIG    1       -2.041   3.650   5.448  0.00  0.00    +0.230 C 
ENDROOT
BRANCH   1   2
ATOM      2  O   LIG    1       -0.994   2.823   5.958  0.00  0.00    -0.530 OA
ATOM      3  H   LIG    1       -1.306   2.041   6.434  0.00  0.00    +0.370 HD
ENDBRANCH   1   2
BRANCH   1   4
ATOM      4  C   LIG    1       -2.900   2.841   4.473  0.00  0.00    +0.160 C 
BRANCH   4   5
ATOM      5  O   LIG    1       -2.116   2.478   3.335  0.00  0.00    -0.280 OA
BRANCH   5  11
ATOM      6  C   LIG    1       -2.025   1.366   1.230  0.00  0.00    +0.090 A 
ATOM      7  C   LIG    1       -2.651   0.632   0.243  0.00  0.00    +0.030 A 
ATOM      8  C   LIG    1       -3.995   0.268   0.392  0.00  0.00    -0.170 A 
ATOM      9  C   LIG    1       -4.699   0.661   1.537  0.00  0.00    +0.080 A 
ATOM     10  C   LIG    1       -4.068   1.397   2.514  0.00  0.00    -0.050 A 
ATOM     11  C   LIG    1       -2.733   1.753   2.368  0.00  0.00    +0.140 A 
BRANCH   8  12
ATOM     12  C   LIG    1       -4.666  -0.517  -0.652  0.00  0.00    +0.400 C 
ATOM     13  O   LIG    1       -4.054  -0.856  -1.643  0.00  0.00    -0.460 OA
ATOM     14  C   LIG    1       -6.114  -0.901  -0.492  0.00  0.00    +0.070 C 
ENDBRANCH   8  12
BRANCH   6  16
ATOM     15  C   LIG    1       -0.054   1.286  -0.099  0.00  0.00    +0.240 C 
ATOM     16  O   LIG    1       -0.718   1.716   1.091  0.00  0.00    -0.300 OA
ENDBRANCH   6  16
ENDBRANCH   5  11
ENDBRANCH   4   5
ENDBRANCH   1   4
BRANCH   1  17
ATOM     17  C   LIG    1       -2.911   4.144   6.605  0.00  0.00    +0.150 C 
BRANCH  17  18
ATOM     18  N   LIG    1       -2.104   4.985   7.499  0.00  0.00    -0.510 NA
ATOM     19  C   LIG    1       -1.842   6.298   6.893  0.00  0.00    +0.240 C 
ATOM     20  C   LIG    1       -3.166   6.940   6.454  0.00  0.00    +0.120 C 
ATOM     21  C   LIG    1       -4.127   6.849   7.611  0.00  0.00    -0.020 A 
ATOM     22  C   LIG    1       -3.933   6.031   8.677  0.00  0.00    -0.060 A 
ATOM     23  N   LIG    1       -4.978   6.221   9.496  0.00  0.00    -0.370 N 
ATOM     24  H   LIG    1       -5.124   5.778  10.347  0.00  0.00    +0.450 HD
ATOM     25  N   LIG    1       -5.756   7.098   8.953  0.00  0.00    -0.090 NA
ATOM     26  N   LIG    1       -5.269   7.489   7.823  0.00  0.00    -0.250 NA
ATOM     27  C   LIG    1       -2.744   5.118   8.820  0.00  0.00    +0.340 C 
ENDBRANCH  17  18
ENDBRANCH   1  17
TORSDOF 8
