REMARK  Name = ZINCrH000004mzE8.0
REMARK                            x       y       z     vdW  Elec       q    Type
REMARK                         _______ _______ _______ _____ _____    ______ ____
ROOT
ATOM      1  C   LIG    1       -1.251   3.419   0.231  0.00  0.00    +0.510 C 
ATOM      2  N   LIG    1       -1.231   2.084   0.042  0.00  0.00    -0.680 N 
ATOM      3  H   LIG    1       -2.061   1.601  -0.090  0.00  0.00    +0.410 HD
ATOM      4  O   LIG    1       -0.222   4.012   0.477  0.00  0.00    -0.500 OA
ENDROOT
BRANCH   2   5
ATOM      5  C   LIG    1       -0.010   1.396   0.036  0.00  0.00    +0.180 A 
ATOM      6  C   LIG    1        0.171   0.311  -0.812  0.00  0.00    -0.030 A 
ATOM      7  C   LIG    1        1.371  -0.371  -0.814  0.00  0.00    +0.100 A 
ATOM      8  C   LIG    1        2.398   0.028   0.033  0.00  0.00    -0.140 A 
ATOM      9  C   LIG    1        2.216   1.113   0.882  0.00  0.00    +0.100 A 
ATOM     10  C   LIG    1        1.016   1.794   0.883  0.00  0.00    +0.010 A 
BRANCH   8  11
ATOM     11  S   LIG    1        3.930  -0.842   0.030  0.00  0.00    +0.080 S 
BRANCH  11  12
ATOM     12  C   LIG    1        3.582  -2.078   1.237  0.00  0.00    +0.170 A 
ATOM     13  N   LIG    1        2.423  -2.276   1.821  0.00  0.00    -0.480 NA
ATOM     14  C   LIG    1        2.530  -3.302   2.682  0.00  0.00    +0.150 A 
ATOM     15  C   LIG    1        3.792  -3.763   2.638  0.00  0.00    +0.130 A 
ATOM     16  N   LIG    1        4.467  -2.994   1.717  0.00  0.00    -0.450 N 
ATOM     17  C   LIG    1        5.873  -3.133   1.330  0.00  0.00    +0.330 C 
ENDBRANCH  11  12
ENDBRANCH   8  11
ENDBRANCH   2   5
BRANCH   1  18
ATOM     18  C   LIG    1       -2.551   4.174   0.134  0.00  0.00    +0.120 C 
BRANCH  18  22
ATOM     19  C   LIG    1       -1.844   8.330   0.849  0.00  0.00    +0.100 A 
ATOM     20  C   LIG    1       -2.143   7.485   1.904  0.00  0.00    -0.030 A 
ATOM     21  C   LIG    1       -2.377   6.142   1.669  0.00  0.00    +0.030 A 
ATOM     22  C   LIG    1       -2.301   5.639   0.384  0.00  0.00    -0.070 A 
ATOM     23  C   LIG    1       -2.002   6.478  -0.674  0.00  0.00    -0.030 A 
ATOM     24  C   LIG    1       -1.773   7.825  -0.446  0.00  0.00    +0.100 A 
BRANCH  19  26
ATOM     25  C   LIG    1       -1.709  10.101   2.431  0.00  0.00    +0.250 C 
ATOM     26  O   LIG    1       -1.619   9.652   1.077  0.00  0.00    -0.310 OA
ENDBRANCH  19  26
BRANCH  24  27
ATOM     27  O   LIG    1       -1.478   8.651  -1.485  0.00  0.00    -0.310 OA
ATOM     28  C   LIG    1       -1.422   8.063  -2.786  0.00  0.00    +0.230 C 
ENDBRANCH  24  27
ENDBRANCH  18  22
ENDBRANCH   1  18
TORSDOF 7
