REMARK  Name = ZINC650000002raS.0
REMARK                            x       y       z     vdW  Elec       q    Type
REMARK                         _______ _______ _______ _____ _____    ______ ____
ROOT
ATOM      1  C   LIG    1       -0.013   1.086   0.008  0.00  0.00    +0.040 C 
ATOM      2  C   LIG    1       -0.729   1.579   1.267  0.00  0.00    -0.020 C 
ENDROOT
BRANCH   2   3
ATOM      3  C   LIG    1       -2.164   1.050   1.278  0.00  0.00    +0.200 C 
BRANCH   3   4
ATOM      4  O   LIG    1       -2.146  -0.375   1.387  0.00  0.00    -0.570 OA
ATOM      5  H   LIG    1       -3.023  -0.780   1.400  0.00  0.00    +0.400 HD
ENDBRANCH   3   4
ENDBRANCH   2   3
BRANCH   2   6
ATOM      6  C   LIG    1       -0.750   3.109   1.275  0.00  0.00    +0.280 C 
BRANCH   6   7
ATOM      7  N   LIG    1        0.624   3.617   1.386  0.00  0.00    -0.640 N 
ATOM      8  H   LIG    1        1.167   3.292   0.599  0.00  0.00    +0.430 HD
ATOM      9  H   LIG    1        1.039   3.281   2.242  0.00  0.00    +0.440 HD
ATOM     10  H   LIG    1        0.611   4.626   1.391  0.00  0.00    +0.440 HD
ENDBRANCH   6   7
ENDBRANCH   2   6
TORSDOF 4
