REMARK  Name = ZINCrD0000073omX.0
REMARK                            x       y       z     vdW  Elec       q    Type
REMARK                         _______ _______ _______ _____ _____    ______ ____
ROOT
ATOM      1  C   LIG    1        2.380   1.140  -0.026  0.00  0.00    +0.200 C 
ATOM      2  C   LIG    1        2.804   0.884  -1.473  0.00  0.00    +0.070 C 
ENDROOT
BRANCH   1   5
ATOM      3  N   LIG    1        4.700   1.374   0.800  0.00  0.00    -0.650 N 
ATOM      4  H   LIG    1        4.869   0.470   0.493  0.00  0.00    +0.420 HD
ATOM      5  C   LIG    1        3.465   1.904   0.688  0.00  0.00    +0.520 C 
ATOM      6  O   LIG    1        3.228   2.994   1.163  0.00  0.00    -0.500 OA
BRANCH   3  13
ATOM      7  C   LIG    1        6.830   1.491   1.946  0.00  0.00    +0.090 A 
ATOM      8  C   LIG    1        7.853   2.243   2.498  0.00  0.00    -0.050 A 
ATOM      9  C   LIG    1        7.790   3.624   2.469  0.00  0.00    +0.030 A 
ATOM     10  C   LIG    1        6.708   4.258   1.888  0.00  0.00    -0.100 A 
ATOM     11  C   LIG    1        5.685   3.515   1.330  0.00  0.00    +0.050 A 
ATOM     12  C   LIG    1        6.646   5.764   1.859  0.00  0.00    +0.100 C 
ATOM     13  C   LIG    1        5.738   2.130   1.361  0.00  0.00    +0.120 A 
BRANCH   7  15
ATOM     14  C   LIG    1        8.039  -0.453   2.590  0.00  0.00    +0.250 C 
ATOM     15  O   LIG    1        6.890   0.133   1.974  0.00  0.00    -0.320 OA
ENDBRANCH   7  15
ENDBRANCH   3  13
ENDBRANCH   1   5
BRANCH   1  16
ATOM     16  O   LIG    1        1.153   1.917  -0.012  0.00  0.00    -0.330 OA
BRANCH  16  17
ATOM     17  C   LIG    1       -0.007   1.229  -0.015  0.00  0.00    +0.540 C 
ATOM     18  O   LIG    1        0.007   0.013  -0.028  0.00  0.00    -0.490 OA
BRANCH  17  19
ATOM     19  C   LIG    1       -1.286   1.947  -0.007  0.00  0.00    -0.050 A 
ATOM     20  C   LIG    1       -2.523   1.374  -0.014  0.00  0.00    -0.010 A 
ATOM     21  C   LIG    1       -3.467   2.428  -0.003  0.00  0.00    -0.260 A 
ATOM     22  C   LIG    1       -2.749   3.614   0.011  0.00  0.00    +0.120 A 
ATOM     23  C   LIG    1       -3.338   5.001   0.027  0.00  0.00    +0.160 C 
ATOM     24  C   LIG    1       -2.827  -0.102  -0.031  0.00  0.00    +0.140 C 
ATOM     25  N   LIG    1       -1.442   3.317   0.015  0.00  0.00    -0.510 N 
ATOM     26  H   LIG    1       -0.719   3.964   0.028  0.00  0.00    +0.430 HD
BRANCH  21  27
ATOM     27  C   LIG    1       -4.927   2.292  -0.005  0.00  0.00    +0.440 C 
ATOM     28  O   LIG    1       -5.521   2.156  -1.054  0.00  0.00    -0.450 OA
ATOM     29  C   LIG    1       -5.689   2.320   1.295  0.00  0.00    +0.070 C 
ENDBRANCH  21  27
ENDBRANCH  17  19
ENDBRANCH  16  17
ENDBRANCH   1  16
TORSDOF 7
