REMARK  Name = ZINCtV00000tRP7j.0
REMARK                            x       y       z     vdW  Elec       q    Type
REMARK                         _______ _______ _______ _____ _____    ______ ____
ROOT
ATOM      1  N   LIG    1       -0.018   1.455   0.010  0.00  0.00    -0.470 N 
ATOM      2  C   LIG    1        1.266   1.999   0.001  0.00  0.00    +0.100 A 
ATOM      3  C   LIG    1        1.553   3.153   0.712  0.00  0.00    +0.020 A 
ATOM      4  C   LIG    1        2.824   3.696   0.660  0.00  0.00    +0.010 A 
ATOM      5  C   LIG    1        3.810   3.103  -0.108  0.00  0.00    +0.000 A 
ATOM      6  C   LIG    1        3.542   1.943  -0.811  0.00  0.00    +0.020 A 
ATOM      7  C   LIG    1        2.277   1.372  -0.742  0.00  0.00    -0.080 A 
ATOM      8  C   LIG    1        1.956   0.121  -1.471  0.00  0.00    -0.080 C 
ATOM      9  C   LIG    1        0.855  -0.529  -1.139  0.00  0.00    -0.140 C 
ATOM     10  C   LIG    1        0.399  -1.782  -1.838  0.00  0.00    +0.080 C 
ATOM     11  C   LIG    1        1.122  -1.957  -3.172  0.00  0.00    +0.010 C 
ATOM     12  C   LIG    1        2.627  -1.790  -2.927  0.00  0.00    +0.020 C 
ATOM     13  C   LIG    1        2.887  -0.329  -2.563  0.00  0.00    +0.060 C 
ATOM     14  C   LIG    1        0.002  -0.004   0.002  0.00  0.00    +0.160 C 
ATOM     15  C   LIG    1       -1.403  -0.590  -0.121  0.00  0.00    +0.030 C 
ATOM     16  C   LIG    1       -2.270  -0.153   1.060  0.00  0.00    +0.020 C 
ATOM     17  C   LIG    1       -1.637  -0.654   2.361  0.00  0.00    +0.000 C 
ATOM     18  C   LIG    1       -0.235  -0.058   2.497  0.00  0.00    +0.020 C 
ATOM     19  C   LIG    1        0.626  -0.503   1.315  0.00  0.00    +0.030 C 
ENDROOT
BRANCH   1  20
ATOM     20  C   LIG    1       -0.799   2.015  -1.102  0.00  0.00    +0.250 C 
BRANCH  20  24
ATOM     21  C   LIG    1       -1.312   6.214  -0.508  0.00  0.00    -0.040 A 
ATOM     22  C   LIG    1       -0.217   5.744  -1.210  0.00  0.00    +0.100 A 
ATOM     23  C   LIG    1       -0.051   4.385  -1.402  0.00  0.00    +0.040 A 
ATOM     24  C   LIG    1       -0.980   3.496  -0.892  0.00  0.00    -0.030 A 
ATOM     25  C   LIG    1       -2.077   3.967  -0.196  0.00  0.00    +0.050 A 
ATOM     26  C   LIG    1       -2.240   5.326   0.001  0.00  0.00    +0.090 A 
BRANCH  21  28
ATOM     27  O   LIG    1       -0.671   8.452  -0.752  0.00  0.00    -0.160 OA
ATOM     28  N   LIG    1       -1.489   7.669  -0.303  0.00  0.00    +0.030 N 
ATOM     29  O   LIG    1       -2.453   8.084   0.315  0.00  0.00    -0.160 OA
ENDBRANCH  21  28
ENDBRANCH  20  24
ENDBRANCH   1  20
TORSDOF 3
