REMARK  Name = ZINCpe00000FUdU8.0
REMARK                            x       y       z     vdW  Elec       q    Type
REMARK                         _______ _______ _______ _____ _____    ______ ____
ROOT
ATOM      1  C   LIG    1        3.680  -0.548  -0.035  0.00  0.00    +0.050 A 
ATOM      2  C   LIG    1        4.783   0.262  -0.298  0.00  0.00    +0.010 A 
ATOM      3  C   LIG    1        4.629   1.651  -0.279  0.00  0.00    +0.260 A 
ATOM      4  N   LIG    1        3.456   2.212  -0.017  0.00  0.00    -0.490 NA
ATOM      5  C   LIG    1        2.381   1.488   0.239  0.00  0.00    +0.420 A 
ATOM      6  N   LIG    1        1.161   2.085   0.512  0.00  0.00    -0.530 N 
ATOM      7  C   LIG    1        1.056   3.546   0.518  0.00  0.00    +0.360 C 
ATOM      8  C   LIG    1        0.074   1.340   0.770  0.00  0.00    +0.710 A 
ATOM      9  O   LIG    1       -0.977   1.907   1.000  0.00  0.00    -0.530 OA
ATOM     10  N   LIG    1        0.094  -0.002   0.781  0.00  0.00    -0.560 N 
ATOM     11  C   LIG    1       -1.138  -0.739   1.073  0.00  0.00    +0.350 C 
ATOM     12  C   LIG    1        1.233  -0.684   0.528  0.00  0.00    +0.560 A 
ATOM     13  O   LIG    1        1.248  -1.900   0.539  0.00  0.00    -0.460 OA
ATOM     14  C   LIG    1        2.454   0.084   0.238  0.00  0.00    -0.210 A 
ENDROOT
BRANCH   3  15
ATOM     15  C   LIG    1        5.800   2.515  -0.558  0.00  0.00    -0.120 A 
ATOM     16  C   LIG    1        5.675   3.907  -0.546  0.00  0.00    +0.130 A 
ATOM     17  C   LIG    1        6.799   4.670  -0.812  0.00  0.00    -0.040 A 
ATOM     18  C   LIG    1        7.999   4.036  -1.080  0.00  0.00    +0.280 A 
ATOM     19  N   LIG    1        8.086   2.719  -1.085  0.00  0.00    -0.480 NA
ATOM     20  C   LIG    1        7.046   1.952  -0.832  0.00  0.00    +0.300 A 
ENDBRANCH   3  15
BRANCH   1  21
ATOM     21  C   LIG    1        3.795  -2.025  -0.045  0.00  0.00    +0.510 C 
ATOM     22  O   LIG    1        3.408  -2.670   0.908  0.00  0.00    -0.450 OA
BRANCH  21  23
ATOM     23  O   LIG    1        4.329  -2.651  -1.111  0.00  0.00    -0.350 OA
BRANCH  23  25
ATOM     24  C   LIG    1        5.038  -4.629  -2.341  0.00  0.00    +0.070 C 
ATOM     25  C   LIG    1        4.410  -4.100  -1.051  0.00  0.00    +0.210 C 
ENDBRANCH  23  25
ENDBRANCH  21  23
ENDBRANCH   1  21
TORSDOF 4
