REMARK  Name = ZINCpe000000VUQo.0
REMARK                            x       y       z     vdW  Elec       q    Type
REMARK                         _______ _______ _______ _____ _____    ______ ____
ROOT
ATOM      1  N   LIG    1       -1.324  -1.447  -0.833  0.00  0.00    -0.700 N 
ATOM      2  H   LIG    1       -1.656  -1.627   0.060  0.00  0.00    +0.410 HD
ATOM      3  C   LIG    1       -2.170  -1.463  -1.882  0.00  0.00    +0.620 C 
ATOM      4  O   LIG    1       -1.754  -1.238  -3.002  0.00  0.00    -0.520 OA
ENDROOT
BRANCH   3   5
ATOM      5  C   LIG    1       -3.603  -1.753  -1.671  0.00  0.00    -0.060 A 
ATOM      6  N   LIG    1       -4.181  -2.012  -0.513  0.00  0.00    -0.190 NA
ATOM      7  N   LIG    1       -5.439  -2.218  -0.698  0.00  0.00    -0.150 N 
ATOM      8  N   LIG    1       -5.722  -2.089  -2.064  0.00  0.00    -0.270 NA
ATOM      9  C   LIG    1       -4.594  -1.796  -2.668  0.00  0.00    +0.100 A 
ATOM     10  C   LIG    1       -4.399  -1.557  -4.143  0.00  0.00    +0.190 C 
BRANCH   7  11
ATOM     11  C   LIG    1       -6.371  -2.522   0.303  0.00  0.00    +0.130 A 
ATOM     12  C   LIG    1       -6.087  -3.502   1.244  0.00  0.00    +0.040 A 
ATOM     13  C   LIG    1       -7.006  -3.796   2.233  0.00  0.00    +0.030 A 
ATOM     14  C   LIG    1       -8.213  -3.123   2.279  0.00  0.00    -0.060 A 
ATOM     15  C   LIG    1       -8.501  -2.150   1.339  0.00  0.00    +0.030 A 
ATOM     16  C   LIG    1       -9.216  -3.450   3.354  0.00  0.00    +0.100 C 
ATOM     17  C   LIG    1       -7.584  -1.847   0.352  0.00  0.00    -0.050 A 
ATOM     18  C   LIG    1       -7.899  -0.787  -0.671  0.00  0.00    +0.100 C 
ENDBRANCH   7  11
ENDBRANCH   3   5
BRANCH   1  19
ATOM     19  C   LIG    1        0.097  -1.159  -1.042  0.00  0.00    +0.250 C 
BRANCH  19  20
ATOM     20  C   LIG    1        0.311   0.332  -1.052  0.00  0.00    +0.510 C 
ATOM     21  O   LIG    1       -0.631   1.081  -0.904  0.00  0.00    -0.530 OA
ATOM     22  N   LIG    1        1.549   0.834  -1.230  0.00  0.00    -0.850 N 
ATOM     23  H   LIG    1        1.687   1.794  -1.237  0.00  0.00    +0.410 HD
ATOM     24  H   LIG    1        2.302   0.235  -1.352  0.00  0.00    +0.400 HD
ENDBRANCH  19  20
BRANCH  19  25
ATOM     25  C   LIG    1        0.916  -1.785   0.089  0.00  0.00    +0.070 C 
BRANCH  25  26
ATOM     26  C   LIG    1        0.797  -3.309   0.022  0.00  0.00    +0.170 C 
BRANCH  26  28
ATOM     27  C   LIG    1        1.519  -5.321   1.106  0.00  0.00    +0.200 C 
ATOM     28  O   LIG    1        1.562  -3.893   1.078  0.00  0.00    -0.390 OA
ENDBRANCH  26  28
ENDBRANCH  25  26
ENDBRANCH  19  25
ENDBRANCH   1  19
TORSDOF 7
