REMARK  Name = ZINCrH00000tj132.0
REMARK                            x       y       z     vdW  Elec       q    Type
REMARK                         _______ _______ _______ _____ _____    ______ ____
ROOT
ATOM      1  C   LIG    1        0.857   7.319   0.071  0.00  0.00    +0.380 A 
ATOM      2  C   LIG    1       -0.381   7.961   0.084  0.00  0.00    -0.010 A 
ATOM      3  C   LIG    1       -1.526   7.186   0.131  0.00  0.00    +0.120 A 
ATOM      4  N   LIG    1       -1.414   5.867   0.157  0.00  0.00    -0.460 NA
ATOM      5  C   LIG    1       -0.224   5.285   0.149  0.00  0.00    +0.420 A 
ATOM      6  N   LIG    1        0.896   5.993   0.105  0.00  0.00    -0.530 NA
ENDROOT
BRANCH   5   7
ATOM      7  C   LIG    1       -0.142   3.803   0.185  0.00  0.00    +0.160 A 
ATOM      8  C   LIG    1        1.103   3.180   0.172  0.00  0.00    +0.040 A 
ATOM      9  C   LIG    1        1.163   1.796   0.206  0.00  0.00    +0.070 A 
ATOM     10  C   LIG    1       -0.026   1.083   0.253  0.00  0.00    +0.000 A 
ATOM     11  C   LIG    1       -1.228   1.769   0.259  0.00  0.00    +0.270 A 
ATOM     12  N   LIG    1       -1.256   3.084   0.231  0.00  0.00    -0.440 NA
ENDBRANCH   5   7
BRANCH   3  13
ATOM     13  C   LIG    1       -2.886   7.835   0.146  0.00  0.00    +0.530 C 
ATOM     14  F   LIG    1       -2.799   9.084   0.771  0.00  0.00    -0.160 F 
ATOM     15  F   LIG    1       -3.783   7.023   0.848  0.00  0.00    -0.150 F 
ATOM     16  F   LIG    1       -3.337   8.002  -1.168  0.00  0.00    -0.160 F 
ENDBRANCH   3  13
BRANCH   1  17
ATOM     17  O   LIG    1        2.004   8.039   0.025  0.00  0.00    -0.230 OA
BRANCH  17  21
ATOM     18  C   LIG    1        5.582   6.002   0.299  0.00  0.00    -0.660 A 
ATOM     19  C   LIG    1        4.872   5.995  -0.888  0.00  0.00    +0.140 A 
ATOM     20  C   LIG    1        3.674   6.676  -0.982  0.00  0.00    +0.010 A 
ATOM     21  C   LIG    1        3.183   7.368   0.115  0.00  0.00    +0.140 A 
ATOM     22  C   LIG    1        3.900   7.379   1.303  0.00  0.00    +0.010 A 
ATOM     23  C   LIG    1        5.095   6.692   1.394  0.00  0.00    +0.140 A 
BRANCH  18  25
ATOM     24  C   LIG    1        8.362   6.349  -0.077  0.00  0.00    -0.250 C 
ATOM     25  S   LIG    1        7.110   5.133   0.416  0.00  0.00    +2.500 S 
ATOM     26  O   LIG    1        7.003   4.104  -0.559  0.00  0.00    -0.930 OA
ATOM     27  O   LIG    1        7.232   4.823   1.797  0.00  0.00    -0.930 OA
ENDBRANCH  18  25
ENDBRANCH  17  21
ENDBRANCH   1  17
TORSDOF 5
