REMARK  Name = ZINCAx0000000eG4.0
REMARK                            x       y       z     vdW  Elec       q    Type
REMARK                         _______ _______ _______ _____ _____    ______ ____
ROOT
ATOM      1  N   LIG    1       -0.092  -4.265   0.717  0.00  0.00    -0.520 N 
ATOM      2  C   LIG    1       -1.229  -5.022   0.550  0.00  0.00    +0.500 A 
ATOM      3  C   LIG    1       -2.450  -4.380   0.225  0.00  0.00    -0.350 A 
ATOM      4  C   LIG    1       -3.668  -5.191   0.199  0.00  0.00    +0.550 A 
ATOM      5  N   LIG    1       -3.543  -6.525   0.395  0.00  0.00    -0.440 N 
ATOM      6  C   LIG    1       -4.658  -7.307   0.352  0.00  0.00    +0.290 A 
ATOM      7  C   LIG    1       -4.573  -8.645   0.525  0.00  0.00    +0.010 A 
ATOM      8  C   LIG    1       -3.326  -9.244   0.754  0.00  0.00    +0.140 A 
ATOM      9  C   LIG    1       -2.207  -8.469   0.807  0.00  0.00    -0.110 A 
ATOM     10  C   LIG    1       -0.859  -9.100   1.049  0.00  0.00    +0.140 C 
ATOM     11  C   LIG    1       -2.315  -7.076   0.634  0.00  0.00    +0.450 A 
ATOM     12  O   LIG    1       -4.758  -4.683   0.008  0.00  0.00    -0.480 OA
ATOM     13  C   LIG    1       -2.485  -3.006  -0.028  0.00  0.00    +0.300 A 
ATOM     14  C   LIG    1       -1.284  -2.294  -0.078  0.00  0.00    -0.230 A 
ATOM     15  N   LIG    1       -1.210  -6.333   0.720  0.00  0.00    -0.570 NA
ATOM     16  C   LIG    1       -0.030  -3.047   0.065  0.00  0.00    +0.510 A 
ATOM     17  N   LIG    1        1.116  -2.574  -0.409  0.00  0.00    -0.570 NA
ENDROOT
BRANCH  14  18
ATOM     18  C   LIG    1       -1.274  -0.839  -0.274  0.00  0.00    +0.540 C 
ATOM     19  O   LIG    1       -2.322  -0.235  -0.395  0.00  0.00    -0.520 OA
BRANCH  18  20
ATOM     20  O   LIG    1       -0.103  -0.172  -0.319  0.00  0.00    -0.330 OA
BRANCH  20  21
ATOM     21  C   LIG    1       -0.169   1.265  -0.516  0.00  0.00    +0.200 C 
ATOM     22  C   LIG    1        1.248   1.842  -0.540  0.00  0.00    +0.060 C 
ENDBRANCH  20  21
ENDBRANCH  18  20
ENDBRANCH  14  18
BRANCH  17  23
ATOM     23  C   LIG    1        2.206  -3.357  -0.434  0.00  0.00    +0.520 C 
ATOM     24  O   LIG    1        2.183  -4.417  -1.040  0.00  0.00    -0.510 OA
BRANCH  23  25
ATOM     25  C   LIG    1        3.422  -2.940   0.262  0.00  0.00    -0.100 C 
ATOM     26  C   LIG    1        4.563  -3.659   0.124  0.00  0.00    +0.120 C 
BRANCH  26  27
ATOM     27  C   LIG    1        4.633  -4.695  -0.834  0.00  0.00    -0.080 C 
ATOM     28  C   LIG    1        5.721  -5.486  -0.891  0.00  0.00    +0.200 C 
BRANCH  28  29
ATOM     29  O   LIG    1        5.746  -6.538  -1.737  0.00  0.00    -0.320 OA
ATOM     30  C   LIG    1        6.885  -7.399  -1.667  0.00  0.00    +0.250 C 
ENDBRANCH  28  29
ENDBRANCH  26  27
ENDBRANCH  23  25
ENDBRANCH  17  23
BRANCH   1  31
ATOM     31  C   LIG    1        1.017  -4.737   1.551  0.00  0.00    +0.300 C 
BRANCH  31  32
ATOM     32  C   LIG    1        0.877  -4.157   2.960  0.00  0.00    +0.020 C 
BRANCH  32  33
ATOM     33  C   LIG    1        2.098  -4.548   3.795  0.00  0.00    +0.170 C 
BRANCH  33  34
ATOM     34  O   LIG    1        1.914  -4.107   5.142  0.00  0.00    -0.390 OA
BRANCH  34  36
ATOM     35  C   LIG    1        2.590  -4.103   7.462  0.00  0.00    +0.040 C 
ATOM     36  C   LIG    1        2.950  -4.521   6.035  0.00  0.00    +0.160 C 
ENDBRANCH  34  36
ENDBRANCH  33  34
ENDBRANCH  32  33
ENDBRANCH  31  32
ENDBRANCH   1  31
TORSDOF 12
