REMARK  Name = ZINCpk00000y6vc5.0
REMARK                            x       y       z     vdW  Elec       q    Type
REMARK                         _______ _______ _______ _____ _____    ______ ____
ROOT
ATOM      1  C   LIG    1        1.138  -5.141  -1.370  0.00  0.00    +0.580 C 
ATOM      2  N   LIG    1        0.853  -3.972  -0.763  0.00  0.00    -0.620 N 
ATOM      3  C   LIG    1        0.285  -3.765   0.590  0.00  0.00    +0.280 C 
ATOM      4  C   LIG    1        1.048  -2.547   1.151  0.00  0.00    +0.010 C 
ATOM      5  C   LIG    1        1.544  -1.780  -0.093  0.00  0.00    +0.080 C 
ATOM      6  C   LIG    1        1.038  -2.602  -1.298  0.00  0.00    +0.260 C 
ATOM      7  O   LIG    1        1.035  -6.185  -0.757  0.00  0.00    -0.520 OA
ENDROOT
BRANCH   1  10
ATOM      8  C   LIG    1        1.749  -4.123  -4.944  0.00  0.00    +0.320 A 
ATOM      9  C   LIG    1        1.315  -4.071  -3.626  0.00  0.00    -0.020 A 
ATOM     10  C   LIG    1        1.578  -5.153  -2.785  0.00  0.00    -0.050 A 
ATOM     11  C   LIG    1        2.263  -6.252  -3.315  0.00  0.00    -0.010 A 
ATOM     12  C   LIG    1        2.655  -6.225  -4.638  0.00  0.00    +0.310 A 
ATOM     13  N   LIG    1        2.393  -5.183  -5.402  0.00  0.00    -0.530 NA
BRANCH   8  14
ATOM     14  O   LIG    1        1.505  -3.077  -5.773  0.00  0.00    -0.300 OA
BRANCH  14  16
ATOM     15  C   LIG    1        0.882  -3.831  -7.983  0.00  0.00    +0.020 C 
ATOM     16  C   LIG    1        1.971  -3.192  -7.118  0.00  0.00    +0.170 C 
ATOM     17  C   LIG    1        2.305  -1.802  -7.663  0.00  0.00    +0.060 C 
ENDBRANCH  14  16
ENDBRANCH   8  14
ENDBRANCH   1  10
BRANCH   5  18
ATOM     18  C   LIG    1        0.956  -0.392  -0.121  0.00  0.00    -0.230 A 
ATOM     19  C   LIG    1        1.653   0.767  -0.137  0.00  0.00    +0.240 A 
ATOM     20  N   LIG    1        0.763   1.782  -0.161  0.00  0.00    -0.370 N 
ATOM     21  N   LIG    1       -0.523   1.227  -0.161  0.00  0.00    -0.290 NA
ATOM     22  C   LIG    1        1.086   3.211  -0.184  0.00  0.00    +0.360 C 
ATOM     23  C   LIG    1       -0.406  -0.076  -0.137  0.00  0.00    +0.240 A 
ENDBRANCH   5  18
BRANCH   4  24
ATOM     24  C   LIG    1        2.235  -3.007   1.999  0.00  0.00    +0.180 C 
BRANCH  24  25
ATOM     25  O   LIG    1        1.755  -3.612   3.202  0.00  0.00    -0.570 OA
ATOM     26  H   LIG    1        2.455  -3.928   3.790  0.00  0.00    +0.380 HD
ENDBRANCH  24  25
ENDBRANCH   4  24
TORSDOF 6
