REMARK  Name = ZINCpk00000ebBhu.0
REMARK                            x       y       z     vdW  Elec       q    Type
REMARK                         _______ _______ _______ _____ _____    ______ ____
ROOT
ATOM      1  O   LIG    1       -2.424   7.162   1.954  0.00  0.00    -0.570 OA
ATOM      2  C   LIG    1       -2.673   6.398   1.042  0.00  0.00    +0.710 C 
ATOM      3  N   LIG    1       -3.380   6.827  -0.023  0.00  0.00    -0.570 N 
ATOM      4  C   LIG    1       -3.730   8.224  -0.291  0.00  0.00    +0.280 C 
ATOM      5  C   LIG    1       -4.526   8.195  -1.606  0.00  0.00    +0.090 C 
ATOM      6  C   LIG    1       -4.574   6.733  -1.989  0.00  0.00    -0.140 A 
ATOM      7  C   LIG    1       -5.156   6.099  -3.070  0.00  0.00    +0.060 A 
ATOM      8  C   LIG    1       -5.062   4.726  -3.203  0.00  0.00    -0.020 A 
ATOM      9  C   LIG    1       -4.383   3.988  -2.251  0.00  0.00    +0.050 A 
ATOM     10  C   LIG    1       -3.801   4.617  -1.171  0.00  0.00    -0.030 A 
ATOM     11  C   LIG    1       -3.892   6.002  -1.030  0.00  0.00    +0.150 A 
ATOM     12  N   LIG    1       -2.241   5.122   1.094  0.00  0.00    -0.730 N 
ATOM     13  H   LIG    1       -2.349   4.541   0.325  0.00  0.00    +0.410 HD
ENDROOT
BRANCH  12  14
ATOM     14  C   LIG    1       -1.609   4.613   2.314  0.00  0.00    +0.290 C 
BRANCH  14  15
ATOM     15  C   LIG    1       -1.327   3.117   2.155  0.00  0.00    +0.170 C 
BRANCH  15  16
ATOM     16  N   LIG    1       -0.491   2.900   0.967  0.00  0.00    -0.530 NA
ATOM     17  C   LIG    1        0.871   3.410   1.181  0.00  0.00    +0.150 C 
ATOM     18  C   LIG    1        1.689   3.217  -0.099  0.00  0.00    +0.220 C 
ATOM     19  O   LIG    1        1.679   1.834  -0.461  0.00  0.00    -0.380 OA
ATOM     20  C   LIG    1        0.368   1.305  -0.678  0.00  0.00    +0.220 C 
ATOM     21  C   LIG    1       -0.463   1.478   0.596  0.00  0.00    +0.150 C 
ENDBRANCH  15  16
BRANCH  15  22
ATOM     22  C   LIG    1       -0.594   2.602   3.396  0.00  0.00    -0.050 C 
ATOM     23  C   LIG    1       -1.383   2.957   4.676  0.00  0.00    +0.010 C 
ATOM     24  C   LIG    1       -1.723   1.584   5.300  0.00  0.00    +0.190 C 
ATOM     25  O   LIG    1       -0.718   0.685   4.782  0.00  0.00    -0.370 OA
ATOM     26  C   LIG    1       -0.551   1.058   3.397  0.00  0.00    +0.200 C 
ENDBRANCH  15  22
ENDBRANCH  14  15
ENDBRANCH  12  14
TORSDOF 4
