REMARK  Name = ZINCpe00000gNbpH.0
REMARK                            x       y       z     vdW  Elec       q    Type
REMARK                         _______ _______ _______ _____ _____    ______ ____
ROOT
ATOM      1  C   LIG    1        0.341   6.136   1.686  0.00  0.00    -0.320 C 
ENDROOT
BRANCH   1   3
ATOM      2  O   LIG    1        0.077   8.312   0.810  0.00  0.00    -0.470 OA
ATOM      3  C   LIG    1        0.437   7.639   1.752  0.00  0.00    +0.530 C 
ATOM      4  N   LIG    1        0.925   8.235   2.858  0.00  0.00    -0.610 N 
ATOM      5  C   LIG    1        1.434   7.569   4.078  0.00  0.00    +0.250 C 
ATOM      6  C   LIG    1        2.329   8.664   4.716  0.00  0.00    +0.240 C 
ATOM      7  O   LIG    1        1.595   9.874   4.416  0.00  0.00    -0.350 OA
ATOM      8  C   LIG    1        1.053   9.679   3.101  0.00  0.00    +0.320 C 
ATOM      9  C   LIG    1       -0.323  10.342   3.007  0.00  0.00    +0.010 C 
ATOM     10  C   LIG    1       -0.855  10.195   1.579  0.00  0.00    +0.220 C 
ATOM     11  O   LIG    1        0.079  10.771   0.663  0.00  0.00    -0.370 OA
ATOM     12  C   LIG    1        1.366  10.150   0.671  0.00  0.00    +0.220 C 
ATOM     13  C   LIG    1        1.992  10.295   2.061  0.00  0.00    -0.000 C 
ENDBRANCH   1   3
BRANCH   1  14
ATOM     14  S   LIG    1       -0.349   5.645   0.082  0.00  0.00    +2.540 S 
ATOM     15  O   LIG    1       -1.712   6.034  -0.015  0.00  0.00    -0.910 OA
ATOM     16  O   LIG    1        0.570   5.928  -0.964  0.00  0.00    -0.900 OA
BRANCH  14  17
ATOM     17  C   LIG    1       -0.403   3.885   0.148  0.00  0.00    -0.630 A 
ATOM     18  C   LIG    1       -1.595   3.241   0.124  0.00  0.00    +0.220 A 
ATOM     19  C   LIG    1       -1.675   1.849   0.169  0.00  0.00    +0.030 A 
ATOM     20  C   LIG    1       -0.564   1.077   0.250  0.00  0.00    +0.150 A 
ATOM     21  C   LIG    1        0.717   1.683   0.280  0.00  0.00    +0.060 A 
ATOM     22  N   LIG    1        1.927   1.152   0.350  0.00  0.00    -0.580 NA
ATOM     23  S   LIG    1        2.991   2.287   0.349  0.00  0.00    +0.840 S 
ATOM     24  N   LIG    1        2.064   3.533   0.263  0.00  0.00    -0.610 NA
ATOM     25  C   LIG    1        0.801   3.140   0.226  0.00  0.00    +0.140 A 
ENDBRANCH  14  17
ENDBRANCH   1  14
TORSDOF 3
