REMARK  Name = ZINCqH0000036etV.0
REMARK                            x       y       z     vdW  Elec       q    Type
REMARK                         _______ _______ _______ _____ _____    ______ ____
ROOT
ATOM      1  N   LIG    1       -2.482  -0.370   0.014  0.00  0.00    -0.700 N 
ATOM      2  H   LIG    1       -1.636  -0.843  -0.045  0.00  0.00    +0.400 HD
ATOM      3  C   LIG    1       -2.503   0.977  -0.003  0.00  0.00    +0.570 C 
ATOM      4  O   LIG    1       -3.566   1.567  -0.030  0.00  0.00    -0.510 OA
ENDROOT
BRANCH   3   5
ATOM      5  C   LIG    1       -1.237   1.736   0.011  0.00  0.00    -0.210 A 
ATOM      6  C   LIG    1       -0.007   1.067   0.042  0.00  0.00    +0.370 A 
ATOM      7  N   LIG    1        1.132   1.723   0.049  0.00  0.00    -0.460 NA
ATOM      8  C   LIG    1        1.175   3.046   0.033  0.00  0.00    +0.230 A 
ATOM      9  O   LIG    1        2.156   3.965   0.035  0.00  0.00    +0.090 OA
ATOM     10  N   LIG    1        1.742   5.100   0.015  0.00  0.00    -0.310 NA
ATOM     11  C   LIG    1        0.445   5.179  -0.004  0.00  0.00    +0.080 A 
ATOM     12  C   LIG    1       -0.025   3.790   0.007  0.00  0.00    -0.220 A 
ATOM     13  C   LIG    1       -1.247   3.136  -0.002  0.00  0.00    +0.230 A 
BRANCH  11  14
ATOM     14  C   LIG    1       -0.396   6.429  -0.032  0.00  0.00    +0.080 C 
ATOM     15  C   LIG    1       -0.065   7.239  -1.287  0.00  0.00    +0.040 C 
ATOM     16  C   LIG    1       -0.100   7.271   1.211  0.00  0.00    +0.040 C 
ENDBRANCH  11  14
ENDBRANCH   3   5
BRANCH   1  17
ATOM     17  C   LIG    1       -3.734  -1.122   0.123  0.00  0.00    +0.140 C 
ATOM     18  C   LIG    1       -3.734  -2.571  -0.368  0.00  0.00    +0.060 C 
ATOM     19  C   LIG    1       -4.453  -1.489  -1.176  0.00  0.00    +0.040 C 
BRANCH  17  24
ATOM     20  C   LIG    1       -4.792   0.035   3.562  0.00  0.00    +0.130 A 
ATOM     21  C   LIG    1       -6.159  -0.195   3.520  0.00  0.00    -0.080 A 
ATOM     22  C   LIG    1       -6.735  -0.722   2.381  0.00  0.00    +0.060 A 
ATOM     23  C   LIG    1       -5.950  -1.021   1.282  0.00  0.00    -0.020 A 
ATOM     24  C   LIG    1       -4.587  -0.794   1.322  0.00  0.00    -0.000 A 
ATOM     25  C   LIG    1       -4.005  -0.272   2.461  0.00  0.00    -0.020 A 
BRANCH  20  27
ATOM     26  C   LIG    1       -5.092   0.840   5.778  0.00  0.00    +0.250 C 
ATOM     27  O   LIG    1       -4.222   0.554   4.681  0.00  0.00    -0.320 OA
ENDBRANCH  20  27
ENDBRANCH  17  24
ENDBRANCH   1  17
TORSDOF 5
