REMARK  Name = ZINCnE000001OCsP.0
REMARK                            x       y       z     vdW  Elec       q    Type
REMARK                         _______ _______ _______ _____ _____    ______ ____
ROOT
ATOM      1  C   LIG    1       -2.538   1.183   0.513  0.00  0.00    -0.120 A 
ATOM      2  C   LIG    1       -2.780  -0.109   0.052  0.00  0.00    +0.070 A 
ATOM      3  C   LIG    1       -3.986  -0.722   0.307  0.00  0.00    -0.020 A 
ATOM      4  C   LIG    1       -4.980  -0.054   1.020  0.00  0.00    +0.140 A 
ATOM      5  O   LIG    1       -6.223  -0.474   1.383  0.00  0.00    -0.270 OA
ATOM      6  C   LIG    1       -7.034   0.668   1.709  0.00  0.00    +0.090 C 
ATOM      7  C   LIG    1       -5.989   1.705   2.185  0.00  0.00    +0.090 C 
ATOM      8  C   LIG    1       -4.737   1.240   1.468  0.00  0.00    -0.180 A 
ATOM      9  C   LIG    1       -3.533   1.857   1.223  0.00  0.00    +0.090 A 
ENDROOT
BRANCH   1  13
ATOM     10  C   LIG    1        2.068   1.156  -1.459  0.00  0.00    +0.120 C 
ATOM     11  C   LIG    1        0.961   1.831  -0.693  0.00  0.00    -0.070 A 
ATOM     12  C   LIG    1       -0.235   1.172  -0.465  0.00  0.00    +0.060 A 
ATOM     13  C   LIG    1       -1.235   1.841   0.246  0.00  0.00    -0.020 A 
ATOM     14  C   LIG    1       -0.988   3.133   0.704  0.00  0.00    +0.260 A 
ATOM     15  N   LIG    1        0.167   3.720   0.462  0.00  0.00    -0.430 NA
ATOM     16  C   LIG    1        1.128   3.116  -0.210  0.00  0.00    +0.010 A 
BRANCH  16  17
ATOM     17  C   LIG    1        2.428   3.838  -0.455  0.00  0.00    +0.520 C 
ATOM     18  F   LIG    1        3.470   3.146   0.171  0.00  0.00    -0.170 F 
ATOM     19  F   LIG    1        2.348   5.133   0.067  0.00  0.00    -0.160 F 
ATOM     20  F   LIG    1        2.672   3.904  -1.831  0.00  0.00    -0.170 F 
ENDBRANCH  16  17
ENDBRANCH   1  13
BRANCH   6  21
ATOM     21  C   LIG    1       -8.004   0.341   2.815  0.00  0.00    +0.510 C 
ATOM     22  O   LIG    1       -8.038  -0.785   3.283  0.00  0.00    -0.670 OA
ATOM     23  O   LIG    1       -8.755   1.201   3.241  0.00  0.00    -0.680 OA
ENDBRANCH   6  21
TORSDOF 3
