REMARK  Name = ZINCwl0000000jZJ.0
REMARK                            x       y       z     vdW  Elec       q    Type
REMARK                         _______ _______ _______ _____ _____    ______ ____
ROOT
ATOM      1  C   LIG    1        0.269   7.656   0.540  0.00  0.00    +0.610 C 
ATOM      2  N   LIG    1        0.143   6.316   0.469  0.00  0.00    -0.630 N 
ATOM      3  C   LIG    1       -1.106   5.521   0.441  0.00  0.00    +0.270 C 
ATOM      4  C   LIG    1       -0.833   4.397  -0.580  0.00  0.00    +0.000 C 
ATOM      5  C   LIG    1       -1.353   3.067  -0.020  0.00  0.00    +0.270 C 
ATOM      6  N   LIG    1       -0.261   2.091  -0.172  0.00  0.00    -0.610 N 
ATOM      7  C   LIG    1        0.997   2.847  -0.055  0.00  0.00    +0.290 C 
ATOM      8  C   LIG    1       -0.388   0.766  -0.382  0.00  0.00    +0.530 C 
ATOM      9  O   LIG    1        0.601   0.073  -0.495  0.00  0.00    -0.490 OA
ATOM     10  C   LIG    1        0.711   4.253  -0.608  0.00  0.00    -0.080 C 
ATOM     11  C   LIG    1        1.308   4.455  -2.002  0.00  0.00    +0.070 C 
ATOM     12  C   LIG    1        1.223   5.304   0.400  0.00  0.00    +0.290 C 
ATOM     13  O   LIG    1        1.366   8.171   0.433  0.00  0.00    -0.500 OA
ENDROOT
BRANCH   1  18
ATOM     14  C   LIG    1       -2.085  12.779   0.766  0.00  0.00    +0.120 C 
ATOM     15  C   LIG    1       -2.891  11.528   1.003  0.00  0.00    -0.060 A 
ATOM     16  C   LIG    1       -2.274  10.272   0.938  0.00  0.00    -0.100 A 
ATOM     17  C   LIG    1       -0.946   9.854   0.685  0.00  0.00    +0.070 A 
ATOM     18  C   LIG    1       -0.920   8.496   0.746  0.00  0.00    +0.010 A 
ATOM     19  N   LIG    1       -2.188   8.032   1.039  0.00  0.00    -0.580 N 
ATOM     20  H   LIG    1       -2.438   7.101   1.142  0.00  0.00    +0.420 HD
ATOM     21  C   LIG    1       -3.036   9.108   1.161  0.00  0.00    +0.110 A 
ATOM     22  C   LIG    1       -4.394   9.222   1.442  0.00  0.00    +0.020 A 
ATOM     23  C   LIG    1       -4.979  10.467   1.502  0.00  0.00    +0.030 A 
ATOM     24  C   LIG    1       -4.226  11.616   1.281  0.00  0.00    +0.070 A 
ATOM     25  F   LIG    1       -4.819  12.828   1.343  0.00  0.00    -0.140 F 
ENDBRANCH   1  18
BRANCH   8  26
ATOM     26  C   LIG    1       -1.758   0.146  -0.476  0.00  0.00    +0.200 C 
ATOM     27  C   LIG    1       -2.510   0.742  -1.669  0.00  0.00    +0.250 C 
ATOM     28  N   LIG    1       -2.854  -0.327  -2.615  0.00  0.00    -0.380 N 
ATOM     29  C   LIG    1       -1.628  -0.977  -3.095  0.00  0.00    +0.220 C 
ATOM     30  C   LIG    1       -0.871  -1.585  -1.904  0.00  0.00    +0.280 C 
ATOM     31  C   LIG    1       -3.712  -1.317  -1.951  0.00  0.00    +0.230 C 
ATOM     32  C   LIG    1       -2.966  -1.924  -0.760  0.00  0.00    +0.270 C 
ATOM     33  H   LIG    1       -3.347   0.068  -3.402  0.00  0.00    +0.440 HD
ATOM     34  N   LIG    1       -1.629  -1.308  -0.671  0.00  0.00    -0.480 NA
ENDBRANCH   8  26
TORSDOF 2
