REMARK  Name = ZINCtj0000003uul.0
REMARK                            x       y       z     vdW  Elec       q    Type
REMARK                         _______ _______ _______ _____ _____    ______ ____
ROOT
ATOM      1  C   LIG    1        4.995   6.411  -1.740  0.00  0.00    +0.510 C 
ATOM      2  N   LIG    1        4.291   5.591  -0.934  0.00  0.00    -0.590 N 
ATOM      3  C   LIG    1        4.434   4.130  -1.033  0.00  0.00    +0.320 C 
ATOM      4  C   LIG    1        3.037   3.512  -1.157  0.00  0.00    +0.210 C 
ATOM      5  N   LIG    1        2.198   3.980  -0.045  0.00  0.00    -0.510 NA
ATOM      6  C   LIG    1        2.006   5.436  -0.099  0.00  0.00    +0.140 C 
ATOM      7  C   LIG    1        1.067   5.869   1.029  0.00  0.00    +0.050 C 
ATOM      8  C   LIG    1        3.361   6.133   0.068  0.00  0.00    +0.320 C 
ATOM      9  O   LIG    1        4.885   7.614  -1.626  0.00  0.00    -0.510 OA
ENDROOT
BRANCH   5  10
ATOM     10  C   LIG    1        0.975   3.316  -0.030  0.00  0.00    +0.240 C 
ATOM     11  C   LIG    1        0.024   3.546  -1.023  0.00  0.00    +0.010 C 
ATOM     12  C   LIG    1       -1.176   2.867  -0.972  0.00  0.00    +0.360 C 
ATOM     13  N   LIG    1       -1.430   2.015   0.004  0.00  0.00    -0.450 NA
ATOM     14  C   LIG    1       -0.553   1.767   0.959  0.00  0.00    +0.350 C 
ATOM     15  H   LIG    1       -2.284   1.555   0.017  0.00  0.00    +0.450 HD
ATOM     16  C   LIG    1        0.669   2.404   0.980  0.00  0.00    +0.080 C 
ENDBRANCH   5  10
BRANCH   1  19
ATOM     17  N   LIG    1        6.510   6.651  -3.666  0.00  0.00    -0.680 N 
ATOM     18  H   LIG    1        6.348   7.606  -3.638  0.00  0.00    +0.420 HD
ATOM     19  C   LIG    1        5.910   5.839  -2.773  0.00  0.00    +0.510 C 
ATOM     20  O   LIG    1        6.113   4.643  -2.808  0.00  0.00    -0.510 OA
BRANCH  17  21
ATOM     21  C   LIG    1        7.407   6.090  -4.679  0.00  0.00    +0.400 C 
BRANCH  21  27
ATOM     22  C   LIG    1       11.118  11.513  -8.061  0.00  0.00    +0.130 C 
ATOM     23  C   LIG    1       10.044  10.508  -7.736  0.00  0.00    -0.100 A 
ATOM     24  C   LIG    1       10.189   9.689  -6.673  0.00  0.00    +0.210 A 
ATOM     25  N   LIG    1        9.225   8.773  -6.365  0.00  0.00    -0.360 N 
ATOM     26  C   LIG    1        9.119   7.840  -5.369  0.00  0.00    +0.120 A 
ATOM     27  C   LIG    1        7.943   7.200  -5.546  0.00  0.00    +0.030 A 
ATOM     28  N   LIG    1        7.336   7.710  -6.620  0.00  0.00    -0.480 NA
ATOM     29  C   LIG    1        8.093   8.671  -7.132  0.00  0.00    +0.230 A 
ATOM     30  C   LIG    1        7.927   9.520  -8.245  0.00  0.00    +0.070 A 
ATOM     31  C   LIG    1        8.895  10.428  -8.541  0.00  0.00    +0.060 A 
ENDBRANCH  21  27
ENDBRANCH  17  21
ENDBRANCH   1  19
TORSDOF 4
