REMARK  Name = ZINCpk00001AZj0P.0
REMARK                            x       y       z     vdW  Elec       q    Type
REMARK                         _______ _______ _______ _____ _____    ______ ____
ROOT
ATOM      1  C   LIG    1       -3.731  -1.055  -0.201  0.00  0.00    +0.380 C 
ENDROOT
BRANCH   1   4
ATOM      2  C   LIG    1       -3.076  -4.577   0.205  0.00  0.00    -0.260 A 
ATOM      3  C   LIG    1       -3.338  -3.354   0.722  0.00  0.00    +0.120 A 
ATOM      4  N   LIG    1       -3.449  -2.489  -0.308  0.00  0.00    -0.360 N 
ATOM      5  N   LIG    1       -3.254  -3.204  -1.496  0.00  0.00    -0.280 NA
ATOM      6  C   LIG    1       -3.482  -3.019   2.184  0.00  0.00    +0.150 C 
ATOM      7  C   LIG    1       -3.025  -4.455  -1.187  0.00  0.00    +0.100 A 
ATOM      8  C   LIG    1       -2.758  -5.572  -2.163  0.00  0.00    +0.160 C 
BRANCH   2   9
ATOM      9  C   LIG    1       -2.874  -5.847   0.992  0.00  0.00    +0.350 C 
BRANCH   9  12
ATOM     10  C   LIG    1       -5.554  -8.372   2.040  0.00  0.00    +0.090 C 
ATOM     11  C   LIG    1       -4.228  -7.681   1.853  0.00  0.00    +0.510 C 
ATOM     12  N   LIG    1       -4.164  -6.518   1.174  0.00  0.00    -0.730 N 
ATOM     13  H   LIG    1       -4.971  -6.126   0.806  0.00  0.00    +0.400 HD
ATOM     14  O   LIG    1       -3.218  -8.172   2.312  0.00  0.00    -0.550 OA
ENDBRANCH   9  12
ENDBRANCH   2   9
ENDBRANCH   1   4
BRANCH   1  15
ATOM     15  C   LIG    1       -2.434  -0.295  -0.090  0.00  0.00    +0.500 C 
ATOM     16  N   LIG    1       -2.447   1.048   0.019  0.00  0.00    -0.680 N 
ATOM     17  H   LIG    1       -3.291   1.520   0.100  0.00  0.00    +0.420 HD
ATOM     18  O   LIG    1       -1.379  -0.893  -0.098  0.00  0.00    -0.490 OA
BRANCH  16  19
ATOM     19  C   LIG    1       -1.246   1.761   0.017  0.00  0.00    +0.180 A 
ATOM     20  C   LIG    1       -0.930   2.584   1.062  0.00  0.00    +0.020 A 
ATOM     21  C   LIG    1        0.283   3.295   1.032  0.00  0.00    +0.110 A 
ATOM     22  C   LIG    1        0.877   4.191   1.913  0.00  0.00    -0.120 A 
ATOM     23  C   LIG    1        2.087   4.580   1.362  0.00  0.00    +0.270 A 
ATOM     24  N   LIG    1        2.248   3.970   0.209  0.00  0.00    -0.320 NA
ATOM     25  N   LIG    1        1.136   3.154  -0.033  0.00  0.00    -0.280 N 
ATOM     26  C   LIG    1        0.812   2.324  -1.068  0.00  0.00    +0.300 A 
ATOM     27  C   LIG    1       -0.345   1.633  -1.062  0.00  0.00    -0.010 A 
ENDBRANCH  16  19
ENDBRANCH   1  15
TORSDOF 5
