REMARK  Name = ZINCwl0000000pHz.1
REMARK                            x       y       z     vdW  Elec       q    Type
REMARK                         _______ _______ _______ _____ _____    ______ ____
ROOT
ATOM      1  O   LIG    1       -0.506  -0.622   0.913  0.00  0.00    -0.490 OA
ATOM      2  C   LIG    1        0.002  -0.004   0.002  0.00  0.00    +0.520 C 
ATOM      3  N   LIG    1        0.585  -0.664  -1.018  0.00  0.00    -0.740 N 
ATOM      4  H   LIG    1        0.992  -0.170  -1.747  0.00  0.00    +0.400 HD
ENDROOT
BRANCH   3   5
ATOM      5  C   LIG    1        0.605  -2.129  -1.026  0.00  0.00    +0.270 C 
ATOM      6  C   LIG    1        1.825  -2.653  -0.241  0.00  0.00    +0.060 C 
ATOM      7  C   LIG    1        2.653  -3.451  -1.272  0.00  0.00    +0.270 C 
ATOM      8  N   LIG    1        2.261  -2.883  -2.587  0.00  0.00    -0.400 N 
ATOM      9  H   LIG    1        2.743  -2.012  -2.753  0.00  0.00    +0.430 HD
ATOM     10  C   LIG    1        0.798  -2.655  -2.465  0.00  0.00    +0.280 C 
BRANCH   8  11
ATOM     11  C   LIG    1        2.543  -3.841  -3.665  0.00  0.00    +0.330 C 
BRANCH  11  12
ATOM     12  C   LIG    1        4.032  -4.033  -3.789  0.00  0.00    -0.160 A 
ATOM     13  C   LIG    1        4.765  -3.224  -4.637  0.00  0.00    +0.040 A 
ATOM     14  C   LIG    1        6.132  -3.397  -4.748  0.00  0.00    +0.030 A 
ATOM     15  C   LIG    1        6.765  -4.385  -4.017  0.00  0.00    +0.060 A 
ATOM     16  C   LIG    1        6.032  -5.197  -3.172  0.00  0.00    +0.030 A 
ATOM     17  C   LIG    1        4.665  -5.021  -3.058  0.00  0.00    +0.040 A 
ENDBRANCH  11  12
ENDBRANCH   8  11
ENDBRANCH   3   5
BRANCH   2  18
ATOM     18  C   LIG    1       -0.018   1.503   0.010  0.00  0.00    +0.220 C 
BRANCH  18  19
ATOM     19  N   LIG    1       -0.706   1.976   1.219  0.00  0.00    -0.520 NA
ATOM     20  C   LIG    1       -2.126   1.601   1.198  0.00  0.00    +0.180 C 
ATOM     21  C   LIG    1       -2.763   1.950   2.547  0.00  0.00    +0.320 C 
ATOM     22  N   LIG    1       -2.499   3.368   2.835  0.00  0.00    -1.000 NA
ATOM     23  C   LIG    1       -1.113   3.851   2.741  0.00  0.00    +0.310 C 
ATOM     24  C   LIG    1       -0.541   3.427   1.384  0.00  0.00    +0.170 C 
BRANCH  22  25
ATOM     25  S   LIG    1       -3.730   4.394   3.255  0.00  0.00    +2.600 S 
ATOM     26  O   LIG    1       -3.095   5.407   4.022  0.00  0.00    -0.940 OA
ATOM     27  O   LIG    1       -4.712   3.545   3.832  0.00  0.00    -0.940 OA
BRANCH  25  28
ATOM     28  C   LIG    1       -4.318   5.065   1.675  0.00  0.00    -0.300 C 
BRANCH  28  29
ATOM     29  C   LIG    1       -5.452   6.024   1.928  0.00  0.00    -0.100 A 
ATOM     30  C   LIG    1       -6.756   5.564   1.947  0.00  0.00    +0.020 A 
ATOM     31  C   LIG    1       -7.796   6.443   2.184  0.00  0.00    +0.010 A 
ATOM     32  C   LIG    1       -7.534   7.784   2.392  0.00  0.00    +0.020 A 
ATOM     33  C   LIG    1       -6.231   8.245   2.368  0.00  0.00    +0.010 A 
ATOM     34  C   LIG    1       -5.190   7.366   2.136  0.00  0.00    +0.020 A 
ENDBRANCH  28  29
ENDBRANCH  25  28
ENDBRANCH  22  25
ENDBRANCH  18  19
ENDBRANCH   2  18
TORSDOF 8
