REMARK  Name = ZINCwl0000000pHz.0
REMARK                            x       y       z     vdW  Elec       q    Type
REMARK                         _______ _______ _______ _____ _____    ______ ____
ROOT
ATOM      1  O   LIG    1       -3.416   2.550  -2.997  0.00  0.00    -0.500 OA
ATOM      2  C   LIG    1       -3.728   1.463  -2.560  0.00  0.00    +0.520 C 
ATOM      3  N   LIG    1       -3.193   1.023  -1.403  0.00  0.00    -0.730 N 
ATOM      4  H   LIG    1       -3.442   0.153  -1.054  0.00  0.00    +0.410 HD
ENDROOT
BRANCH   3   5
ATOM      5  C   LIG    1       -2.235   1.858  -0.674  0.00  0.00    +0.250 C 
ATOM      6  C   LIG    1       -0.806   1.620  -1.204  0.00  0.00    +0.070 C 
ATOM      7  C   LIG    1       -0.013   1.086   0.008  0.00  0.00    +0.270 C 
ATOM      8  N   LIG    1       -0.753   1.587   1.194  0.00  0.00    -0.390 N 
ATOM      9  H   LIG    1       -0.528   2.555   1.368  0.00  0.00    +0.430 HD
ATOM     10  C   LIG    1       -2.185   1.447   0.813  0.00  0.00    +0.270 C 
BRANCH   8  11
ATOM     11  C   LIG    1       -0.450   0.767   2.374  0.00  0.00    +0.320 C 
BRANCH  11  12
ATOM     12  C   LIG    1        0.997   0.949   2.754  0.00  0.00    -0.160 A 
ATOM     13  C   LIG    1        1.962   0.116   2.220  0.00  0.00    +0.040 A 
ATOM     14  C   LIG    1        3.290   0.286   2.564  0.00  0.00    +0.030 A 
ATOM     15  C   LIG    1        3.652   1.283   3.451  0.00  0.00    +0.060 A 
ATOM     16  C   LIG    1        2.686   2.113   3.989  0.00  0.00    +0.030 A 
ATOM     17  C   LIG    1        1.359   1.946   3.641  0.00  0.00    +0.040 A 
ENDBRANCH  11  12
ENDBRANCH   8  11
ENDBRANCH   3   5
BRANCH   2  18
ATOM     18  C   LIG    1       -4.713   0.604  -3.310  0.00  0.00    +0.220 C 
BRANCH  18  19
ATOM     19  N   LIG    1       -5.145   1.303  -4.527  0.00  0.00    -0.520 NA
ATOM     20  C   LIG    1       -5.907   2.515  -4.196  0.00  0.00    +0.180 C 
ATOM     21  C   LIG    1       -6.181   3.307  -5.479  0.00  0.00    +0.320 C 
ATOM     22  N   LIG    1       -6.827   2.413  -6.452  0.00  0.00    -1.000 NA
ATOM     23  C   LIG    1       -6.191   1.117  -6.733  0.00  0.00    +0.310 C 
ATOM     24  C   LIG    1       -5.917   0.410  -5.402  0.00  0.00    +0.170 C 
BRANCH  22  25
ATOM     25  S   LIG    1       -8.231   2.854  -7.211  0.00  0.00    +2.600 S 
ATOM     26  O   LIG    1       -8.212   2.128  -8.432  0.00  0.00    -0.940 OA
ATOM     27  O   LIG    1       -8.202   4.275  -7.203  0.00  0.00    -0.940 OA
BRANCH  25  28
ATOM     28  C   LIG    1       -9.546   2.237  -6.125  0.00  0.00    -0.300 C 
BRANCH  28  29
ATOM     29  C   LIG    1      -10.889   2.582  -6.716  0.00  0.00    -0.100 A 
ATOM     30  C   LIG    1      -11.502   3.776  -6.387  0.00  0.00    +0.020 A 
ATOM     31  C   LIG    1      -12.732   4.095  -6.933  0.00  0.00    +0.010 A 
ATOM     32  C   LIG    1      -13.352   3.214  -7.800  0.00  0.00    +0.020 A 
ATOM     33  C   LIG    1      -12.741   2.017  -8.124  0.00  0.00    +0.010 A 
ATOM     34  C   LIG    1      -11.509   1.701  -7.582  0.00  0.00    +0.020 A 
ENDBRANCH  28  29
ENDBRANCH  25  28
ENDBRANCH  22  25
ENDBRANCH  18  19
ENDBRANCH   2  18
TORSDOF 8
