REMARK  Name = ZINCrD00000l5Mfc.0
REMARK                            x       y       z     vdW  Elec       q    Type
REMARK                         _______ _______ _______ _____ _____    ______ ____
ROOT
ATOM      1  N   LIG    1        3.689   7.953  -3.330  0.00  0.00    -0.680 N 
ATOM      2  H   LIG    1        2.934   7.365  -3.485  0.00  0.00    +0.410 HD
ATOM      3  C   LIG    1        3.832   8.569  -2.140  0.00  0.00    +0.700 C 
ATOM      4  N   LIG    1        2.986   8.286  -1.129  0.00  0.00    -0.610 N 
ATOM      5  C   LIG    1        3.239   8.888   0.194  0.00  0.00    +0.290 C 
ATOM      6  C   LIG    1        3.022   7.883   1.340  0.00  0.00    +0.030 C 
ATOM      7  C   LIG    1        3.574   6.532   0.956  0.00  0.00    +0.030 C 
ATOM      8  C   LIG    1        2.470   5.700   0.311  0.00  0.00    +0.230 C 
ATOM      9  C   LIG    1        2.296   5.937  -1.131  0.00  0.00    -0.010 C 
ATOM     10  C   LIG    1        1.870   7.404  -1.387  0.00  0.00    +0.280 C 
ATOM     11  O   LIG    1        4.724   9.379  -1.977  0.00  0.00    -0.560 OA
ENDROOT
BRANCH   1  18
ATOM     12  C   LIG    1        2.993   7.268  -6.035  0.00  0.00    +0.100 C 
ATOM     13  C   LIG    1        4.335   7.845  -5.667  0.00  0.00    -0.180 A 
ATOM     14  C   LIG    1        5.291   8.067  -6.636  0.00  0.00    +0.280 A 
ATOM     15  N   LIG    1        6.469   8.573  -6.321  0.00  0.00    -0.500 NA
ATOM     16  C   LIG    1        6.784   8.886  -5.079  0.00  0.00    +0.270 A 
ATOM     17  C   LIG    1        5.882   8.699  -4.052  0.00  0.00    -0.020 A 
ATOM     18  C   LIG    1        4.629   8.163  -4.341  0.00  0.00    +0.210 A 
ENDBRANCH   1  18
BRANCH   8  19
ATOM     19  N   LIG    1        2.777   4.282   0.515  0.00  0.00    -0.750 N 
ATOM     20  H   LIG    1        3.699   3.990   0.583  0.00  0.00    +0.400 HD
BRANCH  19  21
ATOM     21  C   LIG    1        1.738   3.348   0.611  0.00  0.00    +0.110 A 
ATOM     22  C   LIG    1        2.020   1.997   0.805  0.00  0.00    +0.020 A 
ATOM     23  C   LIG    1        0.963   1.109   0.894  0.00  0.00    -0.060 A 
ATOM     24  C   LIG    1       -0.337   1.590   0.781  0.00  0.00    +0.350 A 
ATOM     25  N   LIG    1       -0.568   2.881   0.603  0.00  0.00    -0.500 NA
ATOM     26  C   LIG    1        0.416   3.755   0.513  0.00  0.00    +0.220 A 
BRANCH  24  27
ATOM     27  N   LIG    1       -1.408   0.703   0.864  0.00  0.00    -0.630 N 
ATOM     28  C   LIG    1       -2.774   1.182   0.638  0.00  0.00    +0.280 C 
ATOM     29  C   LIG    1       -1.169  -0.708   1.176  0.00  0.00    +0.290 C 
ENDBRANCH  24  27
ENDBRANCH  19  21
ENDBRANCH   8  19
TORSDOF 4
