REMARK  Name = ZINCkj000005gCp5.1
REMARK                            x       y       z     vdW  Elec       q    Type
REMARK                         _______ _______ _______ _____ _____    ______ ____
ROOT
ATOM      1  N   LIG    1        1.713  -1.262   3.735  0.00  0.00    -1.120 NA
ATOM      2  H   LIG    1        1.175  -1.927   3.276  0.00  0.00    +0.430 HD
ENDROOT
BRANCH   1   3
ATOM      3  S   LIG    1        3.052  -1.727   4.590  0.00  0.00    +2.720 S 
ATOM      4  O   LIG    1        4.107  -0.866   4.184  0.00  0.00    -0.940 OA
ATOM      5  O   LIG    1        3.123  -3.143   4.487  0.00  0.00    -0.930 OA
BRANCH   3   6
ATOM      6  C   LIG    1        2.740  -1.366   6.286  0.00  0.00    -0.810 A 
ATOM      7  C   LIG    1        2.167  -2.201   7.186  0.00  0.00    +0.240 A 
ATOM      8  N   LIG    1        2.107  -1.551   8.368  0.00  0.00    -0.340 N 
ATOM      9  N   LIG    1        2.660  -0.277   8.188  0.00  0.00    -0.260 NA
ATOM     10  C   LIG    1        1.559  -2.084   9.618  0.00  0.00    +0.390 C 
ATOM     11 CL   LIG    1        1.612  -3.816   6.876  0.00  0.00    +0.040 Cl
ATOM     12  C   LIG    1        3.044  -0.169   6.942  0.00  0.00    +0.160 A 
ATOM     13  C   LIG    1        3.697   1.038   6.320  0.00  0.00    +0.180 C 
ENDBRANCH   3   6
ENDBRANCH   1   3
BRANCH   1  14
ATOM     14  C   LIG    1        1.339   0.153   3.671  0.00  0.00    +0.290 C 
BRANCH  14  15
ATOM     15  C   LIG    1        0.322   0.362   2.547  0.00  0.00    +0.260 C 
BRANCH  15  16
ATOM     16  N   LIG    1       -0.052   1.781   2.483  0.00  0.00    -0.380 N 
ATOM     17  C   LIG    1       -0.742   2.161   3.724  0.00  0.00    +0.330 C 
ATOM     18  H   LIG    1        0.778   2.343   2.373  0.00  0.00    +0.430 HD
BRANCH  16  19
ATOM     19  C   LIG    1       -0.947   2.000   1.339  0.00  0.00    +0.160 C 
ATOM     20  C   LIG    1       -1.301   3.486   1.245  0.00  0.00    +0.080 C 
BRANCH  19  22
ATOM     21  C   LIG    1       -1.223   1.662  -1.121  0.00  0.00    +0.060 C 
ATOM     22  C   LIG    1       -0.246   1.560   0.052  0.00  0.00    +0.030 C 
ENDBRANCH  19  22
ENDBRANCH  16  19
ENDBRANCH  15  16
ENDBRANCH  14  15
ENDBRANCH   1  14
TORSDOF 7
