REMARK  Name = ZINCkj000005gCp5.0
REMARK                            x       y       z     vdW  Elec       q    Type
REMARK                         _______ _______ _______ _____ _____    ______ ____
ROOT
ATOM      1  N   LIG    1       -2.143   3.924  -1.842  0.00  0.00    -1.120 NA
ATOM      2  H   LIG    1       -2.478   3.316  -2.520  0.00  0.00    +0.430 HD
ENDROOT
BRANCH   1   3
ATOM      3  S   LIG    1       -2.663   5.496  -1.810  0.00  0.00    +2.720 S 
ATOM      4  O   LIG    1       -3.033   5.769  -0.465  0.00  0.00    -0.940 OA
ATOM      5  O   LIG    1       -3.554   5.646  -2.907  0.00  0.00    -0.930 OA
BRANCH   3   6
ATOM      6  C   LIG    1       -1.269   6.515  -2.159  0.00  0.00    -0.810 A 
ATOM      7  C   LIG    1       -0.866   6.923  -3.386  0.00  0.00    +0.240 A 
ATOM      8  N   LIG    1        0.237   7.684  -3.225  0.00  0.00    -0.340 N 
ATOM      9  N   LIG    1        0.521   7.746  -1.855  0.00  0.00    -0.260 NA
ATOM     10  C   LIG    1        1.002   8.330  -4.294  0.00  0.00    +0.390 C 
ATOM     11 CL   LIG    1       -1.631   6.536  -4.895  0.00  0.00    +0.040 Cl
ATOM     12  C   LIG    1       -0.385   7.051  -1.216  0.00  0.00    +0.160 A 
ATOM     13  C   LIG    1       -0.460   6.856   0.276  0.00  0.00    +0.180 C 
ENDBRANCH   3   6
ENDBRANCH   1   3
BRANCH   1  14
ATOM     14  C   LIG    1       -1.176   3.452  -0.848  0.00  0.00    +0.280 C 
BRANCH  14  15
ATOM     15  C   LIG    1       -1.145   1.923  -0.853  0.00  0.00    +0.260 C 
BRANCH  15  16
ATOM     16  N   LIG    1       -0.176   1.449   0.144  0.00  0.00    -0.380 N 
ATOM     17  C   LIG    1       -0.634   1.824   1.489  0.00  0.00    +0.330 C 
ATOM     18  H   LIG    1        0.723   1.870  -0.034  0.00  0.00    +0.420 HD
BRANCH  16  19
ATOM     19  C   LIG    1       -0.058  -0.013   0.057  0.00  0.00    +0.160 C 
ATOM     20  C   LIG    1        0.511  -0.398  -1.310  0.00  0.00    +0.080 C 
BRANCH  19  22
ATOM     21  C   LIG    1        0.909  -2.045   1.143  0.00  0.00    +0.060 C 
ATOM     22  C   LIG    1        0.878  -0.515   1.159  0.00  0.00    +0.030 C 
ENDBRANCH  19  22
ENDBRANCH  16  19
ENDBRANCH  15  16
ENDBRANCH  14  15
ENDBRANCH   1  14
TORSDOF 7
