REMARK  Name = ZINCpe00000MJK0o.0
REMARK                            x       y       z     vdW  Elec       q    Type
REMARK                         _______ _______ _______ _____ _____    ______ ____
ROOT
ATOM      1  O   LIG    1       -6.082   0.580   2.490  0.00  0.00    -0.530 OA
ATOM      2  C   LIG    1       -5.101   1.146   2.049  0.00  0.00    +0.710 C 
ATOM      3  N   LIG    1       -4.199   1.774   2.812  0.00  0.00    -0.680 N 
ATOM      4  H   LIG    1       -4.249   1.833   3.779  0.00  0.00    +0.440 HD
ATOM      5  C   LIG    1       -3.211   2.317   2.070  0.00  0.00    +0.530 C 
ATOM      6  C   LIG    1       -3.550   1.975   0.637  0.00  0.00    +0.120 C 
ATOM      7  C   LIG    1       -3.765   3.247  -0.177  0.00  0.00    +0.050 C 
ATOM      8  C   LIG    1       -4.140   2.876  -1.614  0.00  0.00    +0.030 C 
ATOM      9  C   LIG    1       -3.020   2.038  -2.232  0.00  0.00    +0.010 C 
ATOM     10  C   LIG    1       -2.829   0.757  -1.418  0.00  0.00    +0.030 C 
ATOM     11  C   LIG    1       -2.449   1.119   0.020  0.00  0.00    +0.250 C 
ATOM     12  O   LIG    1       -2.254   2.945   2.468  0.00  0.00    -0.450 OA
ATOM     13  N   LIG    1       -4.800   1.211   0.738  0.00  0.00    -0.710 N 
ATOM     14  H   LIG    1       -5.308   0.830   0.005  0.00  0.00    +0.440 HD
ENDROOT
BRANCH  11  15
ATOM     15  N   LIG    1       -1.191   1.869   0.018  0.00  0.00    -0.700 N 
ATOM     16  H   LIG    1       -1.204   2.839   0.023  0.00  0.00    +0.420 HD
ATOM     17  C   LIG    1       -0.014   1.211   0.009  0.00  0.00    +0.580 C 
ATOM     18  O   LIG    1        0.002  -0.004   0.002  0.00  0.00    -0.520 OA
BRANCH  17  19
ATOM     19  C   LIG    1        1.259   1.969   0.001  0.00  0.00    +0.060 A 
ATOM     20  N   LIG    1        1.235   3.291   0.002  0.00  0.00    -0.390 NA
ATOM     21  C   LIG    1        2.382   3.972  -0.000  0.00  0.00    +0.080 A 
ATOM     22  C   LIG    1        2.389   5.380   0.006  0.00  0.00    +0.060 A 
ATOM     23  C   LIG    1        3.574   6.047  -0.002  0.00  0.00    +0.040 A 
ATOM     24  C   LIG    1        4.786   5.358  -0.018  0.00  0.00    +0.060 A 
ATOM     25  C   LIG    1        4.819   3.998  -0.024  0.00  0.00    +0.050 A 
ATOM     26  C   LIG    1        3.617   3.271  -0.016  0.00  0.00    +0.100 A 
ATOM     27  N   LIG    1        3.620   1.933  -0.023  0.00  0.00    -0.420 NA
ATOM     28  C   LIG    1        2.483   1.278  -0.015  0.00  0.00    +0.320 A 
ENDBRANCH  17  19
ENDBRANCH  11  15
TORSDOF 2
