REMARK  Name = ZINCkj00000y7IOP.1
REMARK                            x       y       z     vdW  Elec       q    Type
REMARK                         _______ _______ _______ _____ _____    ______ ____
ROOT
ATOM      1  C   LIG    1        3.139   2.149  -1.594  0.00  0.00    +0.250 C 
ATOM      2  C   LIG    1        1.692   2.170  -1.172  0.00  0.00    +0.260 C 
ATOM      3  N   LIG    1        1.463   2.163   0.264  0.00  0.00    -0.380 N 
ATOM      4  C   LIG    1        0.028   1.830   0.479  0.00  0.00    +0.270 C 
ATOM      5  C   LIG    1       -0.044   0.313   0.734  0.00  0.00    +0.070 C 
ATOM      6  C   LIG    1        1.424  -0.171   0.762  0.00  0.00    +0.080 C 
ATOM      7  C   LIG    1        2.211   1.131   0.975  0.00  0.00    +0.170 C 
ATOM      8  C   LIG    1        3.666   1.011   0.634  0.00  0.00    +0.330 C 
ATOM      9  H   LIG    1        1.669   3.069   0.658  0.00  0.00    +0.430 HD
ATOM     10  N   LIG    1        3.978   1.332  -0.743  0.00  0.00    -1.000 NA
ENDROOT
BRANCH  10  11
ATOM     11  S   LIG    1        5.380   0.727  -1.383  0.00  0.00    +2.700 S 
ATOM     12  O   LIG    1        6.188   0.334  -0.282  0.00  0.00    -0.930 OA
ATOM     13  O   LIG    1        5.808   1.660  -2.366  0.00  0.00    -0.930 OA
BRANCH  11  14
ATOM     14  C   LIG    1        4.964  -0.751  -2.248  0.00  0.00    -0.750 A 
ATOM     15  C   LIG    1        4.834  -1.950  -1.565  0.00  0.00    +0.170 A 
ATOM     16  C   LIG    1        4.499  -3.087  -2.286  0.00  0.00    -0.040 A 
ATOM     17  C   LIG    1        4.319  -2.989  -3.652  0.00  0.00    +0.330 A 
ATOM     18  N   LIG    1        4.455  -1.832  -4.269  0.00  0.00    -0.490 NA
ATOM     19  C   LIG    1        4.768  -0.730  -3.616  0.00  0.00    +0.380 A 
ENDBRANCH  11  14
ENDBRANCH  10  11
BRANCH   1  21
ATOM     20  C   LIG    1        2.374   2.490  -3.948  0.00  0.00    +0.060 C 
ATOM     21  C   LIG    1        3.222   1.613  -3.024  0.00  0.00    +0.010 C 
ENDBRANCH   1  21
TORSDOF 3
