REMARK  Name = ZINCkj00000y7IOP.0
REMARK                            x       y       z     vdW  Elec       q    Type
REMARK                         _______ _______ _______ _____ _____    ______ ____
ROOT
ATOM      1  C   LIG    1        1.224  -0.711   0.415  0.00  0.00    +0.270 C 
ATOM      2  C   LIG    1        1.637  -1.801  -0.583  0.00  0.00    +0.280 C 
ATOM      3  N   LIG    1        0.490  -2.675  -0.789  0.00  0.00    -0.390 N 
ATOM      4  C   LIG    1        0.732  -3.848  -1.633  0.00  0.00    +0.250 C 
ATOM      5  C   LIG    1       -0.614  -4.151  -2.336  0.00  0.00    +0.080 C 
ATOM      6  C   LIG    1       -1.566  -3.007  -1.892  0.00  0.00    +0.080 C 
ATOM      7  C   LIG    1       -0.573  -1.903  -1.486  0.00  0.00    +0.170 C 
ATOM      8  C   LIG    1       -1.151  -0.917  -0.475  0.00  0.00    +0.330 C 
ATOM      9  H   LIG    1        0.145  -2.978   0.110  0.00  0.00    +0.420 HD
ATOM     10  N   LIG    1       -0.025  -0.074  -0.020  0.00  0.00    -1.010 NA
ENDROOT
BRANCH  10  11
ATOM     11  S   LIG    1       -0.170   1.575  -0.008  0.00  0.00    +2.700 S 
ATOM     12  O   LIG    1       -1.092   1.905  -1.038  0.00  0.00    -0.930 OA
ATOM     13  O   LIG    1        1.152   2.094   0.047  0.00  0.00    -0.940 OA
BRANCH  11  14
ATOM     14  C   LIG    1       -0.943   2.020   1.512  0.00  0.00    -0.740 A 
ATOM     15  C   LIG    1       -0.177   2.389   2.607  0.00  0.00    +0.180 A 
ATOM     16  C   LIG    1       -0.828   2.731   3.783  0.00  0.00    -0.040 A 
ATOM     17  C   LIG    1       -2.209   2.693   3.823  0.00  0.00    +0.330 A 
ATOM     18  N   LIG    1       -2.906   2.336   2.762  0.00  0.00    -0.490 NA
ATOM     19  C   LIG    1       -2.321   2.010   1.626  0.00  0.00    +0.370 A 
ENDBRANCH  11  14
ENDBRANCH  10  11
BRANCH   1  21
ATOM     20  C   LIG    1        2.356  -1.880   2.311  0.00  0.00    +0.050 C 
ATOM     21  C   LIG    1        1.020  -1.341   1.794  0.00  0.00    +0.000 C 
ENDBRANCH   1  21
TORSDOF 3
