REMARK  Name = ZINCpk000000oXLV.0
REMARK                            x       y       z     vdW  Elec       q    Type
REMARK                         _______ _______ _______ _____ _____    ______ ____
ROOT
ATOM      1  N   LIG    1       -1.582   3.613  -2.341  0.00  0.00    -0.720 N 
ATOM      2  H   LIG    1       -2.174   3.027  -2.838  0.00  0.00    +0.400 HD
ATOM      3  C   LIG    1       -1.389   4.882  -2.751  0.00  0.00    +0.550 C 
ATOM      4  O   LIG    1       -0.647   5.616  -2.128  0.00  0.00    -0.500 OA
ENDROOT
BRANCH   1   9
ATOM      5  C   LIG    1       -1.091   0.697   2.171  0.00  0.00    +0.650 C 
ATOM      6  N   LIG    1       -0.706   1.562   1.213  0.00  0.00    -0.600 N 
ATOM      7  C   LIG    1       -0.013   1.086   0.008  0.00  0.00    +0.310 C 
ATOM      8  C   LIG    1       -0.759   1.596  -1.228  0.00  0.00    +0.020 C 
ATOM      9  C   LIG    1       -0.898   3.118  -1.144  0.00  0.00    +0.250 C 
ATOM     10  C   LIG    1       -1.711   3.490   0.099  0.00  0.00    +0.010 C 
ATOM     11  C   LIG    1       -0.975   3.001   1.350  0.00  0.00    +0.300 C 
ATOM     12  O   LIG    1       -0.865  -0.490   2.044  0.00  0.00    -0.570 OA
BRANCH   5  13
ATOM     13  O   LIG    1       -1.725   1.147   3.270  0.00  0.00    -0.370 OA
BRANCH  13  15
ATOM     14  C   LIG    1       -2.814   0.853   5.428  0.00  0.00    +0.070 C 
ATOM     15  C   LIG    1       -2.111   0.158   4.261  0.00  0.00    +0.220 C 
ENDBRANCH  13  15
ENDBRANCH   5  13
ENDBRANCH   1   9
BRANCH   3  16
ATOM     16  C   LIG    1       -2.080   5.382  -3.958  0.00  0.00    -0.130 A 
ATOM     17  C   LIG    1       -2.928   4.540  -4.680  0.00  0.00    +0.170 A 
ATOM     18  C   LIG    1       -3.573   5.013  -5.804  0.00  0.00    -0.680 A 
ATOM     19  C   LIG    1       -3.373   6.317  -6.223  0.00  0.00    +0.170 A 
ATOM     20  C   LIG    1       -2.530   7.156  -5.516  0.00  0.00    +0.030 A 
ATOM     21  C   LIG    1       -1.882   6.697  -4.386  0.00  0.00    +0.010 A 
ATOM     22 BR   LIG    1       -0.729   7.844  -3.422  0.00  0.00    +0.010 Br
BRANCH  18  23
ATOM     23  S   LIG    1       -4.649   3.954  -6.711  0.00  0.00    +2.700 S 
ATOM     24  O   LIG    1       -5.544   4.802  -7.418  0.00  0.00    -0.950 OA
ATOM     25  O   LIG    1       -5.082   2.950  -5.804  0.00  0.00    -0.960 OA
BRANCH  23  26
ATOM     26  N   LIG    1       -3.730   3.186  -7.855  0.00  0.00    -1.250 NA
ATOM     27  H   LIG    1       -2.949   3.626  -8.225  0.00  0.00    +0.420 HD
ATOM     28  H   LIG    1       -3.974   2.296  -8.156  0.00  0.00    +0.420 HD
ENDBRANCH  23  26
ENDBRANCH  18  23
ENDBRANCH   3  16
TORSDOF 6
