REMARK  Name = ZINCqH00000368c2.0
REMARK                            x       y       z     vdW  Elec       q    Type
REMARK                         _______ _______ _______ _____ _____    ______ ____
ROOT
ATOM      1  C   LIG    1        2.169   0.922   0.729  0.00  0.00    +0.270 C 
ATOM      2  C   LIG    1        1.172  -0.141   1.237  0.00  0.00    +0.050 C 
ATOM      3  C   LIG    1       -0.097   0.141   0.391  0.00  0.00    +0.040 C 
ATOM      4  C   LIG    1       -0.051   1.684   0.265  0.00  0.00    +0.260 C 
ATOM      5  N   LIG    1        1.381   2.009   0.130  0.00  0.00    -0.610 N 
ATOM      6  C   LIG    1        1.884   3.118  -0.448  0.00  0.00    +0.570 C 
ATOM      7  O   LIG    1        3.084   3.314  -0.444  0.00  0.00    -0.520 OA
ENDROOT
BRANCH   6   8
ATOM      8  C   LIG    1        0.979   4.093  -1.084  0.00  0.00    -0.090 A 
ATOM      9  C   LIG    1       -0.338   4.221  -0.633  0.00  0.00    +0.040 A 
ATOM     10  C   LIG    1       -1.179   5.134  -1.229  0.00  0.00    +0.090 A 
ATOM     11  C   LIG    1       -0.722   5.926  -2.274  0.00  0.00    -0.110 A 
ATOM     12  S   LIG    1       -1.799   7.101  -3.030  0.00  0.00    -0.070 S 
ATOM     13  C   LIG    1       -0.633   8.397  -3.545  0.00  0.00    +0.150 C 
ATOM     14  C   LIG    1        0.564   7.750  -4.186  0.00  0.00    +0.520 C 
ATOM     15  N   LIG    1        1.068   6.584  -3.790  0.00  0.00    -0.660 N 
ATOM     16  H   LIG    1        1.834   6.245  -4.279  0.00  0.00    +0.420 HD
ATOM     17  O   LIG    1        1.098   8.322  -5.113  0.00  0.00    -0.510 OA
ATOM     18  C   LIG    1        0.593   5.806  -2.737  0.00  0.00    +0.150 A 
ATOM     19  C   LIG    1        1.441   4.892  -2.133  0.00  0.00    +0.070 A 
ENDBRANCH   6   8
BRANCH   1  23
ATOM     20  C   LIG    1        4.476   2.430   3.995  0.00  0.00    +0.130 A 
ATOM     21  C   LIG    1        5.023   1.489   3.135  0.00  0.00    -0.020 A 
ATOM     22  C   LIG    1        4.275   1.002   2.080  0.00  0.00    +0.070 A 
ATOM     23  C   LIG    1        2.983   1.454   1.881  0.00  0.00    -0.120 A 
ATOM     24  C   LIG    1        2.438   2.396   2.734  0.00  0.00    +0.060 A 
ATOM     25  C   LIG    1        3.180   2.881   3.793  0.00  0.00    -0.080 A 
BRANCH  20  27
ATOM     26  C   LIG    1        4.584   3.877   5.878  0.00  0.00    +0.250 C 
ATOM     27  O   LIG    1        5.210   2.910   5.033  0.00  0.00    -0.320 OA
ENDBRANCH  20  27
ENDBRANCH   1  23
TORSDOF 3
