REMARK  Name = ZINCrD0000074oup.0
REMARK                            x       y       z     vdW  Elec       q    Type
REMARK                         _______ _______ _______ _____ _____    ______ ____
ROOT
ATOM      1  C   LIG    1        3.707   2.037  -0.022  0.00  0.00    +0.150 C 
ATOM      2  C   LIG    1        2.355   1.371  -0.013  0.00  0.00    +0.140 A 
ATOM      3  C   LIG    1        1.235   2.133   0.002  0.00  0.00    -0.090 A 
ATOM      4  C   LIG    1       -0.018   1.467   0.010  0.00  0.00    +0.380 A 
ATOM      5  C   LIG    1        0.002  -0.004   0.002  0.00  0.00    -0.040 A 
ATOM      6  N   LIG    1        1.165  -0.622  -0.012  0.00  0.00    -0.160 NA
ATOM      7  O   LIG    1       -1.069   2.089   0.018  0.00  0.00    -0.450 OA
ATOM      8  N   LIG    1        2.276   0.018  -0.020  0.00  0.00    -0.270 N 
ENDROOT
BRANCH   8   9
ATOM      9  C   LIG    1        3.466  -0.718  -0.034  0.00  0.00    +0.110 A 
ATOM     10  C   LIG    1        4.101  -0.988  -1.239  0.00  0.00    +0.060 A 
ATOM     11  C   LIG    1        5.276  -1.714  -1.250  0.00  0.00    +0.050 A 
ATOM     12  C   LIG    1        5.820  -2.172  -0.064  0.00  0.00    +0.070 A 
ATOM     13  C   LIG    1        5.190  -1.905   1.138  0.00  0.00    +0.050 A 
ATOM     14  C   LIG    1        4.017  -1.174   1.157  0.00  0.00    -0.020 A 
ATOM     15 CL   LIG    1        3.231  -0.833   2.667  0.00  0.00    -0.040 Cl
ENDBRANCH   8   9
BRANCH   5  16
ATOM     16  C   LIG    1       -1.258  -0.773   0.010  0.00  0.00    +0.590 C 
ATOM     17  N   LIG    1       -1.225  -2.121   0.003  0.00  0.00    -0.720 N 
ATOM     18  H   LIG    1       -0.374  -2.585  -0.008  0.00  0.00    +0.410 HD
ATOM     19  O   LIG    1       -2.326  -0.192   0.024  0.00  0.00    -0.490 OA
BRANCH  17  20
ATOM     20  C   LIG    1       -2.476  -2.884   0.011  0.00  0.00    +0.270 C 
BRANCH  20  21
ATOM     21  C   LIG    1       -2.159  -4.381   0.000  0.00  0.00    +0.080 C 
BRANCH  21  22
ATOM     22  C   LIG    1       -3.446  -5.166   0.009  0.00  0.00    -0.050 A 
ATOM     23  C   LIG    1       -4.020  -5.538   1.210  0.00  0.00    +0.010 A 
ATOM     24  C   LIG    1       -5.203  -6.254   1.219  0.00  0.00    +0.040 A 
ATOM     25  C   LIG    1       -5.806  -6.608   0.028  0.00  0.00    -0.010 A 
ATOM     26  C   LIG    1       -5.229  -6.242  -1.176  0.00  0.00    +0.100 A 
ATOM     27  F   LIG    1       -5.818  -6.587  -2.342  0.00  0.00    -0.140 F 
ATOM     28  C   LIG    1       -4.047  -5.520  -1.185  0.00  0.00    -0.010 A 
ENDBRANCH  21  22
ENDBRANCH  20  21
ENDBRANCH  17  20
ENDBRANCH   5  16
TORSDOF 5
