REMARK  Name = ZINCnE000001TCsz.1
REMARK                            x       y       z     vdW  Elec       q    Type
REMARK                         _______ _______ _______ _____ _____    ______ ____
ROOT
ATOM      1  C   LIG    1        0.002  -0.004   0.002  0.00  0.00    -0.100 A 
ATOM      2  C   LIG    1       -0.017   1.391   0.010  0.00  0.00    +0.050 A 
ATOM      3  C   LIG    1        1.175   2.090   0.002  0.00  0.00    +0.090 A 
ATOM      4  C   LIG    1        2.378   1.407  -0.014  0.00  0.00    +0.000 A 
ATOM      5  C   LIG    1        2.405   0.019  -0.023  0.00  0.00    -0.120 A 
ATOM      6  C   LIG    1        3.742  -0.674  -0.044  0.00  0.00    +0.310 C 
ATOM      7  N   LIG    1        3.608  -2.069   0.385  0.00  0.00    -0.380 N 
ATOM      8  H   LIG    1        3.334  -2.098   1.356  0.00  0.00    +0.430 HD
ATOM      9  C   LIG    1        2.581  -2.726  -0.437  0.00  0.00    +0.240 C 
ATOM     10  C   LIG    1        1.209  -2.195  -0.018  0.00  0.00    +0.150 C 
ATOM     11  F   LIG    1        1.165   3.441   0.010  0.00  0.00    -0.140 F 
ATOM     12  C   LIG    1        1.224  -0.688  -0.014  0.00  0.00    -0.060 A 
ENDROOT
BRANCH   1  14
ATOM     13  O   LIG    1       -2.333  -0.162   0.025  0.00  0.00    -0.670 OA
ATOM     14  C   LIG    1       -1.266  -0.759   0.011  0.00  0.00    +0.520 C 
ATOM     15  O   LIG    1       -1.249  -1.982   0.004  0.00  0.00    -0.670 OA
ENDBRANCH   1  14
BRANCH   7  16
ATOM     16  C   LIG    1        4.892  -2.761   0.214  0.00  0.00    +0.310 C 
BRANCH  16  17
ATOM     17  C   LIG    1        5.913  -2.165   1.148  0.00  0.00    -0.320 A 
ATOM     18  C   LIG    1        6.835  -1.253   0.673  0.00  0.00    +0.060 A 
ATOM     19  C   LIG    1        7.769  -0.701   1.531  0.00  0.00    -0.140 A 
ATOM     20  C   LIG    1        7.790  -1.068   2.863  0.00  0.00    +0.070 A 
ATOM     21  C   LIG    1        6.873  -1.985   3.343  0.00  0.00    -0.160 A 
ATOM     22 CL   LIG    1        6.899  -2.446   5.016  0.00  0.00    -0.090 Cl
ATOM     23  C   LIG    1        5.931  -2.536   2.485  0.00  0.00    +0.290 A 
ATOM     24  O   LIG    1        5.028  -3.438   2.953  0.00  0.00    -0.690 OA
ENDBRANCH  16  17
ENDBRANCH   7  16
TORSDOF 3
