REMARK  Name = ZINCnE000001TCsz.0
REMARK                            x       y       z     vdW  Elec       q    Type
REMARK                         _______ _______ _______ _____ _____    ______ ____
ROOT
ATOM      1  C   LIG    1       -2.734   2.108  -4.799  0.00  0.00    -0.100 A 
ATOM      2  C   LIG    1       -4.121   1.965  -4.864  0.00  0.00    +0.030 A 
ATOM      3  C   LIG    1       -4.812   1.506  -3.759  0.00  0.00    +0.090 A 
ATOM      4  C   LIG    1       -4.129   1.190  -2.597  0.00  0.00    +0.010 A 
ATOM      5  C   LIG    1       -2.750   1.329  -2.526  0.00  0.00    -0.110 A 
ATOM      6  C   LIG    1       -2.057   0.968  -1.238  0.00  0.00    +0.360 C 
ATOM      7  N   LIG    1       -0.723   1.572  -1.182  0.00  0.00    -0.380 N 
ATOM      8  H   LIG    1       -0.809   2.577  -1.137  0.00  0.00    +0.410 HD
ATOM      9  C   LIG    1        0.026   1.197  -2.391  0.00  0.00    +0.230 C 
ATOM     10  C   LIG    1       -0.554   1.960  -3.581  0.00  0.00    +0.150 C 
ATOM     11  F   LIG    1       -6.154   1.365  -3.813  0.00  0.00    -0.140 F 
ATOM     12  C   LIG    1       -2.051   1.788  -3.619  0.00  0.00    -0.070 A 
ENDROOT
BRANCH   1  14
ATOM     13  O   LIG    1       -2.584   2.877  -7.004  0.00  0.00    -0.670 OA
ATOM     14  C   LIG    1       -1.988   2.597  -5.974  0.00  0.00    +0.520 C 
ATOM     15  O   LIG    1       -0.773   2.723  -5.918  0.00  0.00    -0.670 OA
ENDBRANCH   1  14
BRANCH   7  16
ATOM     16  C   LIG    1       -0.013   1.086   0.008  0.00  0.00    +0.310 C 
BRANCH  16  17
ATOM     17  C   LIG    1       -0.718   1.572   1.248  0.00  0.00    -0.310 A 
ATOM     18  C   LIG    1       -0.231   2.666   1.937  0.00  0.00    +0.070 A 
ATOM     19  C   LIG    1       -0.880   3.116   3.071  0.00  0.00    -0.130 A 
ATOM     20  C   LIG    1       -2.013   2.466   3.526  0.00  0.00    +0.070 A 
ATOM     21  C   LIG    1       -2.502   1.368   2.844  0.00  0.00    -0.160 A 
ATOM     22 CL   LIG    1       -3.923   0.552   3.416  0.00  0.00    -0.090 Cl
ATOM     23  C   LIG    1       -1.854   0.918   1.702  0.00  0.00    +0.290 A 
ATOM     24  O   LIG    1       -2.332  -0.162   1.029  0.00  0.00    -0.680 OA
ENDBRANCH  16  17
ENDBRANCH   7  16
TORSDOF 3
