REMARK  Name = ZINCvU0000000HNm.0
REMARK                            x       y       z     vdW  Elec       q    Type
REMARK                         _______ _______ _______ _____ _____    ______ ____
ROOT
ATOM      1  C   LIG    1       -2.289  -7.195  -0.009  0.00  0.00    +0.230 A 
ATOM      2  N   LIG    1       -3.522  -6.742   0.010  0.00  0.00    -0.260 NA
ATOM      3  N   LIG    1       -4.342  -7.734   0.009  0.00  0.00    -0.270 NA
ATOM      4  C   LIG    1       -3.663  -8.861  -0.002  0.00  0.00    +0.230 A 
ATOM      5  O   LIG    1       -2.352  -8.543  -0.014  0.00  0.00    -0.200 OA
ENDROOT
BRANCH   4   6
ATOM      6  C   LIG    1       -4.230 -10.218  -0.002  0.00  0.00    +0.140 A 
ATOM      7  C   LIG    1       -3.507 -11.371  -0.020  0.00  0.00    +0.030 A 
ATOM      8  C   LIG    1       -4.465 -12.473  -0.010  0.00  0.00    -0.110 A 
ATOM      9  C   LIG    1       -4.337 -13.866  -0.019  0.00  0.00    +0.090 A 
ATOM     10  C   LIG    1       -5.456 -14.650  -0.011  0.00  0.00    +0.020 A 
ATOM     11  C   LIG    1       -6.720 -14.075   0.005  0.00  0.00    -0.060 A 
ATOM     12  C   LIG    1       -6.870 -12.705   0.013  0.00  0.00    +0.040 A 
ATOM     13 BR   LIG    1       -8.252 -15.185   0.015  0.00  0.00    -0.040 Br
ATOM     14  C   LIG    1       -5.746 -11.886   0.006  0.00  0.00    +0.120 A 
ATOM     15  N   LIG    1       -5.575 -10.520   0.011  0.00  0.00    -0.460 N 
ATOM     16  C   LIG    1       -6.659  -9.535   0.027  0.00  0.00    +0.340 C 
ENDBRANCH   4   6
BRANCH   1  21
ATOM     17  C   LIG    1        0.060  -4.258  -0.019  0.00  0.00    -0.070 A 
ATOM     18  C   LIG    1        1.271  -4.949  -0.034  0.00  0.00    +0.290 A 
ATOM     19  N   LIG    1        1.300  -6.266  -0.040  0.00  0.00    -0.470 NA
ATOM     20  C   LIG    1        0.198  -6.988  -0.032  0.00  0.00    +0.300 A 
ATOM     21  C   LIG    1       -1.058  -6.378  -0.018  0.00  0.00    -0.070 A 
ATOM     22  C   LIG    1       -1.133  -4.982  -0.006  0.00  0.00    +0.120 A 
BRANCH  17  26
ATOM     23  C   LIG    1        0.002  -0.004   0.002  0.00  0.00    +0.230 A 
ATOM     24  C   LIG    1       -1.193  -0.715   0.015  0.00  0.00    -0.060 A 
ATOM     25  C   LIG    1       -1.176  -2.093   0.003  0.00  0.00    +0.080 A 
ATOM     26  C   LIG    1        0.040  -2.774  -0.012  0.00  0.00    -0.120 A 
ATOM     27  C   LIG    1        1.237  -2.060  -0.020  0.00  0.00    +0.080 A 
ATOM     28  C   LIG    1        1.216  -0.682  -0.013  0.00  0.00    -0.070 A 
BRANCH  23  30
ATOM     29  C   LIG    1        1.242   2.141   0.002  0.00  0.00    +0.280 C 
ATOM     30  N   LIG    1       -0.017   1.391   0.010  0.00  0.00    -0.630 N 
ATOM     31  C   LIG    1       -1.295   2.107   0.020  0.00  0.00    +0.290 C 
ENDBRANCH  23  30
ENDBRANCH  17  26
ENDBRANCH   1  21
TORSDOF 4
