REMARK  Name = ZINCpe00001g3sb5.0
REMARK                            x       y       z     vdW  Elec       q    Type
REMARK                         _______ _______ _______ _____ _____    ______ ____
ROOT
ATOM      1  C   LIG    1       -0.018   1.503   0.010  0.00  0.00    -0.080 C 
ATOM      2  C   LIG    1       -0.698   1.998   1.275  0.00  0.00    +0.030 C 
ATOM      3  C   LIG    1       -2.207   2.096   1.117  0.00  0.00    +0.210 C 
ATOM      4  O   LIG    1       -2.479   2.968   0.014  0.00  0.00    -0.370 OA
ATOM      5  C   LIG    1       -2.091   2.402  -1.233  0.00  0.00    +0.240 C 
ATOM      6  C   LIG    1        1.430   2.042  -0.001  0.00  0.00    +0.280 C 
ATOM      7  N   LIG    1        1.605   2.813  -1.239  0.00  0.00    -0.600 N 
ATOM      8  C   LIG    1        2.781   3.147  -1.807  0.00  0.00    +0.620 C 
ATOM      9  O   LIG    1        3.826   2.803  -1.288  0.00  0.00    -0.540 OA
ATOM     10  C   LIG    1        0.265   3.158  -1.750  0.00  0.00    +0.290 C 
ATOM     11  C   LIG    1       -0.641   2.012  -1.276  0.00  0.00    -0.030 C 
ENDROOT
BRANCH   1  15
ATOM     12  N   LIG    1        0.579  -0.676   1.018  0.00  0.00    -0.850 N 
ATOM     13  H   LIG    1        0.592  -1.646   1.013  0.00  0.00    +0.410 HD
ATOM     14  H   LIG    1        0.981  -0.189   1.755  0.00  0.00    +0.400 HD
ATOM     15  C   LIG    1        0.002  -0.004   0.002  0.00  0.00    +0.530 C 
ATOM     16  O   LIG    1       -0.500  -0.612  -0.919  0.00  0.00    -0.530 OA
ENDBRANCH   1  15
BRANCH   8  17
ATOM     17  C   LIG    1        2.801   3.927  -3.057  0.00  0.00    -0.050 A 
ATOM     18  C   LIG    1        3.912   4.337  -3.734  0.00  0.00    +0.230 A 
ATOM     19  N   LIG    1        3.476   5.021  -4.827  0.00  0.00    -0.410 N 
ATOM     20  C   LIG    1        2.116   5.026  -4.793  0.00  0.00    +0.420 A 
ATOM     21  N   LIG    1        1.716   4.375  -3.739  0.00  0.00    -0.450 NA
BRANCH  19  22
ATOM     22  C   LIG    1        4.283   5.618  -5.806  0.00  0.00    +0.120 A 
ATOM     23  C   LIG    1        5.666   5.540  -5.711  0.00  0.00    +0.000 A 
ATOM     24  C   LIG    1        6.457   6.123  -6.681  0.00  0.00    +0.050 A 
ATOM     25  C   LIG    1        5.874   6.796  -7.739  0.00  0.00    +0.010 A 
ATOM     26  C   LIG    1        4.497   6.881  -7.833  0.00  0.00    +0.050 A 
ATOM     27  C   LIG    1        3.700   6.293  -6.870  0.00  0.00    +0.000 A 
ENDBRANCH  19  22
ENDBRANCH   8  17
TORSDOF 3
