REMARK  Name = ZINCvU0000000IVp.0
REMARK                            x       y       z     vdW  Elec       q    Type
REMARK                         _______ _______ _______ _____ _____    ______ ____
ROOT
ATOM      1  C   LIG    1       -1.532   6.604   6.365  0.00  0.00    +0.100 A 
ATOM      2  C   LIG    1       -0.884   6.166   5.227  0.00  0.00    +0.040 A 
ATOM      3  C   LIG    1       -1.389   5.074   4.516  0.00  0.00    -0.140 A 
ATOM      4  C   LIG    1       -2.540   4.423   4.966  0.00  0.00    +0.050 A 
ATOM      5  C   LIG    1       -3.179   4.862   6.106  0.00  0.00    -0.040 A 
ATOM      6  C   LIG    1       -2.680   5.950   6.809  0.00  0.00    +0.130 A 
ENDROOT
BRANCH   3   7
ATOM      7  C   LIG    1       -0.704   4.605   3.296  0.00  0.00    +0.560 C 
ATOM      8  N   LIG    1       -1.189   3.548   2.614  0.00  0.00    -0.720 N 
ATOM      9  H   LIG    1       -1.988   3.096   2.926  0.00  0.00    +0.400 HD
ATOM     10  O   LIG    1        0.298   5.172   2.905  0.00  0.00    -0.530 OA
BRANCH   8  11
ATOM     11  C   LIG    1       -0.509   3.083   1.403  0.00  0.00    +0.300 C 
ATOM     12  C   LIG    1       -0.752   1.591   1.255  0.00  0.00    +0.060 C 
ATOM     13  C   LIG    1       -0.013   1.086   0.008  0.00  0.00    +0.110 C 
ATOM     14  S   LIG    1       -0.915   1.699  -1.444  0.00  0.00    -0.100 S 
ATOM     15  C   LIG    1       -1.189   3.395  -1.040  0.00  0.00    -0.070 A 
ATOM     16  C   LIG    1       -1.613   4.246  -2.062  0.00  0.00    +0.050 A 
ATOM     17  C   LIG    1       -1.855   5.579  -1.811  0.00  0.00    +0.050 A 
ATOM     18  C   LIG    1       -1.678   6.075  -0.531  0.00  0.00    -0.040 A 
ATOM     19  C   LIG    1       -1.255   5.237   0.480  0.00  0.00    +0.060 A 
ATOM     20 CL   LIG    1       -1.987   7.750  -0.199  0.00  0.00    -0.060 Cl
ATOM     21  C   LIG    1       -0.999   3.890   0.237  0.00  0.00    -0.090 A 
ENDBRANCH   8  11
ENDBRANCH   3   7
BRANCH   1  23
ATOM     22  C   LIG    1        0.135   8.292   6.545  0.00  0.00    +0.240 C 
ATOM     23  O   LIG    1       -1.046   7.670   7.056  0.00  0.00    -0.300 OA
ENDBRANCH   1  23
BRANCH   6  24
ATOM     24  O   LIG    1       -3.313   6.379   7.932  0.00  0.00    -0.290 OA
BRANCH  24  25
ATOM     25  C   LIG    1       -4.484   5.664   8.329  0.00  0.00    +0.300 C 
BRANCH  25  26
ATOM     26  C   LIG    1       -5.046   6.278   9.586  0.00  0.00    -0.220 A 
ATOM     27  C   LIG    1       -5.957   7.275   9.692  0.00  0.00    +0.010 A 
ATOM     28  O   LIG    1       -6.145   7.479  11.003  0.00  0.00    +0.100 OA
ATOM     29  N   LIG    1       -5.465   6.736  11.671  0.00  0.00    -0.360 NA
ATOM     30  C   LIG    1       -6.628   8.008   8.559  0.00  0.00    +0.190 C 
ATOM     31  C   LIG    1       -4.748   5.944  10.927  0.00  0.00    +0.040 A 
ATOM     32  C   LIG    1       -3.787   4.884  11.401  0.00  0.00    +0.160 C 
ENDBRANCH  25  26
ENDBRANCH  24  25
ENDBRANCH   6  24
TORSDOF 6
