REMARK  Name = ZINCrD00000hQ4hy.0
REMARK                            x       y       z     vdW  Elec       q    Type
REMARK                         _______ _______ _______ _____ _____    ______ ____
ROOT
ATOM      1  C   LIG    1        7.492   1.088  -0.066  0.00  0.00    +0.380 A 
ATOM      2  C   LIG    1        6.495   0.117  -0.063  0.00  0.00    -0.050 A 
ATOM      3  C   LIG    1        5.172   0.509  -0.046  0.00  0.00    +0.120 A 
ATOM      4  C   LIG    1        4.883   1.881  -0.042  0.00  0.00    -0.120 A 
ATOM      5  C   LIG    1        5.938   2.794  -0.045  0.00  0.00    +0.360 A 
ATOM      6  N   LIG    1        7.187   2.377  -0.057  0.00  0.00    -0.480 NA
ENDROOT
BRANCH   4   7
ATOM      7  C   LIG    1        3.483   2.352  -0.029  0.00  0.00    +0.170 A 
ATOM      8  N   LIG    1        3.122   3.591  -0.019  0.00  0.00    -0.460 NA
ATOM      9  C   LIG    1        1.806   3.864  -0.007  0.00  0.00    +0.090 A 
ATOM     10  C   LIG    1        1.163   5.122   0.004  0.00  0.00    +0.080 A 
ATOM     11  C   LIG    1       -0.196   5.204   0.021  0.00  0.00    +0.030 A 
ATOM     12  C   LIG    1       -0.977   4.057   0.017  0.00  0.00    +0.040 A 
ATOM     13  C   LIG    1       -0.378   2.816   0.005  0.00  0.00    +0.060 A 
ATOM     14  C   LIG    1        1.011   2.712  -0.007  0.00  0.00    -0.170 A 
ATOM     15  S   LIG    1        2.071   1.305  -0.023  0.00  0.00    +0.060 S 
ENDBRANCH   4   7
BRANCH   1  18
ATOM     16  O   LIG    1        9.514   2.808  -0.176  0.00  0.00    -0.440 OA
ATOM     17  C   LIG    1        9.800   1.629  -0.185  0.00  0.00    +0.500 C 
ATOM     18  N   LIG    1        8.829   0.700  -0.079  0.00  0.00    -0.660 N 
ATOM     19  H   LIG    1        9.062  -0.239  -0.011  0.00  0.00    +0.420 HD
BRANCH  17  20
ATOM     20  C   LIG    1       11.239   1.203  -0.314  0.00  0.00    +0.170 C 
ATOM     21  O   LIG    1       12.087   2.357  -0.329  0.00  0.00    -0.340 OA
ATOM     22  C   LIG    1       13.108   2.175  -1.325  0.00  0.00    +0.230 C 
ATOM     23  C   LIG    1       12.454   1.302  -2.404  0.00  0.00    -0.070 C 
ATOM     24  C   LIG    1       13.433   0.600  -3.287  0.00  0.00    +0.230 C 
ATOM     25  O   LIG    1       13.774  -0.718  -2.905  0.00  0.00    -0.370 OA
ATOM     26  C   LIG    1       12.670  -1.545  -2.538  0.00  0.00    +0.210 C 
ATOM     27  C   LIG    1       12.012  -0.932  -1.302  0.00  0.00    +0.010 C 
ATOM     28  C   LIG    1       11.444   0.445  -1.649  0.00  0.00    +0.000 C 
ENDBRANCH  17  20
ENDBRANCH   1  18
TORSDOF 3
