REMARK  Name = ZINCpe00000MJL19.0
REMARK                            x       y       z     vdW  Elec       q    Type
REMARK                         _______ _______ _______ _____ _____    ______ ____
ROOT
ATOM      1  O   LIG    1        2.540   4.394  -1.828  0.00  0.00    -0.530 OA
ATOM      2  C   LIG    1        3.571   3.825  -1.540  0.00  0.00    +0.500 C 
ATOM      3  N   LIG    1        4.746   4.481  -1.615  0.00  0.00    -0.730 N 
ATOM      4  H   LIG    1        5.572   4.027  -1.384  0.00  0.00    +0.400 HD
ENDROOT
BRANCH   3   5
ATOM      5  C   LIG    1        4.777   5.882  -2.045  0.00  0.00    +0.320 C 
BRANCH   5   6
ATOM      6  C   LIG    1        6.200   6.377  -2.043  0.00  0.00    -0.120 A 
ATOM      7  C   LIG    1        6.726   6.961  -0.905  0.00  0.00    +0.070 A 
ATOM      8  C   LIG    1        8.032   7.410  -0.898  0.00  0.00    -0.010 A 
ATOM      9  C   LIG    1        8.814   7.285  -2.039  0.00  0.00    +0.170 A 
ATOM     10  C   LIG    1        8.281   6.704  -3.182  0.00  0.00    +0.020 A 
ATOM     11  C   LIG    1        6.976   6.251  -3.180  0.00  0.00    +0.070 A 
BRANCH   9  12
ATOM     12  N   LIG    1       10.137   7.746  -2.038  0.00  0.00    -0.330 N 
ATOM     13  C   LIG    1       10.776   8.329  -0.998  0.00  0.00    +0.230 A 
ATOM     14  C   LIG    1       12.033   8.626  -1.401  0.00  0.00    -0.100 A 
ATOM     15  C   LIG    1       12.169   8.211  -2.730  0.00  0.00    +0.250 A 
ATOM     16  N   LIG    1       11.035   7.679  -3.111  0.00  0.00    -0.290 NA
ENDBRANCH   9  12
ENDBRANCH   5   6
ENDBRANCH   3   5
BRANCH   2  17
ATOM     17  C   LIG    1        3.540   2.385  -1.098  0.00  0.00    +0.310 C 
BRANCH  17  18
ATOM     18  N   LIG    1        2.156   1.904  -1.100  0.00  0.00    -0.580 N 
ATOM     19  C   LIG    1        1.598   1.288  -2.314  0.00  0.00    +0.290 C 
ATOM     20  C   LIG    1        1.451  -0.216  -2.078  0.00  0.00    -0.000 C 
ATOM     21  C   LIG    1        0.122  -0.532  -1.416  0.00  0.00    +0.020 C 
ATOM     22  C   LIG    1        0.002  -0.004   0.002  0.00  0.00    +0.050 C 
ATOM     23  C   LIG    1       -0.019   1.526   0.010  0.00  0.00    +0.190 C 
ATOM     24  C   LIG    1        1.411   2.026  -0.001  0.00  0.00    +0.490 C 
ATOM     25  O   LIG    1        1.879   2.540   0.993  0.00  0.00    -0.540 OA
BRANCH  23  26
ATOM     26  O   LIG    1       -0.703   2.004  -1.150  0.00  0.00    -0.540 OA
ATOM     27  H   LIG    1       -0.753   2.968  -1.208  0.00  0.00    +0.390 HD
ENDBRANCH  23  26
ENDBRANCH  17  18
ENDBRANCH   2  17
TORSDOF 6
