REMARK  Name = ZINCrH00000No4HR.0
REMARK                            x       y       z     vdW  Elec       q    Type
REMARK                         _______ _______ _______ _____ _____    ______ ____
ROOT
ATOM      1  C   LIG    1       -0.127   0.896  -2.345  0.00  0.00    +0.340 C 
ENDROOT
BRANCH   1   2
ATOM      2  C   LIG    1       -0.522  -0.558  -2.359  0.00  0.00    -0.200 A 
ATOM      3  C   LIG    1        0.263  -1.563  -2.739  0.00  0.00    +0.030 A 
ATOM      4  C   LIG    1       -0.306  -2.829  -2.672  0.00  0.00    -0.150 A 
ATOM      5  C   LIG    1       -1.579  -2.827  -2.228  0.00  0.00    -0.190 A 
ATOM      6  C   LIG    1       -2.414  -4.080  -2.067  0.00  0.00    +0.100 C 
ATOM      7  C   LIG    1       -1.723  -5.210  -2.843  0.00  0.00    +0.220 C 
ATOM      8  O   LIG    1       -0.331  -5.218  -2.515  0.00  0.00    -0.380 OA
ATOM      9  C   LIG    1        0.407  -4.119  -3.056  0.00  0.00    +0.310 C 
ATOM     10  S   LIG    1       -2.090  -1.187  -1.870  0.00  0.00    +0.210 S 
ENDBRANCH   1   2
BRANCH   1  15
ATOM     11  C   LIG    1       -0.354   3.018   1.533  0.00  0.00    -0.030 C 
ATOM     12  C   LIG    1       -1.384   3.990   0.924  0.00  0.00    +0.010 C 
ATOM     13  C   LIG    1       -1.850   3.536  -0.470  0.00  0.00    +0.030 C 
ATOM     14  C   LIG    1       -0.703   3.007  -1.294  0.00  0.00    +0.190 C 
ATOM     15  N   LIG    1       -0.669   1.539  -1.140  0.00  0.00    -0.530 NA
ATOM     16  C   LIG    1       -0.013   1.086   0.008  0.00  0.00    +0.170 C 
ATOM     17  C   LIG    1       -0.713   1.573   1.296  0.00  0.00    +0.040 C 
BRANCH  11  19
ATOM     18  C   LIG    1        0.284   4.669   3.296  0.00  0.00    +0.010 C 
ATOM     19  C   LIG    1       -0.272   3.267   3.041  0.00  0.00    +0.000 C 
ENDBRANCH  11  19
ENDBRANCH   1  15
BRANCH   1  20
ATOM     20  C   LIG    1       -0.677   1.579  -3.570  0.00  0.00    +0.190 A 
ATOM     21  N   LIG    1       -1.925   1.919  -3.781  0.00  0.00    -0.270 NA
ATOM     22  N   LIG    1       -1.994   2.480  -4.939  0.00  0.00    -0.070 NA
ATOM     23  N   LIG    1       -0.824   2.498  -5.476  0.00  0.00    -0.090 NA
ATOM     24  N   LIG    1        0.015   1.952  -4.662  0.00  0.00    -0.270 N 
BRANCH  24  25
ATOM     25  C   LIG    1        1.452   1.771  -4.885  0.00  0.00    +0.200 C 
ATOM     26  C   LIG    1        2.068   2.452  -6.108  0.00  0.00    +0.090 C 
ATOM     27  C   LIG    1        1.880   0.933  -6.091  0.00  0.00    +0.070 C 
ENDBRANCH  24  25
ENDBRANCH   1  20
TORSDOF 5
