REMARK  Name = ZINCvU0000000BoA.0
REMARK                            x       y       z     vdW  Elec       q    Type
REMARK                         _______ _______ _______ _____ _____    ______ ____
ROOT
ATOM      1  N   LIG    1        1.086   2.297   0.004  0.00  0.00    -0.480 N 
ATOM      2  C   LIG    1        0.650   3.607   0.015  0.00  0.00    +0.050 A 
ATOM      3  C   LIG    1        1.289   4.839   0.016  0.00  0.00    +0.010 A 
ATOM      4  C   LIG    1        0.541   5.997   0.029  0.00  0.00    +0.030 A 
ATOM      5  C   LIG    1       -0.845   5.938   0.043  0.00  0.00    +0.000 A 
ATOM      6  C   LIG    1       -1.492   4.734   0.043  0.00  0.00    +0.070 A 
ATOM      7  C   LIG    1       -0.754   3.548   0.028  0.00  0.00    +0.050 A 
ATOM      8  N   LIG    1       -1.095   2.233   0.019  0.00  0.00    -0.480 NA
ATOM      9  C   LIG    1       -0.018   1.503   0.010  0.00  0.00    +0.270 A 
ENDROOT
BRANCH   9  10
ATOM     10  C   LIG    1        0.002  -0.004   0.002  0.00  0.00    +0.340 C 
ATOM     11  C   LIG    1       -0.378  -0.512  -1.391  0.00  0.00    +0.060 C 
BRANCH  10  12
ATOM     12  N   LIG    1       -0.959  -0.511   0.985  0.00  0.00    -0.710 N 
ATOM     13  H   LIG    1       -1.717   0.034   1.247  0.00  0.00    +0.420 HD
ATOM     14  C   LIG    1       -0.788  -1.734   1.526  0.00  0.00    +0.610 C 
ATOM     15  O   LIG    1        0.164  -2.417   1.197  0.00  0.00    -0.520 OA
BRANCH  14  16
ATOM     16  C   LIG    1       -1.750  -2.241   2.510  0.00  0.00    -0.090 A 
ATOM     17  C   LIG    1       -1.696  -3.455   3.132  0.00  0.00    +0.050 A 
ATOM     18  C   LIG    1       -2.807  -3.521   3.986  0.00  0.00    -0.070 A 
ATOM     19  C   LIG    1       -3.482  -2.358   3.850  0.00  0.00    +0.210 A 
ATOM     20  O   LIG    1       -2.839  -1.587   2.964  0.00  0.00    -0.160 OA
ENDBRANCH  14  16
ENDBRANCH  10  12
ENDBRANCH   9  10
BRANCH   1  21
ATOM     21  C   LIG    1        2.480   1.846  -0.011  0.00  0.00    +0.310 C 
BRANCH  21  22
ATOM     22  C   LIG    1        2.952   1.697  -1.459  0.00  0.00    +0.030 C 
BRANCH  22  23
ATOM     23  C   LIG    1        4.407   1.226  -1.475  0.00  0.00    +0.200 C 
BRANCH  23  24
ATOM     24  O   LIG    1        4.848   1.086  -2.827  0.00  0.00    -0.310 OA
BRANCH  24  30
ATOM     25  C   LIG    1        9.130  -0.303  -0.943  0.00  0.00    +0.090 C 
ATOM     26  C   LIG    1        8.244  -0.014  -2.127  0.00  0.00    -0.040 A 
ATOM     27  C   LIG    1        8.734  -0.170  -3.410  0.00  0.00    -0.040 A 
ATOM     28  C   LIG    1        7.923   0.094  -4.499  0.00  0.00    -0.040 A 
ATOM     29  C   LIG    1        6.622   0.515  -4.306  0.00  0.00    -0.030 A 
ATOM     30  C   LIG    1        6.128   0.672  -3.019  0.00  0.00    +0.140 A 
ATOM     31  C   LIG    1        8.460  -0.077  -5.897  0.00  0.00    +0.090 C 
ATOM     32  C   LIG    1        6.945   0.412  -1.929  0.00  0.00    -0.090 A 
ENDBRANCH  24  30
ENDBRANCH  23  24
ENDBRANCH  22  23
ENDBRANCH  21  22
ENDBRANCH   1  21
TORSDOF 8
