REMARK  Name = ZINCpe00000yXExY.0
REMARK                            x       y       z     vdW  Elec       q    Type
REMARK                         _______ _______ _______ _____ _____    ______ ____
ROOT
ATOM      1  C   LIG    1        3.110   2.950   1.427  0.00  0.00    +0.500 C 
ATOM      2  N   LIG    1        3.348   1.679   1.047  0.00  0.00    -0.610 N 
ATOM      3  C   LIG    1        4.590   1.000   1.443  0.00  0.00    +0.270 C 
ATOM      4  C   LIG    1        5.293   0.488   0.179  0.00  0.00    +0.270 C 
ATOM      5  N   LIG    1        4.315  -0.244  -0.638  0.00  0.00    -0.620 N 
ATOM      6  C   LIG    1        3.073   0.435  -1.034  0.00  0.00    +0.300 C 
ATOM      7  C   LIG    1        4.553  -1.515  -1.018  0.00  0.00    +0.510 C 
ATOM      8  O   LIG    1        3.739  -2.109  -1.693  0.00  0.00    -0.510 OA
ATOM      9  C   LIG    1        2.370   0.947   0.230  0.00  0.00    +0.270 C 
ATOM     10  O   LIG    1        2.030   3.456   1.208  0.00  0.00    -0.480 OA
ENDROOT
BRANCH   9  11
ATOM     11  C   LIG    1        1.243   1.869  -0.157  0.00  0.00    -0.060 A 
ATOM     12  C   LIG    1       -0.050   1.586   0.245  0.00  0.00    +0.000 A 
ATOM     13  C   LIG    1       -1.085   2.429  -0.114  0.00  0.00    +0.000 A 
ATOM     14  C   LIG    1       -0.826   3.560  -0.866  0.00  0.00    +0.010 A 
ATOM     15  C   LIG    1        0.466   3.843  -1.267  0.00  0.00    +0.000 A 
ATOM     16  C   LIG    1        1.501   2.997  -0.912  0.00  0.00    +0.040 A 
ENDBRANCH   9  11
BRANCH   1  18
ATOM     17  C   LIG    1        5.133   4.342   1.081  0.00  0.00    +0.080 C 
ATOM     18  C   LIG    1        4.186   3.742   2.123  0.00  0.00    +0.260 C 
BRANCH  18  19
ATOM     19  N   LIG    1        3.572   4.820   2.902  0.00  0.00    -0.360 N 
ATOM     20  C   LIG    1        3.223   6.037   2.437  0.00  0.00    +0.250 A 
ATOM     21  C   LIG    1        2.690   6.736   3.466  0.00  0.00    -0.120 A 
ATOM     22  C   LIG    1        2.716   5.917   4.600  0.00  0.00    +0.230 A 
ATOM     23  N   LIG    1        3.239   4.767   4.262  0.00  0.00    -0.300 NA
ENDBRANCH  18  19
ENDBRANCH   1  18
BRANCH   7  24
ATOM     24  C   LIG    1        5.831  -2.198  -0.605  0.00  0.00    +0.220 C 
BRANCH  24  25
ATOM     25  O   LIG    1        5.851  -3.528  -1.127  0.00  0.00    -0.550 OA
ATOM     26  H   LIG    1        6.646  -4.028  -0.900  0.00  0.00    +0.390 HD
ENDBRANCH  24  25
ENDBRANCH   7  24
TORSDOF 5
