REMARK  Name = ZINCpe000000WqXR.1
REMARK                            x       y       z     vdW  Elec       q    Type
REMARK                         _______ _______ _______ _____ _____    ______ ____
ROOT
ATOM      1  N   LIG    1       -4.212  -5.179  -0.877  0.00  0.00    -0.560 N 
ATOM      2  C   LIG    1       -2.923  -4.999  -1.554  0.00  0.00    +0.300 C 
ATOM      3  C   LIG    1       -2.012  -4.293  -0.526  0.00  0.00    +0.010 C 
ATOM      4  C   LIG    1       -2.650  -4.729   0.813  0.00  0.00    +0.080 C 
ATOM      5  C   LIG    1       -4.088  -5.039   0.454  0.00  0.00    +0.520 C 
ATOM      6  O   LIG    1       -4.995  -5.146   1.252  0.00  0.00    -0.520 OA
ENDROOT
BRANCH   3   7
ATOM      7  C   LIG    1       -2.071  -2.796  -0.690  0.00  0.00    +0.520 C 
ATOM      8  N   LIG    1       -1.392  -1.998   0.158  0.00  0.00    -0.610 N 
ATOM      9  C   LIG    1       -0.586  -2.567   1.249  0.00  0.00    +0.220 C 
ATOM     10  C   LIG    1        0.818  -1.956   1.187  0.00  0.00    +0.210 C 
ATOM     11  N   LIG    1        0.711  -0.491   1.193  0.00  0.00    -0.680 NA
ATOM     12  H   LIG    1        0.267  -0.164   2.037  0.00  0.00    +0.340 HD
ATOM     13  C   LIG    1        0.002  -0.004   0.002  0.00  0.00    +0.160 C 
ATOM     14  C   LIG    1       -0.019   1.526   0.010  0.00  0.00    +0.050 C 
ATOM     15  C   LIG    1       -1.435  -0.535   0.014  0.00  0.00    +0.250 C 
ATOM     16  O   LIG    1       -2.730  -2.310  -1.584  0.00  0.00    -0.510 OA
ENDBRANCH   3   7
BRANCH   1  20
ATOM     17  C   LIG    1       -7.804  -6.021  -2.831  0.00  0.00    +0.180 A 
ATOM     18  C   LIG    1       -6.987  -7.056  -2.403  0.00  0.00    -0.100 A 
ATOM     19  C   LIG    1       -5.797  -6.777  -1.755  0.00  0.00    +0.110 A 
ATOM     20  C   LIG    1       -5.419  -5.462  -1.534  0.00  0.00    +0.070 A 
ATOM     21  C   LIG    1       -6.242  -4.421  -1.959  0.00  0.00    +0.180 A 
ATOM     22  C   LIG    1       -7.431  -4.703  -2.611  0.00  0.00    -0.100 A 
BRANCH  17  24
ATOM     23  C   LIG    1       -9.296  -7.676  -3.660  0.00  0.00    +0.250 C 
ATOM     24  O   LIG    1       -8.973  -6.298  -3.467  0.00  0.00    -0.310 OA
ENDBRANCH  17  24
BRANCH  21  25
ATOM     25  O   LIG    1       -5.877  -3.130  -1.737  0.00  0.00    -0.290 OA
ATOM     26  C   LIG    1       -6.769  -2.115  -2.200  0.00  0.00    +0.250 C 
ENDBRANCH  21  25
ENDBRANCH   1  20
TORSDOF 4
