REMARK  Name = ZINCrH000004ui0x.0
REMARK                            x       y       z     vdW  Elec       q    Type
REMARK                         _______ _______ _______ _____ _____    ______ ____
ROOT
ATOM      1  O   LIG    1       -3.739   2.046   0.519  0.00  0.00    -0.570 OA
ATOM      2  C   LIG    1       -3.611   3.205   0.176  0.00  0.00    +0.700 C 
ATOM      3  N   LIG    1       -2.383   3.704  -0.068  0.00  0.00    -0.680 N 
ATOM      4  H   LIG    1       -2.273   4.647  -0.266  0.00  0.00    +0.410 HD
ATOM      5  N   LIG    1       -4.697   3.991   0.040  0.00  0.00    -0.740 N 
ATOM      6  H   LIG    1       -4.595   4.916  -0.234  0.00  0.00    +0.400 HD
ENDROOT
BRANCH   3   7
ATOM      7  C   LIG    1       -1.265   2.861  -0.035  0.00  0.00    +0.160 A 
ATOM      8  C   LIG    1       -0.040   3.348   0.403  0.00  0.00    +0.000 A 
ATOM      9  C   LIG    1        1.062   2.518   0.431  0.00  0.00    +0.040 A 
ATOM     10  C   LIG    1        0.945   1.193   0.030  0.00  0.00    +0.120 A 
ATOM     11  C   LIG    1       -0.281   0.705  -0.404  0.00  0.00    +0.010 A 
ATOM     12  C   LIG    1       -1.382   1.536  -0.436  0.00  0.00    +0.040 A 
BRANCH  10  13
ATOM     13  N   LIG    1        2.062   0.350   0.063  0.00  0.00    -0.660 N 
ATOM     14  H   LIG    1        2.182  -0.324  -0.624  0.00  0.00    +0.420 HD
ATOM     15  C   LIG    1        2.972   0.475   1.050  0.00  0.00    +0.610 C 
ATOM     16  O   LIG    1        2.868   1.375   1.863  0.00  0.00    -0.500 OA
BRANCH  15  17
ATOM     17  C   LIG    1        4.088  -0.471   1.142  0.00  0.00    -0.090 A 
ATOM     18  C   LIG    1        5.074  -0.459   2.087  0.00  0.00    +0.050 A 
ATOM     19  C   LIG    1        5.924  -1.538   1.796  0.00  0.00    -0.070 A 
ATOM     20  C   LIG    1        5.426  -2.154   0.702  0.00  0.00    +0.210 A 
ATOM     21  O   LIG    1        4.316  -1.511   0.314  0.00  0.00    -0.170 OA
ENDBRANCH  15  17
ENDBRANCH  10  13
ENDBRANCH   3   7
BRANCH   5  22
ATOM     22  C   LIG    1       -6.032   3.449   0.306  0.00  0.00    +0.310 C 
BRANCH  22  23
ATOM     23  C   LIG    1       -7.080   4.540   0.079  0.00  0.00    +0.200 C 
BRANCH  23  24
ATOM     24  O   LIG    1       -7.091   4.911  -1.301  0.00  0.00    -0.310 OA
BRANCH  24  25
ATOM     25  C   LIG    1       -7.972   5.876  -1.673  0.00  0.00    +0.130 A 
ATOM     26  C   LIG    1       -8.814   6.450  -0.732  0.00  0.00    -0.080 A 
ATOM     27  C   LIG    1       -9.705   7.434  -1.112  0.00  0.00    +0.050 A 
ATOM     28  C   LIG    1       -9.766   7.841  -2.432  0.00  0.00    -0.040 A 
ATOM     29  C   LIG    1       -8.932   7.267  -3.374  0.00  0.00    +0.050 A 
ATOM     30  C   LIG    1       -8.036   6.285  -2.998  0.00  0.00    -0.020 A 
ENDBRANCH  24  25
ENDBRANCH  23  24
ENDBRANCH  22  23
ENDBRANCH   5  22
TORSDOF 7
