REMARK  Name = ZINCvU0000000Dt3.0
REMARK                            x       y       z     vdW  Elec       q    Type
REMARK                         _______ _______ _______ _____ _____    ______ ____
ROOT
ATOM      1  N   LIG    1       -4.197   2.780  -0.530  0.00  0.00    -0.450 N 
ATOM      2  C   LIG    1       -2.963   3.066  -0.990  0.00  0.00    +0.480 A 
ATOM      3  N   LIG    1       -2.212   1.953  -0.866  0.00  0.00    -0.370 N 
ATOM      4  N   LIG    1       -3.025   0.953  -0.316  0.00  0.00    -0.260 NA
ATOM      5  S   LIG    1       -2.443   4.572  -1.618  0.00  0.00    -0.550 S 
ATOM      6  C   LIG    1       -4.209   1.461  -0.113  0.00  0.00    +0.330 A 
ENDROOT
BRANCH   1  12
ATOM      7  C   LIG    1       -6.607   6.403   1.760  0.00  0.00    +0.100 C 
ATOM      8  C   LIG    1       -6.474   5.432   0.616  0.00  0.00    -0.070 A 
ATOM      9  C   LIG    1       -7.424   5.414  -0.389  0.00  0.00    +0.030 A 
ATOM     10  C   LIG    1       -7.305   4.524  -1.441  0.00  0.00    +0.040 A 
ATOM     11  C   LIG    1       -6.234   3.654  -1.493  0.00  0.00    +0.030 A 
ATOM     12  C   LIG    1       -5.282   3.665  -0.482  0.00  0.00    +0.120 A 
ATOM     13  C   LIG    1       -5.404   4.559   0.572  0.00  0.00    +0.040 A 
ENDBRANCH   1  12
BRANCH   6  14
ATOM     14  C   LIG    1       -5.370   0.746   0.459  0.00  0.00    -0.050 A 
ATOM     15  C   LIG    1       -6.543   1.440   0.758  0.00  0.00    +0.050 A 
ATOM     16  C   LIG    1       -7.625   0.766   1.287  0.00  0.00    +0.010 A 
ATOM     17  C   LIG    1       -7.545  -0.594   1.530  0.00  0.00    +0.040 A 
ATOM     18  C   LIG    1       -6.383  -1.287   1.241  0.00  0.00    +0.020 A 
ATOM     19  C   LIG    1       -5.296  -0.625   0.707  0.00  0.00    +0.070 A 
ENDBRANCH   6  14
BRANCH   3  20
ATOM     20  C   LIG    1       -0.804   1.812  -1.244  0.00  0.00    +0.520 C 
BRANCH  20  21
ATOM     21  N   LIG    1        0.030   1.809  -0.035  0.00  0.00    -0.540 NA
ATOM     22  C   LIG    1        0.114   0.456   0.545  0.00  0.00    +0.200 C 
ATOM     23  C   LIG    1        1.609   0.085   0.629  0.00  0.00    +0.030 C 
ATOM     24  C   LIG    1        2.313   1.468   0.621  0.00  0.00    +0.060 C 
ATOM     25  C   LIG    1        1.400   2.278  -0.334  0.00  0.00    +0.260 C 
BRANCH  25  26
ATOM     26  C   LIG    1        1.523   3.753  -0.051  0.00  0.00    -0.010 A 
ATOM     27  C   LIG    1        2.198   4.667  -0.789  0.00  0.00    -0.050 A 
ATOM     28  C   LIG    1        1.995   5.882  -0.096  0.00  0.00    +0.020 A 
ATOM     29  N   LIG    1        1.262   5.596   0.941  0.00  0.00    -0.360 NA
ATOM     30  C   LIG    1        2.526   7.239  -0.479  0.00  0.00    +0.160 C 
ATOM     31  O   LIG    1        0.990   4.419   0.983  0.00  0.00    +0.120 OA
ENDBRANCH  25  26
ENDBRANCH  20  21
ENDBRANCH   3  20
TORSDOF 5
