REMARK  Name = ZINCqH0000007T1l.0
REMARK                            x       y       z     vdW  Elec       q    Type
REMARK                         _______ _______ _______ _____ _____    ______ ____
ROOT
ATOM      1  N   LIG    1        5.023  -2.137   0.455  0.00  0.00    -0.720 N 
ATOM      2  H   LIG    1        5.459  -2.096  -0.411  0.00  0.00    +0.400 HD
ATOM      3  C   LIG    1        5.495  -2.965   1.408  0.00  0.00    +0.550 C 
ATOM      4  O   LIG    1        4.949  -3.016   2.493  0.00  0.00    -0.520 OA
ENDROOT
BRANCH   3   5
ATOM      5  C   LIG    1        6.676  -3.811   1.133  0.00  0.00    -0.100 A 
ATOM      6  C   LIG    1        7.301  -3.758  -0.113  0.00  0.00    +0.050 A 
ATOM      7  C   LIG    1        8.406  -4.547  -0.361  0.00  0.00    +0.080 A 
ATOM      8  C   LIG    1        8.887  -5.396   0.619  0.00  0.00    -0.160 A 
ATOM      9  C   LIG    1        8.269  -5.456   1.856  0.00  0.00    +0.080 A 
ATOM     10  C   LIG    1        7.167  -4.669   2.118  0.00  0.00    +0.090 A 
BRANCH   8  11
ATOM     11  C   LIG    1       10.091  -6.259   0.340  0.00  0.00    +0.510 C 
ATOM     12  F   LIG    1       10.793  -6.479   1.529  0.00  0.00    -0.170 F 
ATOM     13  F   LIG    1       10.923  -5.614  -0.581  0.00  0.00    -0.170 F 
ATOM     14  F   LIG    1        9.673  -7.485  -0.189  0.00  0.00    -0.170 F 
ENDBRANCH   8  11
ENDBRANCH   3   5
BRANCH   1  15
ATOM     15  C   LIG    1        3.853  -1.298   0.726  0.00  0.00    +0.260 C 
BRANCH  15  16
ATOM     16  C   LIG    1        3.691  -0.270  -0.395  0.00  0.00    +0.220 C 
BRANCH  16  22
ATOM     17  C   LIG    1        1.191  -0.098  -0.492  0.00  0.00    +0.130 A 
ATOM     18  C   LIG    1        0.012   0.609  -0.306  0.00  0.00    -0.080 A 
ATOM     19  C   LIG    1        0.053   1.903   0.177  0.00  0.00    +0.040 A 
ATOM     20  C   LIG    1        1.268   2.492   0.475  0.00  0.00    -0.040 A 
ATOM     21  C   LIG    1        2.444   1.789   0.290  0.00  0.00    +0.080 A 
ATOM     22  C   LIG    1        2.409   0.496  -0.193  0.00  0.00    -0.110 A 
BRANCH  17  24
ATOM     23  C   LIG    1       -0.136  -1.919  -1.254  0.00  0.00    +0.250 C 
ATOM     24  O   LIG    1        1.153  -1.371  -0.967  0.00  0.00    -0.320 OA
ENDBRANCH  17  24
ENDBRANCH  16  22
BRANCH  16  25
ATOM     25  N   LIG    1        4.826   0.662  -0.372  0.00  0.00    -0.530 NA
ATOM     26  C   LIG    1        5.968   0.119  -1.120  0.00  0.00    +0.190 C 
ATOM     27  C   LIG    1        5.208   0.993   1.007  0.00  0.00    +0.200 C 
ENDBRANCH  16  25
ENDBRANCH  15  16
ENDBRANCH   1  15
TORSDOF 7
