REMARK  Name = ZINCrD00000F5Lmi.0
REMARK                            x       y       z     vdW  Elec       q    Type
REMARK                         _______ _______ _______ _____ _____    ______ ____
ROOT
ATOM      1  C   LIG    1        1.130   1.725   0.928  0.00  0.00    -0.060 A 
ATOM      2  C   LIG    1        1.099   3.107   1.141  0.00  0.00    +0.060 A 
ATOM      3  C   LIG    1       -0.086   3.788   1.106  0.00  0.00    +0.110 A 
ATOM      4  C   LIG    1       -1.272   3.102   0.856  0.00  0.00    -0.180 A 
ATOM      5  C   LIG    1       -2.575   3.796   0.808  0.00  0.00    +0.540 A 
ATOM      6  N   LIG    1       -3.675   3.075   0.562  0.00  0.00    -0.590 NA
ATOM      7  C   LIG    1       -3.620   1.770   0.364  0.00  0.00    +0.510 A 
ATOM      8  N   LIG    1       -2.451   1.066   0.394  0.00  0.00    -0.620 N 
ATOM      9  H   LIG    1       -2.460   0.108   0.241  0.00  0.00    +0.430 HD
ATOM     10  O   LIG    1       -2.646   5.000   0.989  0.00  0.00    -0.470 OA
ATOM     11  C   LIG    1       -1.253   1.713   0.635  0.00  0.00    +0.170 A 
ATOM     12  C   LIG    1       -0.049   1.026   0.677  0.00  0.00    +0.050 A 
ENDROOT
BRANCH   7  13
ATOM     13  C   LIG    1       -4.864   1.049   0.101  0.00  0.00    -0.120 C 
ATOM     14  C   LIG    1       -6.038   1.718   0.065  0.00  0.00    +0.230 C 
ATOM     15 CL   LIG    1       -4.835  -0.666  -0.165  0.00  0.00    -0.040 Cl
BRANCH  14  16
ATOM     16  C   LIG    1       -7.303   0.978  -0.038  0.00  0.00    -0.140 A 
ATOM     17  C   LIG    1       -8.392   1.532  -0.721  0.00  0.00    +0.100 A 
ATOM     18  C   LIG    1       -9.574   0.836  -0.818  0.00  0.00    -0.010 A 
ATOM     19  C   LIG    1       -9.705  -0.422  -0.227  0.00  0.00    +0.140 A 
ATOM     20  O   LIG    1      -10.778  -1.258  -0.191  0.00  0.00    -0.300 OA
ATOM     21  C   LIG    1      -10.335  -2.587   0.131  0.00  0.00    +0.240 C 
ATOM     22  C   LIG    1       -9.054  -2.330   0.960  0.00  0.00    +0.070 C 
ATOM     23  C   LIG    1       -8.618  -0.970   0.451  0.00  0.00    -0.180 A 
ATOM     24  C   LIG    1       -7.432  -0.287   0.551  0.00  0.00    +0.110 A 
ENDBRANCH  14  16
ENDBRANCH   7  13
BRANCH   1  25
ATOM     25  C   LIG    1        2.420   1.002   0.969  0.00  0.00    +0.510 C 
ATOM     26  O   LIG    1        2.450  -0.198   0.784  0.00  0.00    -0.500 OA
BRANCH  25  28
ATOM     27  C   LIG    1        4.790   0.901   1.237  0.00  0.00    +0.290 C 
ATOM     28  O   LIG    1        3.561   1.675   1.211  0.00  0.00    -0.350 OA
ENDBRANCH  25  28
ENDBRANCH   1  25
TORSDOF 4
