REMARK  Name = ZINCfA000000bcBB.0
REMARK                            x       y       z     vdW  Elec       q    Type
REMARK                         _______ _______ _______ _____ _____    ______ ____
ROOT
ATOM      1  C   LIG    1        2.079   0.792  -3.716  0.00  0.00    +0.050 C 
ATOM      2  C   LIG    1        1.388   1.405  -2.497  0.00  0.00    -0.010 C 
ATOM      3  C   LIG    1        2.108   0.958  -1.221  0.00  0.00    +0.060 C 
ATOM      4  C   LIG    1        1.366   1.511  -0.003  0.00  0.00    +0.250 C 
ATOM      5  N   LIG    1       -0.012   1.005   0.008  0.00  0.00    -0.380 N 
ATOM      6  C   LIG    1       -0.730   1.490  -1.177  0.00  0.00    +0.250 C 
ATOM      7  H   LIG    1        0.002  -0.004   0.002  0.00  0.00    +0.420 HD
ATOM      8  C   LIG    1       -0.068   0.935  -2.441  0.00  0.00    +0.060 C 
ENDROOT
BRANCH   5   9
ATOM      9  C   LIG    1       -0.696   1.477   1.218  0.00  0.00    +0.330 C 
BRANCH   9  10
ATOM     10  C   LIG    1       -2.067   0.856   1.295  0.00  0.00    -0.180 A 
ATOM     11  C   LIG    1       -3.149   1.497   0.719  0.00  0.00    +0.070 A 
ATOM     12  C   LIG    1       -4.405   0.926   0.783  0.00  0.00    +0.000 A 
ATOM     13  C   LIG    1       -4.583  -0.283   1.435  0.00  0.00    +0.140 A 
ATOM     14  C   LIG    1       -3.501  -0.921   2.016  0.00  0.00    +0.000 A 
ATOM     15  F   LIG    1       -5.813  -0.839   1.504  0.00  0.00    -0.120 F 
ATOM     16  C   LIG    1       -2.244  -0.351   1.945  0.00  0.00    +0.080 A 
ENDBRANCH   9  10
ENDBRANCH   5   9
TORSDOF 2
