REMARK  Name = ZINC580000002wEF.0
REMARK                            x       y       z     vdW  Elec       q    Type
REMARK                         _______ _______ _______ _____ _____    ______ ____
ROOT
ATOM      1  C   LIG    1       -2.388   0.951   0.018  0.00  0.00    +0.340 C 
ENDROOT
BRANCH   1   3
ATOM      2  C   LIG    1       -0.013   1.076   0.008  0.00  0.00    +0.380 C 
ATOM      3  N   LIG    1       -1.129   1.700   0.017  0.00  0.00    -0.520 NA
ENDBRANCH   1   3
BRANCH   1   4
ATOM      4  C   LIG    1       -3.103   1.197   1.281  0.00  0.00    +0.210 C 
ATOM      5  N   LIG    1       -3.656   1.387   2.256  0.00  0.00    -0.420 NA
ENDBRANCH   1   4
TORSDOF 2
