REMARK  Name = ZINCrH000004sXJ2.0
REMARK                            x       y       z     vdW  Elec       q    Type
REMARK                         _______ _______ _______ _____ _____    ______ ____
ROOT
ATOM      1  C   LIG    1       -3.508  -4.345  -1.129  0.00  0.00    +0.480 C 
ATOM      2  N   LIG    1       -4.160  -5.515  -1.280  0.00  0.00    -0.550 N 
ATOM      3  C   LIG    1       -4.862  -6.131  -0.146  0.00  0.00    +0.290 C 
ATOM      4  C   LIG    1       -4.529  -7.625  -0.139  0.00  0.00    +0.030 C 
ATOM      5  C   LIG    1       -5.061  -8.259  -1.423  0.00  0.00    +0.100 C 
ATOM      6  C   LIG    1       -4.596  -7.483  -2.627  0.00  0.00    -0.080 A 
ATOM      7  C   LIG    1       -4.595  -8.105  -3.866  0.00  0.00    -0.030 A 
ATOM      8  C   LIG    1       -4.178  -7.418  -4.991  0.00  0.00    +0.050 A 
ATOM      9  C   LIG    1       -3.759  -6.105  -4.888  0.00  0.00    +0.030 A 
ATOM     10  C   LIG    1       -3.756  -5.478  -3.655  0.00  0.00    +0.080 A 
ATOM     11  F   LIG    1       -3.346  -4.194  -3.552  0.00  0.00    -0.080 F 
ATOM     12 CL   LIG    1       -5.120  -9.753  -4.006  0.00  0.00    -0.050 Cl
ATOM     13  C   LIG    1       -4.174  -6.168  -2.522  0.00  0.00    +0.140 A 
ATOM     14  O   LIG    1       -2.701  -3.988  -1.961  0.00  0.00    -0.450 OA
ENDROOT
BRANCH   1  15
ATOM     15  C   LIG    1       -3.782  -3.480   0.075  0.00  0.00    +0.210 C 
BRANCH  15  18
ATOM     16  C   LIG    1       -0.872  -2.869   1.074  0.00  0.00    +0.340 C 
ATOM     17  N   LIG    1       -1.765  -1.936   0.383  0.00  0.00    -0.470 N 
ATOM     18  C   LIG    1       -3.029  -2.182  -0.057  0.00  0.00    +0.190 A 
ATOM     19  N   LIG    1       -3.467  -1.088  -0.621  0.00  0.00    -0.270 NA
ATOM     20  N   LIG    1       -2.568  -0.171  -0.560  0.00  0.00    -0.270 NA
ATOM     21  C   LIG    1       -1.501  -0.635   0.050  0.00  0.00    +0.220 A 
BRANCH  21  22
ATOM     22  C   LIG    1       -0.250   0.107   0.321  0.00  0.00    -0.020 A 
ATOM     23  C   LIG    1        0.646  -0.358   1.284  0.00  0.00    +0.010 A 
ATOM     24  C   LIG    1        1.811   0.337   1.532  0.00  0.00    +0.010 A 
ATOM     25  C   LIG    1        2.093   1.494   0.826  0.00  0.00    +0.030 A 
ATOM     26  C   LIG    1        1.209   1.960  -0.130  0.00  0.00    +0.010 A 
ATOM     27  C   LIG    1        0.040   1.274  -0.387  0.00  0.00    +0.070 A 
ENDBRANCH  21  22
ENDBRANCH  15  18
ENDBRANCH   1  15
TORSDOF 3
