REMARK  Name = ZINCpe000000WBhn.0
REMARK                            x       y       z     vdW  Elec       q    Type
REMARK                         _______ _______ _______ _____ _____    ______ ____
ROOT
ATOM      1  N   LIG    1       -2.338   3.894   0.099  0.00  0.00    -0.460 N 
ATOM      2  C   LIG    1       -2.527   4.574   1.388  0.00  0.00    +0.230 C 
ATOM      3  C   LIG    1       -3.852   5.341   1.368  0.00  0.00    +0.200 C 
ATOM      4  N   LIG    1       -4.953   4.404   1.103  0.00  0.00    -0.520 NA
ATOM      5  C   LIG    1       -4.764   3.723  -0.185  0.00  0.00    +0.190 C 
ATOM      6  C   LIG    1       -3.439   2.957  -0.165  0.00  0.00    +0.240 C 
ENDROOT
BRANCH   1  11
ATOM      7  C   LIG    1        1.179   3.352   0.235  0.00  0.00    +0.390 A 
ATOM      8  C   LIG    1        1.249   1.986  -0.033  0.00  0.00    -0.130 A 
ATOM      9  C   LIG    1        0.071   1.296  -0.253  0.00  0.00    +0.380 A 
ATOM     10  N   LIG    1       -1.080   1.949  -0.208  0.00  0.00    -0.570 NA
ATOM     11  C   LIG    1       -1.115   3.247   0.055  0.00  0.00    +0.530 A 
ATOM     12  N   LIG    1       -0.009   3.943   0.271  0.00  0.00    -0.590 NA
BRANCH   7  14
ATOM     13  C   LIG    1        2.152   5.462   0.725  0.00  0.00    +0.260 C 
ATOM     14  O   LIG    1        2.309   4.067   0.457  0.00  0.00    -0.300 OA
ENDBRANCH   7  14
ENDBRANCH   1  11
BRANCH   4  15
ATOM     15  C   LIG    1       -6.251   5.090   1.151  0.00  0.00    +0.220 C 
BRANCH  15  16
ATOM     16  C   LIG    1       -7.360   4.069   1.126  0.00  0.00    +0.510 C 
ATOM     17  N   LIG    1       -8.643   4.471   1.034  0.00  0.00    -0.620 N 
ATOM     18  C   LIG    1       -8.960   5.899   0.958  0.00  0.00    +0.290 C 
ATOM     19  O   LIG    1       -7.097   2.887   1.189  0.00  0.00    -0.500 OA
BRANCH  17  20
ATOM     20  C   LIG    1       -9.721   3.479   1.010  0.00  0.00    +0.410 C 
BRANCH  20  21
ATOM     21  C   LIG    1      -10.174   3.196   2.419  0.00  0.00    -0.030 A 
ATOM     22  C   LIG    1      -11.144   3.853   3.081  0.00  0.00    -0.050 A 
ATOM     23  C   LIG    1      -11.239   3.261   4.361  0.00  0.00    -0.070 A 
ATOM     24  C   LIG    1      -10.318   2.283   4.408  0.00  0.00    +0.170 A 
ATOM     25  O   LIG    1       -9.675   2.248   3.229  0.00  0.00    -0.160 OA
ENDBRANCH  20  21
ENDBRANCH  17  20
ENDBRANCH  15  16
ENDBRANCH   4  15
TORSDOF 6
