REMARK  Name = ZINCtj0000001yDO.0
REMARK                            x       y       z     vdW  Elec       q    Type
REMARK                         _______ _______ _______ _____ _____    ______ ____
ROOT
ATOM      1  C   LIG    1       -0.700   1.592  -1.243  0.00  0.00    -0.120 A 
ATOM      2  C   LIG    1       -2.052   1.327  -1.363  0.00  0.00    +0.040 A 
ATOM      3  C   LIG    1       -2.754   1.795  -2.457  0.00  0.00    +0.030 A 
ATOM      4  C   LIG    1       -2.098   2.523  -3.442  0.00  0.00    +0.170 A 
ATOM      5  C   LIG    1       -0.739   2.783  -3.320  0.00  0.00    +0.000 A 
ATOM      6  C   LIG    1       -0.044   2.317  -2.221  0.00  0.00    +0.040 A 
ENDROOT
BRANCH   4   7
ATOM      7  N   LIG    1       -2.805   2.993  -4.553  0.00  0.00    -0.670 N 
ATOM      8  H   LIG    1       -2.672   3.902  -4.864  0.00  0.00    +0.430 HD
ATOM      9  C   LIG    1       -3.671   2.182  -5.193  0.00  0.00    +0.590 C 
ATOM     10  O   LIG    1       -3.931   1.086  -4.734  0.00  0.00    -0.520 OA
BRANCH   9  11
ATOM     11  C   LIG    1       -4.301   2.622  -6.447  0.00  0.00    -0.230 A 
ATOM     12  C   LIG    1       -5.321   1.874  -7.025  0.00  0.00    +0.240 A 
ATOM     13  C   LIG    1       -5.905   2.322  -8.215  0.00  0.00    +0.020 A 
ATOM     14  C   LIG    1       -5.461   3.500  -8.821  0.00  0.00    +0.070 A 
ATOM     15  N   LIG    1       -4.447   4.243  -8.256  0.00  0.00    -0.580 N 
ATOM     16  H   LIG    1       -4.151   5.059  -8.690  0.00  0.00    +0.430 HD
ATOM     17  C   LIG    1       -6.224   3.680  -9.985  0.00  0.00    +0.250 A 
ATOM     18  N   LIG    1       -7.072   2.692 -10.092  0.00  0.00    -0.210 NA
ATOM     19  N   LIG    1       -6.909   1.820  -9.008  0.00  0.00    -0.360 N 
ATOM     20  C   LIG    1       -7.671   0.593  -8.765  0.00  0.00    +0.380 C 
ATOM     21  C   LIG    1       -3.861   3.852  -7.108  0.00  0.00    +0.550 A 
ATOM     22  O   LIG    1       -2.965   4.520  -6.621  0.00  0.00    -0.540 OA
ENDBRANCH   9  11
ENDBRANCH   4   7
BRANCH   1  23
ATOM     23  C   LIG    1        0.062   1.085  -0.046  0.00  0.00    +0.080 C 
BRANCH  23  24
ATOM     24  C   LIG    1        0.023   2.136   1.066  0.00  0.00    +0.250 C 
BRANCH  24  29
ATOM     25  C   LIG    1        1.658   0.508   6.206  0.00  0.00    +0.220 C 
ATOM     26  N   LIG    1        0.960   0.994   5.008  0.00  0.00    -0.540 NA
ATOM     27  C   LIG    1        1.621   2.188   4.462  0.00  0.00    +0.200 C 
ATOM     28  C   LIG    1        0.831   2.696   3.254  0.00  0.00    +0.280 C 
ATOM     29  N   LIG    1        0.765   1.642   2.233  0.00  0.00    -0.390 N 
ATOM     30  C   LIG    1        0.082   0.465   2.786  0.00  0.00    +0.270 C 
ATOM     31  H   LIG    1        1.701   1.386   1.953  0.00  0.00    +0.420 HD
ATOM     32  C   LIG    1        0.865  -0.062   3.990  0.00  0.00    +0.200 C 
ENDBRANCH  24  29
ENDBRANCH  23  24
ENDBRANCH   1  23
TORSDOF 5
