REMARK  Name = ZINCtj0000001yDO.1
REMARK                            x       y       z     vdW  Elec       q    Type
REMARK                         _______ _______ _______ _____ _____    ______ ____
ROOT
ATOM      1  C   LIG    1        0.868  -8.731   3.438  0.00  0.00    +0.580 C 
ATOM      2  N   LIG    1        1.615  -8.102   2.510  0.00  0.00    -0.660 N 
ATOM      3  H   LIG    1        2.126  -8.619   1.867  0.00  0.00    +0.430 HD
ATOM      4  O   LIG    1        0.132  -8.089   4.164  0.00  0.00    -0.520 OA
ENDROOT
BRANCH   1  14
ATOM      5  C   LIG    1       -1.697 -12.918   6.115  0.00  0.00    +0.380 C 
ATOM      6  N   LIG    1       -0.569 -13.195   5.222  0.00  0.00    -0.360 N 
ATOM      7  N   LIG    1       -0.026 -14.455   4.943  0.00  0.00    -0.210 NA
ATOM      8  C   LIG    1        0.968 -14.322   4.106  0.00  0.00    +0.250 A 
ATOM      9  C   LIG    1        1.124 -12.963   3.796  0.00  0.00    +0.070 A 
ATOM     10  N   LIG    1        2.010 -12.297   2.976  0.00  0.00    -0.580 N 
ATOM     11  H   LIG    1        2.682 -12.799   2.489  0.00  0.00    +0.420 HD
ATOM     12  C   LIG    1        1.954 -10.958   2.842  0.00  0.00    +0.550 A 
ATOM     13  O   LIG    1        2.744 -10.384   2.114  0.00  0.00    -0.540 OA
ATOM     14  C   LIG    1        0.942 -10.193   3.574  0.00  0.00    -0.230 A 
ATOM     15  C   LIG    1        0.055 -10.871   4.404  0.00  0.00    +0.230 A 
ATOM     16  C   LIG    1        0.146 -12.264   4.508  0.00  0.00    +0.020 A 
ENDBRANCH   1  14
BRANCH   2  17
ATOM     17  C   LIG    1        1.655  -6.705   2.473  0.00  0.00    +0.150 A 
ATOM     18  C   LIG    1        2.868  -6.046   2.319  0.00  0.00    +0.000 A 
ATOM     19  C   LIG    1        2.904  -4.666   2.284  0.00  0.00    +0.020 A 
ATOM     20  C   LIG    1        1.733  -3.940   2.402  0.00  0.00    -0.110 A 
ATOM     21  C   LIG    1        0.524  -4.592   2.561  0.00  0.00    +0.030 A 
ATOM     22  C   LIG    1        0.481  -5.972   2.592  0.00  0.00    +0.020 A 
BRANCH  20  23
ATOM     23  C   LIG    1        1.776  -2.434   2.364  0.00  0.00    +0.080 C 
BRANCH  23  24
ATOM     24  C   LIG    1        1.626  -1.956   0.918  0.00  0.00    +0.200 C 
BRANCH  24  25
ATOM     25  N   LIG    1        1.667  -0.488   0.881  0.00  0.00    -0.540 NA
ATOM     26  C   LIG    1        1.765   0.001  -0.502  0.00  0.00    +0.200 C 
ATOM     27  C   LIG    1        1.746   1.531  -0.501  0.00  0.00    +0.280 C 
ATOM     28  N   LIG    1        2.872   2.035   0.295  0.00  0.00    -0.390 N 
ATOM     29  C   LIG    1        2.748   1.558   1.679  0.00  0.00    +0.280 C 
ATOM     30  C   LIG    1        2.864   3.504   0.281  0.00  0.00    +0.310 C 
ATOM     31  H   LIG    1        3.739   1.700  -0.099  0.00  0.00    +0.420 HD
ATOM     32  C   LIG    1        2.776   0.028   1.696  0.00  0.00    +0.210 C 
ENDBRANCH  24  25
ENDBRANCH  23  24
ENDBRANCH  20  23
ENDBRANCH   2  17
TORSDOF 5
