REMARK  Name = ZINCpe000000Wv9q.0
REMARK                            x       y       z     vdW  Elec       q    Type
REMARK                         _______ _______ _______ _____ _____    ______ ____
ROOT
ATOM      1  CA  LIG    1        2.676   0.111  -4.018  0.00  0.00    +0.260 C 
ATOM      2  N   LIG    1        1.229   0.189  -3.869  0.00  0.00    -0.700 N 
ATOM      3  H   LIG    1        0.722   0.695  -4.523  0.00  0.00    +0.410 HD
ATOM      4  C   LIG    1        0.570  -0.405  -2.870  0.00  0.00    +0.530 C 
ATOM      5  CA  LIG    1        1.259  -1.210  -1.810  0.00  0.00    +0.260 C 
ATOM      6  N   LIG    1        2.582  -1.636  -2.246  0.00  0.00    -0.710 N 
ATOM      7  H   LIG    1        3.004  -2.381  -1.789  0.00  0.00    +0.410 HD
ATOM      8  O   LIG    1       -0.636  -0.289  -2.819  0.00  0.00    -0.530 OA
ATOM      9  C   LIG    1        3.240  -1.045  -3.248  0.00  0.00    +0.530 C 
ATOM     10  O   LIG    1        4.340  -1.462  -3.547  0.00  0.00    -0.530 OA
ENDROOT
BRANCH   5  11
ATOM     11  C   LIG    1        1.398  -0.360  -0.546  0.00  0.00    +0.160 C 
ATOM     12  C   LIG    1        0.002  -0.004   0.002  0.00  0.00    +0.020 C 
ATOM     13  C   LIG    1       -0.019   1.544   0.011  0.00  0.00    +0.020 C 
ATOM     14  C   LIG    1        1.492   1.889  -0.002  0.00  0.00    +0.190 C 
ATOM     15  O   LIG    1        2.062   0.876  -0.858  0.00  0.00    -0.370 OA
ENDBRANCH   5  11
BRANCH   1  16
ATOM     16  C   LIG    1        3.303   1.408  -3.504  0.00  0.00    +0.140 C 
BRANCH  16  24
ATOM     17  C   LIG    1       -0.519   4.142  -3.390  0.00  0.00    +0.100 A 
ATOM     18  C   LIG    1       -0.521   5.102  -4.398  0.00  0.00    -0.050 A 
ATOM     19  C   LIG    1        0.521   5.180  -5.295  0.00  0.00    +0.030 A 
ATOM     20  C   LIG    1        1.589   4.294  -5.199  0.00  0.00    +0.060 A 
ATOM     21  N   LIG    1        2.748   4.125  -5.927  0.00  0.00    -0.590 N 
ATOM     22  H   LIG    1        3.008   4.660  -6.692  0.00  0.00    +0.420 HD
ATOM     23  C   LIG    1        3.478   3.093  -5.404  0.00  0.00    +0.240 A 
ATOM     24  C   LIG    1        2.834   2.562  -4.353  0.00  0.00    -0.180 A 
ATOM     25  C   LIG    1        1.594   3.322  -4.182  0.00  0.00    -0.060 A 
ATOM     26  C   LIG    1        0.531   3.253  -3.278  0.00  0.00    +0.020 A 
BRANCH  17  28
ATOM     27  C   LIG    1       -2.610   5.028  -2.686  0.00  0.00    +0.230 C 
ATOM     28  O   LIG    1       -1.556   4.079  -2.513  0.00  0.00    -0.320 OA
ENDBRANCH  17  28
ENDBRANCH  16  24
ENDBRANCH   1  16
TORSDOF 4
