REMARK  Name = ZINCrH000004oIxz.0
REMARK                            x       y       z     vdW  Elec       q    Type
REMARK                         _______ _______ _______ _____ _____    ______ ____
ROOT
ATOM      1  C   LIG    1        6.366   3.943   2.064  0.00  0.00    -0.060 A 
ATOM      2  C   LIG    1        6.024   4.849   3.066  0.00  0.00    +0.100 A 
ATOM      3  C   LIG    1        6.975   5.717   3.563  0.00  0.00    -0.030 A 
ATOM      4  C   LIG    1        8.268   5.692   3.071  0.00  0.00    +0.070 A 
ATOM      5  C   LIG    1        8.618   4.797   2.078  0.00  0.00    -0.070 A 
ATOM      6  C   LIG    1        7.675   3.916   1.573  0.00  0.00    +0.160 A 
ENDROOT
BRANCH   1   9
ATOM      7  C   LIG    1        3.533   1.970   1.177  0.00  0.00    +0.180 A 
ATOM      8  N   LIG    1        4.055   2.921   1.911  0.00  0.00    -0.460 NA
ATOM      9  C   LIG    1        5.349   3.008   1.527  0.00  0.00    +0.220 A 
ATOM     10  N   LIG    1        5.534   2.112   0.591  0.00  0.00    -0.340 NA
ATOM     11  O   LIG    1        4.504   1.506   0.384  0.00  0.00    +0.100 OA
BRANCH   7  17
ATOM     12  C   LIG    1        0.867  -2.032   1.181  0.00  0.00    +0.070 C 
ATOM     13  C   LIG    1        0.773  -0.505   1.226  0.00  0.00    +0.170 C 
ATOM     14  C   LIG    1        0.002  -0.004   0.002  0.00  0.00    +0.160 C 
ATOM     15  N   LIG    1       -0.018   1.466   0.010  0.00  0.00    -0.540 NA
ATOM     16  C   LIG    1        1.350   2.006  -0.000  0.00  0.00    +0.170 C 
ATOM     17  C   LIG    1        2.107   1.484   1.224  0.00  0.00    +0.320 C 
ATOM     18  C   LIG    1       -0.798   1.988  -1.120  0.00  0.00    +0.200 C 
ATOM     19  O   LIG    1        2.090   0.054   1.216  0.00  0.00    -0.370 OA
ENDBRANCH   7  17
ENDBRANCH   1   9
BRANCH   6  20
ATOM     20  O   LIG    1        8.020   3.033   0.600  0.00  0.00    -0.290 OA
BRANCH  20  21
ATOM     21  C   LIG    1        9.375   3.062   0.147  0.00  0.00    +0.240 C 
BRANCH  21  22
ATOM     22  C   LIG    1        9.569   2.021  -0.924  0.00  0.00    -0.100 A 
ATOM     23  C   LIG    1        9.961   0.740  -0.581  0.00  0.00    +0.030 A 
ATOM     24  C   LIG    1       10.135  -0.216  -1.563  0.00  0.00    +0.010 A 
ATOM     25  C   LIG    1        9.926   0.110  -2.890  0.00  0.00    +0.010 A 
ATOM     26  C   LIG    1        9.539   1.392  -3.234  0.00  0.00    +0.010 A 
ATOM     27  C   LIG    1        9.361   2.347  -2.251  0.00  0.00    +0.030 A 
ENDBRANCH  21  22
ENDBRANCH  20  21
ENDBRANCH   6  20
TORSDOF 5
