REMARK  Name = ZINCpk00000xPH1f.0
REMARK                            x       y       z     vdW  Elec       q    Type
REMARK                         _______ _______ _______ _____ _____    ______ ____
ROOT
ATOM      1  C   LIG    1       -2.490   1.629   5.355  0.00  0.00    -0.060 A 
ATOM      2  C   LIG    1       -2.132   0.721   4.418  0.00  0.00    +0.200 A 
ATOM      3  N   LIG    1       -1.235   1.341   3.616  0.00  0.00    -0.290 N 
ATOM      4  N   LIG    1       -1.066   2.540   4.052  0.00  0.00    -0.080 NA
ATOM      5  N   LIG    1       -1.804   2.745   5.085  0.00  0.00    -0.250 NA
ENDROOT
BRANCH   1   6
ATOM      6  C   LIG    1       -3.470   1.424   6.482  0.00  0.00    +0.430 C 
BRANCH   6  17
ATOM      7  O   LIG    1       -2.916  -1.142   7.199  0.00  0.00    -0.510 OA
ATOM      8  C   LIG    1       -2.524  -0.273   7.955  0.00  0.00    +0.550 A 
ATOM      9  C   LIG    1       -1.786  -0.604   9.183  0.00  0.00    -0.200 A 
ATOM     10  C   LIG    1       -1.502  -1.920   9.540  0.00  0.00    +0.100 A 
ATOM     11  C   LIG    1       -0.812  -2.173  10.706  0.00  0.00    -0.010 A 
ATOM     12  C   LIG    1       -0.401  -1.129  11.524  0.00  0.00    +0.070 A 
ATOM     13  C   LIG    1       -0.671   0.178  11.189  0.00  0.00    +0.030 A 
ATOM     14  C   LIG    1       -1.369   0.461  10.013  0.00  0.00    +0.150 A 
ATOM     15  N   LIG    1       -1.657   1.734   9.645  0.00  0.00    -0.520 NA
ATOM     16  C   LIG    1       -2.306   1.996   8.552  0.00  0.00    +0.580 A 
ATOM     17  N   LIG    1       -2.745   1.037   7.695  0.00  0.00    -0.540 N 
ENDBRANCH   6  17
ENDBRANCH   1   6
BRANCH   3  18
ATOM     18  C   LIG    1       -0.568   0.746   2.455  0.00  0.00    +0.360 C 
BRANCH  18  19
ATOM     19  C   LIG    1       -0.810   1.621   1.224  0.00  0.00    +0.170 C 
ATOM     20  C   LIG    1       -0.013   1.086   0.008  0.00  0.00    +0.050 C 
ATOM     21  C   LIG    1       -0.833   1.634  -1.185  0.00  0.00    +0.260 C 
ATOM     22  C   LIG    1       -2.223   1.924  -0.587  0.00  0.00    +0.230 C 
ATOM     23  F   LIG    1       -0.926   0.673  -2.198  0.00  0.00    -0.180 F 
ATOM     24  F   LIG    1       -0.256   2.810  -1.677  0.00  0.00    -0.180 F 
ATOM     25  O   LIG    1       -2.186   1.524   0.793  0.00  0.00    -0.350 OA
ENDBRANCH  18  19
ENDBRANCH   3  18
TORSDOF 4
