REMARK  Name = ZINCqH0000033WGs.0
REMARK                            x       y       z     vdW  Elec       q    Type
REMARK                         _______ _______ _______ _____ _____    ______ ____
ROOT
ATOM      1  N   LIG    1       -0.548   1.544   1.276  0.00  0.00    -0.600 N 
ATOM      2  C   LIG    1       -1.802   1.887   0.921  0.00  0.00    +0.580 C 
ATOM      3  O   LIG    1       -2.541   2.412   1.732  0.00  0.00    -0.520 OA
ATOM      4  C   LIG    1        0.378   1.011   0.272  0.00  0.00    +0.290 C 
ENDROOT
BRANCH   2   5
ATOM      5  C   LIG    1       -2.277   1.627  -0.446  0.00  0.00    -0.210 A 
ATOM      6  C   LIG    1       -2.696   0.382  -0.807  0.00  0.00    +0.330 A 
ATOM      7  N   LIG    1       -3.141   0.104  -2.056  0.00  0.00    -0.620 N 
ATOM      8  H   LIG    1       -3.428  -0.801  -2.258  0.00  0.00    +0.420 HD
ATOM      9  C   LIG    1       -3.201   1.034  -3.028  0.00  0.00    +0.550 A 
ATOM     10  C   LIG    1       -2.771   2.409  -2.744  0.00  0.00    -0.150 A 
ATOM     11  C   LIG    1       -2.812   3.410  -3.713  0.00  0.00    +0.090 A 
ATOM     12  C   LIG    1       -2.412   4.688  -3.387  0.00  0.00    +0.000 A 
ATOM     13  C   LIG    1       -1.955   4.983  -2.110  0.00  0.00    +0.060 A 
ATOM     14  C   LIG    1       -1.902   4.006  -1.138  0.00  0.00    +0.010 A 
ATOM     15  O   LIG    1       -3.608   0.736  -4.136  0.00  0.00    -0.520 OA
ATOM     16  C   LIG    1       -2.311   2.712  -1.444  0.00  0.00    +0.030 A 
ENDBRANCH   2   5
BRANCH   1  17
ATOM     17  C   LIG    1       -0.110   1.703   2.665  0.00  0.00    +0.310 C 
BRANCH  17  18
ATOM     18  C   LIG    1        0.953   2.770   2.737  0.00  0.00    -0.130 A 
ATOM     19  C   LIG    1        1.625   3.154   1.594  0.00  0.00    +0.050 A 
ATOM     20  C   LIG    1        2.597   4.136   1.659  0.00  0.00    -0.030 A 
ATOM     21  C   LIG    1        2.904   4.729   2.869  0.00  0.00    +0.040 A 
ATOM     22  C   LIG    1        2.238   4.344   4.017  0.00  0.00    -0.080 A 
ATOM     23  C   LIG    1        1.259   3.363   3.953  0.00  0.00    +0.140 A 
BRANCH  23  24
ATOM     24  O   LIG    1        0.603   2.983   5.081  0.00  0.00    -0.310 OA
ATOM     25  C   LIG    1        0.971   3.636   6.297  0.00  0.00    +0.250 C 
ENDBRANCH  23  24
ENDBRANCH  17  18
BRANCH  17  27
ATOM     26  C   LIG    1       -0.648  -0.673   3.218  0.00  0.00    +0.020 C 
ATOM     27  C   LIG    1        0.463   0.379   3.174  0.00  0.00    +0.020 C 
ENDBRANCH  17  27
ENDBRANCH   1  17
TORSDOF 5
