REMARK  Name = ZINCqH0000006RZA.0
REMARK                            x       y       z     vdW  Elec       q    Type
REMARK                         _______ _______ _______ _____ _____    ______ ____
ROOT
ATOM      1  N   LIG    1       -2.488  -0.339   0.012  0.00  0.00    -0.670 N 
ATOM      2  H   LIG    1       -1.640  -0.808   0.053  0.00  0.00    +0.410 HD
ATOM      3  C   LIG    1       -2.510   0.999  -0.148  0.00  0.00    +0.560 C 
ATOM      4  O   LIG    1       -3.570   1.576  -0.296  0.00  0.00    -0.490 OA
ENDROOT
BRANCH   3   5
ATOM      5  C   LIG    1       -1.249   1.763  -0.145  0.00  0.00    -0.130 A 
ATOM      6  C   LIG    1       -0.029   1.104   0.025  0.00  0.00    +0.070 A 
ATOM      7  C   LIG    1        1.146   1.823   0.021  0.00  0.00    +0.040 A 
ATOM      8  C   LIG    1        1.125   3.200  -0.143  0.00  0.00    +0.000 A 
ATOM      9  C   LIG    1       -0.075   3.865  -0.306  0.00  0.00    +0.040 A 
ATOM     10 CL   LIG    1        2.614   4.092  -0.145  0.00  0.00    -0.050 Cl
ATOM     11  C   LIG    1       -1.268   3.157  -0.307  0.00  0.00    +0.220 A 
BRANCH  11  12
ATOM     12  N   LIG    1       -2.479   3.826  -0.472  0.00  0.00    -0.580 N 
ATOM     13  C   LIG    1       -3.287   4.361   0.631  0.00  0.00    +0.270 C 
ATOM     14  C   LIG    1       -4.261   5.367  -0.025  0.00  0.00    +0.040 C 
ATOM     15  C   LIG    1       -4.356   4.816  -1.467  0.00  0.00    +0.060 C 
ATOM     16  C   LIG    1       -3.061   4.059  -1.661  0.00  0.00    +0.540 C 
ATOM     17  O   LIG    1       -2.612   3.714  -2.733  0.00  0.00    -0.520 OA
ENDBRANCH  11  12
ENDBRANCH   3   5
BRANCH   1  20
ATOM     18  C   LIG    1       -4.966  -3.044  -0.281  0.00  0.00    +0.190 A 
ATOM     19  C   LIG    1       -3.777  -2.339  -0.389  0.00  0.00    -0.080 A 
ATOM     20  C   LIG    1       -3.687  -1.050   0.119  0.00  0.00    +0.230 A 
ATOM     21  C   LIG    1       -4.786  -0.470   0.739  0.00  0.00    -0.050 A 
ATOM     22  C   LIG    1       -5.976  -1.175   0.841  0.00  0.00    +0.190 A 
ATOM     23  C   LIG    1       -6.065  -2.462   0.333  0.00  0.00    -0.170 A 
BRANCH  18  25
ATOM     24  C   LIG    1       -6.310  -4.973  -0.633  0.00  0.00    +0.250 C 
ATOM     25  O   LIG    1       -5.055  -4.306  -0.778  0.00  0.00    -0.310 OA
ENDBRANCH  18  25
BRANCH  22  26
ATOM     26  O   LIG    1       -7.053  -0.605   1.443  0.00  0.00    -0.310 OA
ATOM     27  C   LIG    1       -8.244  -1.390   1.518  0.00  0.00    +0.250 C 
ENDBRANCH  22  26
ENDBRANCH   1  20
TORSDOF 5
