REMARK  Name = ZINCrD000006V7YE.0
REMARK                            x       y       z     vdW  Elec       q    Type
REMARK                         _______ _______ _______ _____ _____    ______ ____
ROOT
ATOM      1  C   LIG    1       -2.482  -2.829  -0.206  0.00  0.00    +0.250 C 
ATOM      2  C   LIG    1       -3.247  -2.366  -1.448  0.00  0.00    +0.060 C 
ENDROOT
BRANCH   1   5
ATOM      3  N   LIG    1       -1.203  -0.723   0.009  0.00  0.00    -0.650 N 
ATOM      4  H   LIG    1       -2.047  -0.254   0.101  0.00  0.00    +0.420 HD
ATOM      5  C   LIG    1       -1.187  -2.066  -0.100  0.00  0.00    +0.520 C 
ATOM      6  O   LIG    1       -0.130  -2.661  -0.113  0.00  0.00    -0.510 OA
BRANCH   3  10
ATOM      7  C   LIG    1        2.381   1.419  -0.048  0.00  0.00    +0.150 A 
ATOM      8  C   LIG    1        2.306   0.171  -0.649  0.00  0.00    -0.090 A 
ATOM      9  C   LIG    1        1.120  -0.538  -0.630  0.00  0.00    +0.110 A 
ATOM     10  C   LIG    1        0.001  -0.003  -0.009  0.00  0.00    +0.080 A 
ATOM     11  C   LIG    1        0.074   1.250   0.595  0.00  0.00    +0.140 A 
ATOM     12  C   LIG    1        1.264   1.958   0.575  0.00  0.00    -0.080 A 
BRANCH   7  14
ATOM     13  C   LIG    1        4.658   1.499  -0.727  0.00  0.00    +0.250 C 
ATOM     14  O   LIG    1        3.549   2.114  -0.069  0.00  0.00    -0.320 OA
ENDBRANCH   7  14
BRANCH  11  15
ATOM     15  O   LIG    1       -1.023   1.779   1.200  0.00  0.00    -0.320 OA
ATOM     16  C   LIG    1       -0.875   3.068   1.799  0.00  0.00    +0.250 C 
ENDBRANCH  11  15
ENDBRANCH   3  10
ENDBRANCH   1   5
BRANCH   1  17
ATOM     17  N   LIG    1       -2.198  -4.262  -0.313  0.00  0.00    -1.090 NA
ATOM     18  H   LIG    1       -1.413  -4.566  -0.795  0.00  0.00    +0.430 HD
BRANCH  17  19
ATOM     19  S   LIG    1       -3.216  -5.363   0.389  0.00  0.00    +2.690 S 
ATOM     20  O   LIG    1       -3.440  -4.913   1.718  0.00  0.00    -0.930 OA
ATOM     21  O   LIG    1       -2.692  -6.647   0.081  0.00  0.00    -0.930 OA
BRANCH  19  22
ATOM     22  C   LIG    1       -4.765  -5.245  -0.443  0.00  0.00    -0.680 A 
ATOM     23  C   LIG    1       -5.734  -4.372   0.018  0.00  0.00    +0.060 A 
ATOM     24  C   LIG    1       -6.947  -4.275  -0.639  0.00  0.00    +0.020 A 
ATOM     25  C   LIG    1       -7.197  -5.060  -1.749  0.00  0.00    +0.110 A 
ATOM     26  C   LIG    1       -6.232  -5.937  -2.207  0.00  0.00    +0.020 A 
ATOM     27 CL   LIG    1       -5.423  -3.392   1.417  0.00  0.00    -0.010 Cl
ATOM     28  C   LIG    1       -5.015  -6.030  -1.555  0.00  0.00    +0.060 A 
ATOM     29 CL   LIG    1       -3.803  -7.131  -2.130  0.00  0.00    -0.010 Cl
ENDBRANCH  19  22
ENDBRANCH  17  19
ENDBRANCH   1  17
TORSDOF 7
