REMARK  Name = ZINCrD000000fTKo.0
REMARK                            x       y       z     vdW  Elec       q    Type
REMARK                         _______ _______ _______ _____ _____    ______ ____
ROOT
ATOM      1  C   LIG    1        0.085   0.662  -2.433  0.00  0.00    +0.530 C 
ATOM      2  N   LIG    1       -1.180   0.316  -2.743  0.00  0.00    -0.720 N 
ATOM      3  H   LIG    1       -1.777  -0.012  -2.052  0.00  0.00    +0.400 HD
ATOM      4  O   LIG    1        0.831   1.071  -3.297  0.00  0.00    -0.500 OA
ENDROOT
BRANCH   1  10
ATOM      5  C   LIG    1        0.653  -1.718   1.726  0.00  0.00    +0.530 C 
ATOM      6  N   LIG    1        1.237  -1.044   0.715  0.00  0.00    -0.610 N 
ATOM      7  C   LIG    1        2.546  -0.396   0.893  0.00  0.00    +0.250 C 
ATOM      8  C   LIG    1        2.438   1.054   0.408  0.00  0.00    +0.220 C 
ATOM      9  O   LIG    1        1.898   1.068  -0.916  0.00  0.00    -0.350 OA
ATOM     10  C   LIG    1        0.572   0.541  -1.012  0.00  0.00    +0.150 C 
ATOM     11  C   LIG    1        0.585  -0.935  -0.599  0.00  0.00    +0.280 C 
ATOM     12  O   LIG    1       -0.470  -2.156   1.594  0.00  0.00    -0.530 OA
BRANCH   5  14
ATOM     13  C   LIG    1        0.611  -2.893   3.909  0.00  0.00    +0.060 C 
ATOM     14  C   LIG    1        1.395  -1.925   3.021  0.00  0.00    -0.090 C 
ATOM     15  C   LIG    1        1.550  -0.584   3.741  0.00  0.00    +0.060 C 
ATOM     16  C   LIG    1        2.779  -2.510   2.728  0.00  0.00    +0.040 C 
ENDBRANCH   5  14
ENDBRANCH   1  10
BRANCH   2  17
ATOM     17  C   LIG    1       -1.655   0.433  -4.124  0.00  0.00    +0.300 C 
BRANCH  17  18
ATOM     18  C   LIG    1       -2.791  -0.530  -4.349  0.00  0.00    -0.100 A 
ATOM     19  C   LIG    1       -3.741  -0.721  -3.362  0.00  0.00    +0.050 A 
ATOM     20  C   LIG    1       -4.786  -1.600  -3.569  0.00  0.00    -0.010 A 
ATOM     21  C   LIG    1       -4.877  -2.299  -4.761  0.00  0.00    +0.100 A 
ATOM     22  C   LIG    1       -3.922  -2.112  -5.746  0.00  0.00    -0.010 A 
ATOM     23  F   LIG    1       -5.896  -3.163  -4.963  0.00  0.00    -0.140 F 
ATOM     24  C   LIG    1       -2.881  -1.227  -5.539  0.00  0.00    +0.070 A 
ENDBRANCH  17  18
BRANCH  17  25
ATOM     25  C   LIG    1       -2.140   1.862  -4.377  0.00  0.00    -0.070 C 
ATOM     26  C   LIG    1       -3.284   2.190  -3.415  0.00  0.00    +0.020 C 
ATOM     27  C   LIG    1       -2.635   1.985  -5.819  0.00  0.00    +0.040 C 
ATOM     28  C   LIG    1       -0.986   2.841  -4.149  0.00  0.00    +0.030 C 
ENDBRANCH  17  25
ENDBRANCH   2  17
TORSDOF 5
