REMARK  Name = ZINCc70000000hvZ.0
REMARK                            x       y       z     vdW  Elec       q    Type
REMARK                         _______ _______ _______ _____ _____    ______ ____
ROOT
ATOM      1  N   LIG    1       -0.951   2.860  -3.222  0.00  0.00    -0.520 N 
ATOM      2  H   LIG    1       -1.919   2.886  -3.177  0.00  0.00    +0.430 HD
ATOM      3  C   LIG    1       -0.244   2.290  -2.225  0.00  0.00    +0.530 C 
ATOM      4  O   LIG    1        0.967   2.258  -2.282  0.00  0.00    -0.540 OA
ENDROOT
BRANCH   1   7
ATOM      5  O   LIG    1       -2.203   4.015  -5.264  0.00  0.00    -0.510 OA
ATOM      6  C   LIG    1       -0.992   3.982  -5.321  0.00  0.00    +0.500 C 
ATOM      7  N   LIG    1       -0.286   3.413  -4.324  0.00  0.00    -0.520 N 
ATOM      8  H   LIG    1        0.683   3.387  -4.370  0.00  0.00    +0.430 HD
BRANCH   6   9
ATOM      9  C   LIG    1       -0.277   4.578  -6.506  0.00  0.00    +0.200 C 
ATOM     10 CL   LIG    1       -1.486   5.256  -7.659  0.00  0.00    -0.120 Cl
ENDBRANCH   6   9
ENDBRANCH   1   7
BRANCH   3  11
ATOM     11  C   LIG    1       -0.959   1.695  -1.040  0.00  0.00    -0.010 C 
ATOM     12  C   LIG    1       -0.013   1.086   0.008  0.00  0.00    +0.060 C 
ATOM     13  C   LIG    1       -0.939   1.683   1.080  0.00  0.00    +0.030 C 
ATOM     14  C   LIG    1       -1.349   2.730   0.028  0.00  0.00    +0.040 C 
ENDBRANCH   3  11
TORSDOF 3
