REMARK  Name = ZINCpe000000WMtw.0
REMARK                            x       y       z     vdW  Elec       q    Type
REMARK                         _______ _______ _______ _____ _____    ______ ____
ROOT
ATOM      1  N   LIG    1        1.237   3.576   4.278  0.00  0.00    -0.520 NA
ATOM      2  C   LIG    1        2.075   4.720   3.896  0.00  0.00    +0.180 C 
ATOM      3  C   LIG    1        1.613   5.965   4.659  0.00  0.00    +0.290 C 
ATOM      4  N   LIG    1        1.601   5.655   6.097  0.00  0.00    -0.610 N 
ATOM      5  C   LIG    1        0.895   4.445   6.542  0.00  0.00    +0.300 C 
ATOM      6  C   LIG    1        2.221   6.460   6.983  0.00  0.00    +0.560 C 
ATOM      7  O   LIG    1        2.306   6.128   8.149  0.00  0.00    -0.530 OA
ATOM      8  C   LIG    1        1.386   3.259   5.705  0.00  0.00    +0.180 C 
ENDROOT
BRANCH   6   9
ATOM      9  C   LIG    1        2.799   7.745   6.536  0.00  0.00    -0.100 A 
ATOM     10  C   LIG    1        2.274   8.399   5.420  0.00  0.00    +0.040 A 
ATOM     11  C   LIG    1        2.813   9.601   5.011  0.00  0.00    +0.040 A 
ATOM     12  C   LIG    1        3.878  10.155   5.697  0.00  0.00    +0.010 A 
ATOM     13  C   LIG    1        4.409   9.510   6.802  0.00  0.00    +0.100 A 
ATOM     14  F   LIG    1        5.449  10.056   7.468  0.00  0.00    -0.130 F 
ATOM     15  C   LIG    1        3.874   8.308   7.225  0.00  0.00    +0.050 A 
ENDBRANCH   6   9
BRANCH   1  17
ATOM     16  C   LIG    1        0.646   1.234   3.873  0.00  0.00    +0.070 C 
ATOM     17  C   LIG    1        1.535   2.403   3.445  0.00  0.00    +0.130 C 
BRANCH  17  18
ATOM     18  C   LIG    1        1.267   2.734   1.999  0.00  0.00    +0.520 C 
ATOM     19  N   LIG    1        1.840   2.001   1.023  0.00  0.00    -0.620 N 
ATOM     20  C   LIG    1        2.814   0.946   1.342  0.00  0.00    +0.240 C 
ATOM     21  C   LIG    1        4.059   1.158   0.473  0.00  0.00    +0.220 C 
ATOM     22  O   LIG    1        3.665   1.266  -0.897  0.00  0.00    -0.380 OA
ATOM     23  C   LIG    1        2.818   2.384  -1.175  0.00  0.00    +0.220 C 
ATOM     24  C   LIG    1        1.509   2.234  -0.392  0.00  0.00    +0.260 C 
ATOM     25  O   LIG    1        0.537   3.659   1.714  0.00  0.00    -0.510 OA
ENDBRANCH  17  18
ENDBRANCH   1  17
TORSDOF 3
