REMARK  Name = ZINCpk000000oXZf.0
REMARK                            x       y       z     vdW  Elec       q    Type
REMARK                         _______ _______ _______ _____ _____    ______ ____
ROOT
ATOM      1  C   LIG    1       -3.154   8.916   0.170  0.00  0.00    +0.530 C 
ATOM      2  N   LIG    1       -3.767   7.720   0.069  0.00  0.00    -0.670 N 
ATOM      3  H   LIG    1       -4.734   7.674   0.009  0.00  0.00    +0.420 HD
ATOM      4  O   LIG    1       -1.943   8.980   0.160  0.00  0.00    -0.510 OA
ENDROOT
BRANCH   1  10
ATOM      5  C   LIG    1       -6.875  11.423   1.873  0.00  0.00    +0.650 C 
ATOM      6  N   LIG    1       -5.535  11.380   1.732  0.00  0.00    -0.590 N 
ATOM      7  C   LIG    1       -4.740  12.615   1.753  0.00  0.00    +0.290 C 
ATOM      8  C   LIG    1       -3.873  12.665   0.490  0.00  0.00    +0.020 C 
ATOM      9  C   LIG    1       -3.041  11.383   0.397  0.00  0.00    +0.060 C 
ATOM     10  C   LIG    1       -3.974  10.174   0.295  0.00  0.00    -0.010 C 
ATOM     11  C   LIG    1       -4.842  10.096   1.555  0.00  0.00    +0.320 C 
ATOM     12  O   LIG    1       -7.521  10.394   1.855  0.00  0.00    -0.570 OA
BRANCH   5  13
ATOM     13  O   LIG    1       -7.497  12.606   2.035  0.00  0.00    -0.370 OA
BRANCH  13  15
ATOM     14  C   LIG    1       -9.465  14.004   2.352  0.00  0.00    +0.070 C 
ATOM     15  C   LIG    1       -8.941  12.577   2.180  0.00  0.00    +0.220 C 
ENDBRANCH  13  15
ENDBRANCH   5  13
ENDBRANCH   1  10
BRANCH   2  16
ATOM     16  C   LIG    1       -3.008   6.543   0.052  0.00  0.00    +0.090 A 
ATOM     17  C   LIG    1       -1.758   6.519  -0.565  0.00  0.00    +0.100 A 
ATOM     18  C   LIG    1       -1.041   5.336  -0.552  0.00  0.00    +0.020 A 
ATOM     19  C   LIG    1       -1.590   4.217   0.061  0.00  0.00    +0.340 A 
ATOM     20  N   LIG    1       -2.780   4.276   0.637  0.00  0.00    -0.480 NA
ATOM     21  C   LIG    1       -3.490   5.387   0.649  0.00  0.00    +0.290 A 
BRANCH  19  22
ATOM     22  N   LIG    1       -0.874   3.015   0.075  0.00  0.00    -0.330 N 
ATOM     23  C   LIG    1       -1.262   1.849   0.630  0.00  0.00    +0.520 A 
ATOM     24  N   LIG    1       -0.314   0.970   0.429  0.00  0.00    -0.540 NA
ATOM     25  C   LIG    1        0.689   1.532  -0.245  0.00  0.00    +0.450 A 
ATOM     26  N   LIG    1        0.395   2.784  -0.481  0.00  0.00    -0.310 NA
ENDBRANCH  19  22
ENDBRANCH   2  16
TORSDOF 5
