REMARK  Name = ZINCpe00000gMon2.0
REMARK                            x       y       z     vdW  Elec       q    Type
REMARK                         _______ _______ _______ _____ _____    ______ ____
ROOT
ATOM      1  N   LIG    1       -3.590   3.457   0.034  0.00  0.00    -0.530 N 
ATOM      2  C   LIG    1       -3.520   2.115  -0.072  0.00  0.00    +0.620 A 
ATOM      3  N   LIG    1       -2.376   1.487  -0.080  0.00  0.00    -0.560 NA
ATOM      4  C   LIG    1       -1.215   2.152   0.019  0.00  0.00    +0.440 A 
ATOM      5  C   LIG    1       -1.226   3.532   0.137  0.00  0.00    -0.220 A 
ATOM      6  C   LIG    1       -2.462   4.192   0.138  0.00  0.00    +0.530 A 
ATOM      7  O   LIG    1       -2.519   5.407   0.234  0.00  0.00    -0.540 OA
ENDROOT
BRANCH   4   8
ATOM      8  N   LIG    1       -0.018   1.465   0.010  0.00  0.00    -0.600 N 
ATOM      9  C   LIG    1        0.122   0.215  -0.749  0.00  0.00    +0.280 C 
ATOM     10  C   LIG    1        0.640  -0.878   0.192  0.00  0.00    +0.010 C 
ATOM     11  C   LIG    1        1.932  -0.400   0.859  0.00  0.00    +0.020 C 
ATOM     12  C   LIG    1        1.646   0.855   1.687  0.00  0.00    -0.020 C 
ATOM     13  C   LIG    1        1.139   1.967   0.764  0.00  0.00    +0.290 C 
BRANCH  12  14
ATOM     14  C   LIG    1        2.931   1.312   2.381  0.00  0.00    +0.180 C 
BRANCH  14  15
ATOM     15  O   LIG    1        3.339   0.323   3.328  0.00  0.00    -0.570 OA
ATOM     16  H   LIG    1        4.149   0.547   3.806  0.00  0.00    +0.380 HD
ENDBRANCH  14  15
ENDBRANCH  12  14
ENDBRANCH   4   8
BRANCH   1  17
ATOM     17  C   LIG    1       -4.896   4.121   0.038  0.00  0.00    +0.440 C 
BRANCH  17  21
ATOM     18  C   LIG    1       -5.847   4.931   3.542  0.00  0.00    -0.230 A 
ATOM     19  C   LIG    1       -6.432   3.715   3.333  0.00  0.00    +0.300 A 
ATOM     20  O   LIG    1       -6.156   3.324   2.086  0.00  0.00    -0.170 OA
ATOM     21  C   LIG    1       -5.398   4.234   1.454  0.00  0.00    -0.050 A 
ATOM     22  C   LIG    1       -5.163   5.262   2.283  0.00  0.00    +0.060 A 
BRANCH  18  23
ATOM     23  C   LIG    1       -5.893   5.741   4.771  0.00  0.00    +0.540 C 
ATOM     24  O   LIG    1       -5.321   6.813   4.813  0.00  0.00    -0.500 OA
BRANCH  23  26
ATOM     25  C   LIG    1       -6.570   6.145   7.024  0.00  0.00    +0.290 C 
ATOM     26  O   LIG    1       -6.568   5.294   5.848  0.00  0.00    -0.360 OA
ENDBRANCH  23  26
ENDBRANCH  18  23
ENDBRANCH  17  21
ENDBRANCH   1  17
TORSDOF 7
