REMARK  Name = ZINCtV00000L6jz3.0
REMARK                            x       y       z     vdW  Elec       q    Type
REMARK                         _______ _______ _______ _____ _____    ______ ____
ROOT
ATOM      1  O   LIG    1        4.091  -1.852   0.255  0.00  0.00    -0.480 OA
ATOM      2  C   LIG    1        3.912  -0.650   0.218  0.00  0.00    +0.570 C 
ATOM      3  N   LIG    1        4.918   0.170  -0.146  0.00  0.00    -0.470 N 
ENDROOT
BRANCH   2   4
ATOM      4  C   LIG    1        2.596  -0.089   0.571  0.00  0.00    -0.130 A 
ATOM      5  C   LIG    1        2.494   0.987   1.443  0.00  0.00    +0.080 A 
ATOM      6  C   LIG    1        1.252   1.512   1.775  0.00  0.00    +0.000 A 
ATOM      7  C   LIG    1        0.098   1.002   1.265  0.00  0.00    +0.070 A 
ATOM      8  C   LIG    1        0.125  -0.086   0.377  0.00  0.00    -0.060 A 
ATOM      9  C   LIG    1       -1.058  -0.624  -0.157  0.00  0.00    +0.030 A 
ATOM     10  C   LIG    1       -0.991  -1.680  -1.015  0.00  0.00    +0.010 A 
ATOM     11  C   LIG    1        0.234  -2.237  -1.372  0.00  0.00    +0.030 A 
ATOM     12  C   LIG    1        1.402  -1.739  -0.873  0.00  0.00    +0.020 A 
ATOM     13  C   LIG    1        1.370  -0.655   0.011  0.00  0.00    -0.010 A 
ENDBRANCH   2   4
BRANCH   3  14
ATOM     14  C   LIG    1        6.129  -0.360  -0.561  0.00  0.00    +0.310 A 
ATOM     15  N   LIG    1        7.114   0.329  -1.023  0.00  0.00    -0.490 NA
ATOM     16  C   LIG    1        8.232  -0.332  -1.383  0.00  0.00    +0.100 A 
ATOM     17  C   LIG    1        9.435   0.188  -1.906  0.00  0.00    +0.060 A 
ATOM     18  C   LIG    1       10.474  -0.650  -2.223  0.00  0.00    +0.040 A 
ATOM     19  C   LIG    1       10.360  -2.019  -2.034  0.00  0.00    +0.030 A 
ATOM     20  C   LIG    1        9.196  -2.549  -1.523  0.00  0.00    +0.060 A 
ATOM     21  C   LIG    1        8.131  -1.714  -1.197  0.00  0.00    -0.220 A 
ATOM     22  S   LIG    1        6.536  -2.071  -0.538  0.00  0.00    +0.180 S 
ENDBRANCH   3  14
BRANCH   3  23
ATOM     23  C   LIG    1        4.739   1.559  -0.106  0.00  0.00    +0.110 A 
ATOM     24  C   LIG    1        3.881   2.176  -1.007  0.00  0.00    +0.070 A 
ATOM     25  C   LIG    1        3.703   3.545  -0.963  0.00  0.00    +0.010 A 
ATOM     26  C   LIG    1        4.386   4.303  -0.027  0.00  0.00    +0.120 A 
ATOM     27  C   LIG    1        5.246   3.691   0.869  0.00  0.00    +0.010 A 
ATOM     28  F   LIG    1        4.214   5.643   0.012  0.00  0.00    -0.130 F 
ATOM     29  C   LIG    1        5.423   2.321   0.832  0.00  0.00    +0.070 A 
ENDBRANCH   3  23
TORSDOF 3
