REMARK  Name = ZINCpe00000xZY6n.0
REMARK                            x       y       z     vdW  Elec       q    Type
REMARK                         _______ _______ _______ _____ _____    ______ ____
ROOT
ATOM      1  C   LIG    1        2.208   0.724  -0.586  0.00  0.00    -0.020 C 
ATOM      2  C   LIG    1        1.449   1.944  -0.001  0.00  0.00    +0.040 C 
ATOM      3  C   LIG    1       -0.018   1.466   0.010  0.00  0.00    +0.270 C 
ATOM      4  N   LIG    1        0.002  -0.004   0.002  0.00  0.00    -0.600 N 
ATOM      5  C   LIG    1       -1.082  -0.804  -0.013  0.00  0.00    +0.620 C 
ATOM      6  O   LIG    1       -0.946  -2.013  -0.019  0.00  0.00    -0.520 OA
ATOM      7  C   LIG    1        1.405  -0.458   0.012  0.00  0.00    +0.260 C 
ENDROOT
BRANCH   5   8
ATOM      8  C   LIG    1       -2.432  -0.215  -0.022  0.00  0.00    +0.010 A 
ATOM      9  C   LIG    1       -3.622  -0.913  -0.043  0.00  0.00    +0.180 A 
ATOM     10  N   LIG    1       -4.622   0.012  -0.041  0.00  0.00    -0.380 N 
ATOM     11  C   LIG    1       -5.986  -0.109  -0.055  0.00  0.00    +0.220 A 
ATOM     12  C   LIG    1       -6.772   0.986  -0.056  0.00  0.00    +0.040 A 
ATOM     13  C   LIG    1       -6.201   2.271  -0.043  0.00  0.00    +0.060 A 
ATOM     14  C   LIG    1       -4.850   2.409  -0.030  0.00  0.00    +0.090 A 
ATOM     15  C   LIG    1       -4.035   1.255  -0.029  0.00  0.00    +0.250 A 
ATOM     16  F   LIG    1       -3.767  -2.256  -0.058  0.00  0.00    -0.070 F 
ATOM     17  N   LIG    1       -2.723   1.101  -0.017  0.00  0.00    -0.440 NA
ENDBRANCH   5   8
BRANCH   1  18
ATOM     18  C   LIG    1        3.660   0.699  -0.105  0.00  0.00    +0.280 C 
BRANCH  18  20
ATOM     19  C   LIG    1        5.630  -0.712  -0.359  0.00  0.00    +0.490 C 
ATOM     20  N   LIG    1        4.335  -0.482  -0.651  0.00  0.00    -0.720 N 
ATOM     21  H   LIG    1        3.849  -1.097  -1.222  0.00  0.00    +0.410 HD
ATOM     22  O   LIG    1        6.238   0.057   0.355  0.00  0.00    -0.530 OA
BRANCH  19  24
ATOM     23  C   LIG    1        6.849  -1.613  -2.322  0.00  0.00    +0.090 C 
ATOM     24  C   LIG    1        6.324  -1.927  -0.919  0.00  0.00    +0.120 C 
ATOM     25  C   LIG    1        7.495  -2.310  -0.011  0.00  0.00    +0.040 C 
BRANCH  24  26
ATOM     26  O   LIG    1        5.400  -3.014  -0.989  0.00  0.00    -0.550 OA
ATOM     27  H   LIG    1        5.027  -3.268  -0.134  0.00  0.00    +0.380 HD
ENDBRANCH  24  26
ENDBRANCH  19  24
ENDBRANCH  18  20
ENDBRANCH   1  18
TORSDOF 5
