REMARK  Name = ZINCqH0000001th2.0
REMARK                            x       y       z     vdW  Elec       q    Type
REMARK                         _______ _______ _______ _____ _____    ______ ____
ROOT
ATOM      1  N   LIG    1       -5.234  -1.062   3.373  0.00  0.00    -0.730 N 
ATOM      2  H   LIG    1       -4.908  -1.848   3.839  0.00  0.00    +0.400 HD
ATOM      3  C   LIG    1       -6.559  -0.878   3.206  0.00  0.00    +0.560 C 
ATOM      4  O   LIG    1       -6.967   0.107   2.622  0.00  0.00    -0.510 OA
ENDROOT
BRANCH   1   8
ATOM      5  C   LIG    1       -1.703   0.587   1.636  0.00  0.00    +0.150 C 
ATOM      6  C   LIG    1       -3.004   0.655   0.833  0.00  0.00    +0.000 C 
ATOM      7  C   LIG    1       -3.994  -0.377   1.379  0.00  0.00    +0.000 C 
ATOM      8  C   LIG    1       -4.286  -0.074   2.850  0.00  0.00    +0.240 C 
ATOM      9  C   LIG    1       -2.985  -0.142   3.653  0.00  0.00    +0.030 C 
ATOM     10  C   LIG    1       -1.995   0.889   3.107  0.00  0.00    +0.040 C 
BRANCH   5  11
ATOM     11  O   LIG    1       -0.779   1.550   1.126  0.00  0.00    -0.380 OA
BRANCH  11  13
ATOM     12  C   LIG    1        1.302   0.419   0.643  0.00  0.00    -0.010 C 
ATOM     13  C   LIG    1        0.041   1.063   0.062  0.00  0.00    +0.140 C 
ATOM     14  C   LIG    1        0.436   2.225  -0.851  0.00  0.00    +0.040 C 
ENDBRANCH  11  13
ENDBRANCH   5  11
ENDBRANCH   1   8
BRANCH   3  15
ATOM     15  C   LIG    1       -7.513  -1.873   3.732  0.00  0.00    -0.180 A 
ATOM     16  C   LIG    1       -7.048  -3.009   4.399  0.00  0.00    +0.080 A 
ATOM     17  C   LIG    1       -7.945  -3.932   4.891  0.00  0.00    -0.040 A 
ATOM     18  C   LIG    1       -9.307  -3.743   4.720  0.00  0.00    +0.080 A 
ATOM     19  C   LIG    1       -9.780  -2.627   4.059  0.00  0.00    -0.090 A 
ATOM     20  C   LIG    1       -8.892  -1.686   3.561  0.00  0.00    +0.190 A 
BRANCH  20  21
ATOM     21  O   LIG    1       -9.355  -0.589   2.910  0.00  0.00    -0.270 OA
BRANCH  21  22
ATOM     22  C   LIG    1      -10.772  -0.466   2.774  0.00  0.00    +0.180 C 
BRANCH  22  23
ATOM     23  C   LIG    1      -11.102   0.823   2.019  0.00  0.00    +0.180 C 
ATOM     24  C   LIG    1      -12.632   1.026   1.972  0.00  0.00    +0.020 C 
ATOM     25  C   LIG    1      -12.846   1.576   0.534  0.00  0.00    +0.010 C 
ATOM     26  C   LIG    1      -11.743   0.812  -0.242  0.00  0.00    +0.190 C 
ATOM     27  O   LIG    1      -10.635   0.728   0.668  0.00  0.00    -0.360 OA
ENDBRANCH  22  23
ENDBRANCH  21  22
ENDBRANCH  20  21
ENDBRANCH   3  15
TORSDOF 7
