REMARK  Name = ZINCrH000004ti8t.0
REMARK                            x       y       z     vdW  Elec       q    Type
REMARK                         _______ _______ _______ _____ _____    ______ ____
ROOT
ATOM      1  C   LIG    1        2.184   5.929  -6.270  0.00  0.00    +0.240 C 
ATOM      2  C   LIG    1        2.066   7.445  -6.530  0.00  0.00    +0.060 C 
ATOM      3  C   LIG    1        0.889   7.865  -5.609  0.00  0.00    +0.030 C 
ATOM      4  C   LIG    1        1.100   6.936  -4.390  0.00  0.00    +0.250 C 
ATOM      5  N   LIG    1        1.572   5.661  -4.960  0.00  0.00    -0.610 N 
ATOM      6  C   LIG    1        1.456   4.450  -4.380  0.00  0.00    +0.570 C 
ATOM      7  O   LIG    1        1.918   3.467  -4.927  0.00  0.00    -0.510 OA
ENDROOT
BRANCH   6   8
ATOM      8  C   LIG    1        0.769   4.317  -3.080  0.00  0.00    -0.120 A 
ATOM      9  C   LIG    1        0.608   5.433  -2.257  0.00  0.00    +0.060 A 
ATOM     10  C   LIG    1       -0.035   5.310  -1.043  0.00  0.00    +0.020 A 
ATOM     11  C   LIG    1       -0.522   4.074  -0.641  0.00  0.00    +0.090 A 
ATOM     12  O   LIG    1       -1.159   3.947   0.558  0.00  0.00    -0.320 OA
ATOM     13  C   LIG    1       -0.472   3.187   1.554  0.00  0.00    +0.230 C 
ATOM     14  C   LIG    1       -0.744   1.701   1.380  0.00  0.00    -0.010 C 
ATOM     15  C   LIG    1       -0.184   1.159   0.074  0.00  0.00    +0.230 C 
ATOM     16  O   LIG    1       -0.848   1.750  -1.045  0.00  0.00    -0.320 OA
ATOM     17  C   LIG    1       -0.364   2.959  -1.456  0.00  0.00    +0.060 A 
ATOM     18  C   LIG    1        0.278   3.073  -2.672  0.00  0.00    +0.090 A 
ENDBRANCH   6   8
BRANCH   1  19
ATOM     19  C   LIG    1        3.658   5.518  -6.249  0.00  0.00    +0.170 C 
BRANCH  19  20
ATOM     20  C   LIG    1        4.326   5.978  -7.519  0.00  0.00    -0.080 A 
ATOM     21  C   LIG    1        3.849   5.551  -8.744  0.00  0.00    +0.020 A 
ATOM     22  C   LIG    1        4.459   5.977  -9.909  0.00  0.00    +0.010 A 
ATOM     23  C   LIG    1        5.551   6.822  -9.849  0.00  0.00    +0.010 A 
ATOM     24  C   LIG    1        6.031   7.245  -8.624  0.00  0.00    +0.010 A 
ATOM     25  C   LIG    1        5.418   6.823  -7.458  0.00  0.00    +0.030 A 
ENDBRANCH  19  20
BRANCH  19  27
ATOM     26  N   LIG    1        3.835   2.923  -6.065  0.00  0.00    -0.390 NA
ATOM     27  C   LIG    1        3.758   4.053  -6.145  0.00  0.00    +0.200 C 
ENDBRANCH  19  27
ENDBRANCH   1  19
TORSDOF 4
