REMARK  Name = ZINCvU0000000IYl.0
REMARK                            x       y       z     vdW  Elec       q    Type
REMARK                         _______ _______ _______ _____ _____    ______ ____
ROOT
ATOM      1  C   LIG    1        6.654   1.168   3.289  0.00  0.00    -0.100 A 
ATOM      2  C   LIG    1        6.728   1.955   4.420  0.00  0.00    +0.030 A 
ATOM      3  C   LIG    1        7.328   1.467   5.568  0.00  0.00    +0.010 A 
ATOM      4  C   LIG    1        7.865   0.193   5.585  0.00  0.00    +0.020 A 
ATOM      5  C   LIG    1        7.802  -0.601   4.457  0.00  0.00    +0.020 A 
ATOM      6  C   LIG    1        7.194  -0.116   3.301  0.00  0.00    -0.030 A 
ENDROOT
BRANCH   6   7
ATOM      7  C   LIG    1        7.123  -0.965   2.085  0.00  0.00    -0.040 A 
ATOM      8  C   LIG    1        6.531  -2.224   2.146  0.00  0.00    +0.010 A 
ATOM      9  C   LIG    1        6.462  -3.007   1.011  0.00  0.00    +0.040 A 
ATOM     10  C   LIG    1        6.990  -2.548  -0.182  0.00  0.00    -0.110 A 
ATOM     11  C   LIG    1        7.585  -1.300  -0.246  0.00  0.00    +0.020 A 
ATOM     12  C   LIG    1        7.654  -0.507   0.881  0.00  0.00    +0.020 A 
BRANCH  10  13
ATOM     13  C   LIG    1        6.918  -3.409  -1.416  0.00  0.00    +0.340 C 
BRANCH  13  14
ATOM     14  N   LIG    1        8.114  -4.253  -1.494  0.00  0.00    -0.620 N 
ATOM     15  C   LIG    1        9.354  -3.869  -2.178  0.00  0.00    +0.250 C 
ATOM     16  C   LIG    1       10.437  -4.831  -1.634  0.00  0.00    +0.040 C 
ATOM     17  C   LIG    1        9.587  -6.054  -1.216  0.00  0.00    +0.050 C 
ATOM     18  C   LIG    1        8.213  -5.479  -0.953  0.00  0.00    +0.520 C 
ATOM     19  O   LIG    1        7.330  -6.043  -0.342  0.00  0.00    -0.530 OA
ENDBRANCH  13  14
ENDBRANCH  10  13
ENDBRANCH   6   7
BRANCH   1  20
ATOM     20  C   LIG    1        5.996   1.699   2.042  0.00  0.00    +0.310 C 
BRANCH  20  23
ATOM     21  O   LIG    1        4.388   2.049  -0.093  0.00  0.00    -0.540 OA
ATOM     22  C   LIG    1        3.957   1.309   0.766  0.00  0.00    +0.510 C 
ATOM     23  N   LIG    1        4.685   1.068   1.875  0.00  0.00    -0.720 N 
ATOM     24  H   LIG    1        4.340   0.476   2.562  0.00  0.00    +0.400 HD
BRANCH  22  25
ATOM     25  C   LIG    1        2.608   0.659   0.595  0.00  0.00    +0.040 C 
BRANCH  25  26
ATOM     26  C   LIG    1        1.998   1.096  -0.738  0.00  0.00    +0.040 C 
BRANCH  26  27
ATOM     27  C   LIG    1        0.628   0.437  -0.913  0.00  0.00    -0.020 C 
ATOM     28  C   LIG    1       -0.329   0.958   0.161  0.00  0.00    +0.000 C 
ATOM     29  C   LIG    1       -1.699   0.299  -0.013  0.00  0.00    +0.000 C 
ATOM     30  C   LIG    1       -2.254   0.635  -1.399  0.00  0.00    +0.000 C 
ATOM     31  C   LIG    1       -1.297   0.114  -2.473  0.00  0.00    +0.000 C 
ATOM     32  C   LIG    1        0.072   0.773  -2.298  0.00  0.00    +0.010 C 
ENDBRANCH  26  27
ENDBRANCH  25  26
ENDBRANCH  22  25
ENDBRANCH  20  23
ENDBRANCH   1  20
TORSDOF 8
