REMARK  Name = ZINCrH000004nmGn.0
REMARK                            x       y       z     vdW  Elec       q    Type
REMARK                         _______ _______ _______ _____ _____    ______ ____
ROOT
ATOM      1  N   LIG    1        2.822  -0.597  -1.849  0.00  0.00    -0.710 N 
ATOM      2  H   LIG    1        3.755  -0.590  -1.580  0.00  0.00    +0.400 HD
ATOM      3  C   LIG    1        1.929   0.179  -1.203  0.00  0.00    +0.530 C 
ATOM      4  O   LIG    1        0.764   0.170  -1.539  0.00  0.00    -0.530 OA
ENDROOT
BRANCH   1   5
ATOM      5  C   LIG    1        2.385  -1.452  -2.955  0.00  0.00    +0.330 C 
BRANCH   5  12
ATOM      6  C   LIG    1        4.324  -1.672  -4.530  0.00  0.00    +0.160 A 
ATOM      7  C   LIG    1        5.415  -2.370  -5.026  0.00  0.00    -0.070 A 
ATOM      8  C   LIG    1        5.739  -3.607  -4.502  0.00  0.00    +0.080 A 
ATOM      9  C   LIG    1        4.981  -4.146  -3.480  0.00  0.00    -0.010 A 
ATOM     10  C   LIG    1        3.895  -3.449  -2.979  0.00  0.00    +0.020 A 
ATOM     11 CL   LIG    1        2.944  -4.129  -1.696  0.00  0.00    -0.050 Cl
ATOM     12  C   LIG    1        3.567  -2.212  -3.500  0.00  0.00    -0.140 A 
BRANCH   6  14
ATOM     13  C   LIG    1        4.824   0.036  -6.107  0.00  0.00    +0.260 C 
ATOM     14  O   LIG    1        4.001  -0.458  -5.049  0.00  0.00    -0.300 OA
ENDBRANCH   6  14
ENDBRANCH   5  12
ENDBRANCH   1   5
BRANCH   3  15
ATOM     15  C   LIG    1        2.379   1.058  -0.065  0.00  0.00    +0.270 C 
BRANCH  15  16
ATOM     16  N   LIG    1        1.393   2.120   0.151  0.00  0.00    -0.580 N 
ATOM     17  C   LIG    1        0.674   2.137   1.418  0.00  0.00    +0.260 C 
ATOM     18  C   LIG    1        0.066   3.517   1.670  0.00  0.00    +0.020 C 
ATOM     19  C   LIG    1       -0.723   3.941   0.425  0.00  0.00    +0.020 C 
ATOM     20  C   LIG    1        0.272   4.178  -0.716  0.00  0.00    +0.070 C 
ATOM     21  C   LIG    1        1.209   3.010  -0.826  0.00  0.00    +0.520 C 
ATOM     22  O   LIG    1        1.836   2.871  -1.854  0.00  0.00    -0.550 OA
ENDBRANCH  15  16
BRANCH  15  23
ATOM     23  C   LIG    1        2.509   0.231   1.188  0.00  0.00    -0.100 A 
ATOM     24  C   LIG    1        1.412  -0.448   1.684  0.00  0.00    +0.030 A 
ATOM     25  C   LIG    1        1.532  -1.210   2.832  0.00  0.00    +0.010 A 
ATOM     26  C   LIG    1        2.747  -1.286   3.487  0.00  0.00    +0.020 A 
ATOM     27  C   LIG    1        3.842  -0.603   2.993  0.00  0.00    +0.010 A 
ATOM     28  C   LIG    1        3.723   0.156   1.844  0.00  0.00    +0.030 A 
ENDBRANCH  15  23
ENDBRANCH   3  15
TORSDOF 6
