REMARK  Name = ZINCb70000002hm2.0
REMARK                            x       y       z     vdW  Elec       q    Type
REMARK                         _______ _______ _______ _____ _____    ______ ____
ROOT
ATOM      1  C   LIG    1        0.717  -0.510   1.258  0.00  0.00    +0.020 C 
ATOM      2  C   LIG    1        0.002  -0.004   0.002  0.00  0.00    +0.220 C 
ATOM      3  O   LIG    1       -0.017   1.425   0.010  0.00  0.00    -0.360 OA
ATOM      4  C   LIG    1        1.279   2.026   0.001  0.00  0.00    +0.200 C 
ATOM      5  C   LIG    1        2.046   1.599   1.254  0.00  0.00    +0.060 C 
ATOM      6  C   LIG    1        3.457   2.191   1.218  0.00  0.00    +0.270 C 
ATOM      7  N   LIG    1        3.371   3.658   1.234  0.00  0.00    -0.510 N 
ATOM      8  C   LIG    1        2.685   4.094   2.458  0.00  0.00    +0.240 C 
ATOM      9  C   LIG    1        1.275   3.499   2.489  0.00  0.00    +0.250 C 
ATOM     10  H   LIG    1        2.853   3.973   0.427  0.00  0.00    +0.430 HD
ATOM     11  H   LIG    1        4.301   4.050   1.211  0.00  0.00    +0.440 HD
ATOM     12  O   LIG    1        1.363   2.074   2.417  0.00  0.00    -0.330 OA
ATOM     13  C   LIG    1        2.133   0.072   1.300  0.00  0.00    +0.070 C 
ENDROOT
TORSDOF 0
