REMARK  Name = ZINCpk00000KfKTX.0
REMARK                            x       y       z     vdW  Elec       q    Type
REMARK                         _______ _______ _______ _____ _____    ______ ____
ROOT
ATOM      1  C   LIG    1       -1.961   0.477   0.593  0.00  0.00    +0.210 C 
ATOM      2  C   LIG    1       -1.952  -0.225  -0.766  0.00  0.00    +0.260 C 
ATOM      3  O   LIG    1       -3.212  -0.879  -0.953  0.00  0.00    -0.360 OA
ATOM      4  C   LIG    1       -4.298   0.036  -1.117  0.00  0.00    +0.290 C 
ATOM      5  C   LIG    1       -4.263   1.069  -0.024  0.00  0.00    +0.500 C 
ATOM      6  O   LIG    1       -5.250   1.743   0.175  0.00  0.00    -0.520 OA
ATOM      7  N   LIG    1       -3.179   1.270   0.736  0.00  0.00    -0.580 N 
ENDROOT
BRANCH   1  10
ATOM      8  N   LIG    1        0.368   0.939   1.288  0.00  0.00    -0.650 N 
ATOM      9  H   LIG    1        0.417   0.028   1.620  0.00  0.00    +0.420 HD
ATOM     10  C   LIG    1       -0.760   1.381   0.698  0.00  0.00    +0.510 C 
ATOM     11  O   LIG    1       -0.808   2.508   0.250  0.00  0.00    -0.500 OA
BRANCH   8  17
ATOM     12  C   LIG    1        2.453   1.542   2.383  0.00  0.00    +0.140 A 
ATOM     13  C   LIG    1        3.531   2.416   2.467  0.00  0.00    -0.090 A 
ATOM     14  C   LIG    1        3.590   3.497   1.609  0.00  0.00    +0.280 A 
ATOM     15  N   LIG    1        2.644   3.705   0.714  0.00  0.00    -0.480 NA
ATOM     16  C   LIG    1        1.606   2.899   0.596  0.00  0.00    +0.310 A 
ATOM     17  C   LIG    1        1.472   1.792   1.418  0.00  0.00    +0.060 A 
BRANCH  12  19
ATOM     18  C   LIG    1        3.405   0.295   4.168  0.00  0.00    +0.260 C 
ATOM     19  O   LIG    1        2.357   0.471   3.213  0.00  0.00    -0.310 OA
ENDBRANCH  12  19
ENDBRANCH   8  17
ENDBRANCH   1  10
BRANCH   7  20
ATOM     20  C   LIG    1       -3.218   2.325   1.752  0.00  0.00    +0.340 C 
BRANCH  20  21
ATOM     21  C   LIG    1       -3.846   1.788   3.011  0.00  0.00    -0.110 A 
ATOM     22  C   LIG    1       -5.214   1.878   3.194  0.00  0.00    +0.040 A 
ATOM     23  C   LIG    1       -5.791   1.381   4.348  0.00  0.00    +0.000 A 
ATOM     24  C   LIG    1       -5.000   0.803   5.323  0.00  0.00    +0.010 A 
ATOM     25  C   LIG    1       -3.632   0.717   5.142  0.00  0.00    +0.000 A 
ATOM     26  C   LIG    1       -3.055   1.210   3.987  0.00  0.00    +0.000 A 
ENDBRANCH  20  21
ENDBRANCH   7  20
TORSDOF 5
