REMARK  Name = ZINCtV00000L6jpl.0
REMARK                            x       y       z     vdW  Elec       q    Type
REMARK                         _______ _______ _______ _____ _____    ______ ____
ROOT
ATOM      1  C   LIG    1       -0.764   1.613   3.564  0.00  0.00    +0.140 A 
ATOM      2  C   LIG    1       -0.271   1.269   4.788  0.00  0.00    +0.010 A 
ATOM      3  C   LIG    1        0.886   0.474   4.871  0.00  0.00    +0.080 A 
ATOM      4  N   LIG    1        1.409   0.117   6.045  0.00  0.00    -0.380 NA
ATOM      5  C   LIG    1        2.498  -0.630   6.074  0.00  0.00    +0.100 A 
ATOM      6  C   LIG    1        3.125  -1.063   4.881  0.00  0.00    +0.320 A 
ATOM      7  N   LIG    1        4.229  -1.820   5.223  0.00  0.00    -0.490 N 
ATOM      8  C   LIG    1        4.351  -1.902   6.600  0.00  0.00    +0.180 A 
ATOM      9  C   LIG    1        5.279  -2.538   7.419  0.00  0.00    +0.010 A 
ATOM     10  C   LIG    1        5.162  -2.454   8.790  0.00  0.00    +0.110 A 
ATOM     11  C   LIG    1        4.122  -1.740   9.367  0.00  0.00    -0.130 A 
ATOM     12 BR   LIG    1        3.979  -1.638  11.250  0.00  0.00    -0.040 Br
ATOM     13  C   LIG    1        3.193  -1.103   8.572  0.00  0.00    +0.130 A 
ATOM     14  N   LIG    1        2.631  -0.725   3.702  0.00  0.00    -0.460 NA
ATOM     15  C   LIG    1        3.301  -1.180   7.185  0.00  0.00    -0.100 A 
ATOM     16  C   LIG    1        1.532   0.029   3.634  0.00  0.00    +0.150 A 
ATOM     17  C   LIG    1        0.975   0.410   2.401  0.00  0.00    -0.020 A 
ATOM     18  C   LIG    1       -0.149   1.182   2.379  0.00  0.00    +0.160 A 
ENDROOT
BRANCH   1  19
ATOM     19  O   LIG    1       -1.880   2.386   3.491  0.00  0.00    -0.300 OA
BRANCH  19  20
ATOM     20  C   LIG    1       -2.466   2.797   4.727  0.00  0.00    +0.190 C 
BRANCH  20  22
ATOM     21  C   LIG    1       -4.331   4.094   5.769  0.00  0.00    +0.040 C 
ATOM     22  C   LIG    1       -3.703   3.653   4.445  0.00  0.00    +0.040 C 
ENDBRANCH  20  22
ENDBRANCH  19  20
ENDBRANCH   1  19
BRANCH   7  23
ATOM     23  C   LIG    1        5.141  -2.447   4.263  0.00  0.00    +0.300 C 
BRANCH  23  24
ATOM     24  C   LIG    1        6.275  -1.477   3.928  0.00  0.00    +0.000 C 
ATOM     25  C   LIG    1        7.228  -2.132   2.926  0.00  0.00    +0.030 C 
ENDBRANCH  23  24
ENDBRANCH   7  23
BRANCH  18  26
ATOM     26  O   LIG    1       -0.682   1.547   1.184  0.00  0.00    -0.290 OA
BRANCH  26  27
ATOM     27  C   LIG    1       -0.013   1.086   0.008  0.00  0.00    +0.190 C 
BRANCH  27  28
ATOM     28  C   LIG    1       -0.753   1.593  -1.232  0.00  0.00    +0.040 C 
ATOM     29  C   LIG    1       -0.037   1.099  -2.490  0.00  0.00    +0.040 C 
ENDBRANCH  27  28
ENDBRANCH  26  27
ENDBRANCH  18  26
TORSDOF 8
