REMARK  Name = ZINCpk00000xIh6N.0
REMARK                            x       y       z     vdW  Elec       q    Type
REMARK                         _______ _______ _______ _____ _____    ______ ____
ROOT
ATOM      1  C   LIG    1        0.495   3.476   2.111  0.00  0.00    +0.520 C 
ATOM      2  N   LIG    1       -0.561   3.015   1.411  0.00  0.00    -0.600 N 
ATOM      3  C   LIG    1       -0.736   1.584   1.284  0.00  0.00    +0.270 C 
ATOM      4  C   LIG    1       -0.013   1.086   0.008  0.00  0.00    +0.040 C 
ATOM      5  C   LIG    1       -0.724   1.573  -1.189  0.00  0.00    +0.200 C 
ATOM      6  N   LIG    1       -0.762   3.030  -1.317  0.00  0.00    -0.460 N 
ATOM      7  C   LIG    1       -1.905   3.575  -0.615  0.00  0.00    +0.200 C 
ATOM      8  C   LIG    1       -1.490   3.993   0.807  0.00  0.00    +0.290 C 
ATOM      9  O   LIG    1        1.274   2.697   2.618  0.00  0.00    -0.530 OA
ENDROOT
BRANCH   1  13
ATOM     10  C   LIG    1        0.974   7.338   3.954  0.00  0.00    +0.030 C 
ATOM     11  C   LIG    1       -0.286   7.086   3.122  0.00  0.00    +0.040 C 
ATOM     12  C   LIG    1       -0.501   5.579   2.968  0.00  0.00    +0.030 C 
ATOM     13  C   LIG    1        0.708   4.961   2.263  0.00  0.00    -0.010 C 
ATOM     14  C   LIG    1        1.967   5.213   3.095  0.00  0.00    +0.050 C 
ATOM     15  C   LIG    1        2.183   6.720   3.250  0.00  0.00    +0.050 C 
BRANCH  10  16
ATOM     16  C   LIG    1        1.186   8.822   4.106  0.00  0.00    +0.460 C 
ATOM     17  O   LIG    1        2.201   9.333   3.694  0.00  0.00    -0.500 OA
BRANCH  16  19
ATOM     18  C   LIG    1        0.521  10.999   4.812  0.00  0.00    +0.250 C 
ATOM     19  O   LIG    1        0.249   9.577   4.700  0.00  0.00    -0.360 OA
ENDBRANCH  16  19
ENDBRANCH  10  16
ENDBRANCH   1  13
BRANCH   6  20
ATOM     20  C   LIG    1       -0.769   3.413  -2.654  0.00  0.00    +0.260 A 
ATOM     21  C   LIG    1       -0.809   4.764  -2.995  0.00  0.00    +0.010 A 
ATOM     22  C   LIG    1       -0.809   5.093  -4.342  0.00  0.00    +0.060 A 
ATOM     23  C   LIG    1       -0.780   4.058  -5.266  0.00  0.00    +0.180 A 
ATOM     24  N   LIG    1       -0.749   2.807  -4.854  0.00  0.00    -0.220 NA
ATOM     25  N   LIG    1       -0.743   2.495  -3.609  0.00  0.00    -0.280 NA
ENDBRANCH   6  20
TORSDOF 4
