REMARK  Name = ZINCvU0000000CwX.0
REMARK                            x       y       z     vdW  Elec       q    Type
REMARK                         _______ _______ _______ _____ _____    ______ ____
ROOT
ATOM      1  C   LIG    1       -5.161   0.755  -0.789  0.00  0.00    +0.150 A 
ATOM      2  N   LIG    1       -5.004  -0.481  -0.370  0.00  0.00    -0.290 NA
ATOM      3  N   LIG    1       -6.125  -1.108  -0.417  0.00  0.00    -0.250 NA
ATOM      4  C   LIG    1       -7.066  -0.312  -0.868  0.00  0.00    +0.220 A 
ATOM      5  N   LIG    1       -6.478   0.907  -1.115  0.00  0.00    -0.440 N 
ENDROOT
BRANCH   4   6
ATOM      6  C   LIG    1       -8.489  -0.659  -1.068  0.00  0.00    -0.010 A 
ATOM      7  C   LIG    1       -9.490   0.186  -0.586  0.00  0.00    +0.040 A 
ATOM      8  C   LIG    1      -10.816  -0.140  -0.781  0.00  0.00    +0.030 A 
ATOM      9  C   LIG    1      -11.156  -1.307  -1.442  0.00  0.00    +0.050 A 
ATOM     10  C   LIG    1      -10.169  -2.152  -1.917  0.00  0.00    +0.030 A 
ATOM     11  C   LIG    1       -8.838  -1.835  -1.735  0.00  0.00    -0.000 A 
ATOM     12 CL   LIG    1       -7.601  -2.897  -2.332  0.00  0.00    -0.040 Cl
ENDBRANCH   4   6
BRANCH   5  13
ATOM     13  C   LIG    1       -7.130   2.117  -1.624  0.00  0.00    +0.230 C 
ATOM     14  C   LIG    1       -6.463   2.562  -2.942  0.00  0.00    +0.020 C 
ATOM     15  C   LIG    1       -6.471   4.109  -2.868  0.00  0.00    +0.030 C 
ATOM     16  C   LIG    1       -6.176   4.381  -1.372  0.00  0.00    +0.030 C 
ATOM     17  C   LIG    1       -6.948   3.273  -0.626  0.00  0.00    +0.020 C 
ENDBRANCH   5  13
BRANCH   1  18
ATOM     18  S   LIG    1       -3.907   1.987  -0.902  0.00  0.00    +0.100 S 
BRANCH  18  19
ATOM     19  C   LIG    1       -2.484   1.044  -0.301  0.00  0.00    +0.010 C 
ATOM     20  C   LIG    1       -2.703   0.669   1.166  0.00  0.00    +0.090 C 
BRANCH  19  23
ATOM     21  N   LIG    1       -0.033   1.285  -0.531  0.00  0.00    -0.640 N 
ATOM     22  H   LIG    1        0.031   0.317  -0.528  0.00  0.00    +0.410 HD
ATOM     23  C   LIG    1       -1.237   1.881  -0.425  0.00  0.00    +0.550 C 
ATOM     24  O   LIG    1       -1.317   3.091  -0.429  0.00  0.00    -0.490 OA
BRANCH  21  29
ATOM     25  N   LIG    1        2.386   1.597  -0.771  0.00  0.00    -0.380 N 
ATOM     26  N   LIG    1        3.241   2.702  -0.867  0.00  0.00    -0.280 NA
ATOM     27  C   LIG    1        2.518   3.790  -0.807  0.00  0.00    +0.250 A 
ATOM     28  C   LIG    1        1.177   3.420  -0.677  0.00  0.00    -0.110 A 
ATOM     29  C   LIG    1        1.120   2.060  -0.652  0.00  0.00    +0.300 A 
BRANCH  25  31
ATOM     30  C   LIG    1        3.498  -0.116  -2.116  0.00  0.00    +0.050 C 
ATOM     31  C   LIG    1        2.789   0.189  -0.795  0.00  0.00    +0.250 C 
ATOM     32  C   LIG    1        3.742  -0.088   0.370  0.00  0.00    +0.050 C 
ENDBRANCH  25  31
ENDBRANCH  21  29
ENDBRANCH  19  23
ENDBRANCH  18  19
ENDBRANCH   1  18
TORSDOF 7
