REMARK  Name = ZINCrD00000F5LG8.0
REMARK                            x       y       z     vdW  Elec       q    Type
REMARK                         _______ _______ _______ _____ _____    ______ ____
ROOT
ATOM      1  C   LIG    1        5.213   0.817  -0.576  0.00  0.00    +0.000 C 
ATOM      2  C   LIG    1        4.960   2.031  -1.502  0.00  0.00    +0.300 C 
ATOM      3  N   LIG    1        3.815   2.736  -0.881  0.00  0.00    -0.610 N 
ATOM      4  C   LIG    1        2.915   1.648  -0.431  0.00  0.00    +0.300 C 
ATOM      5  C   LIG    1        3.630   4.065  -0.758  0.00  0.00    +0.580 C 
ATOM      6  O   LIG    1        4.417   4.836  -1.266  0.00  0.00    -0.520 OA
ATOM      7  C   LIG    1        3.863   0.564   0.126  0.00  0.00    -0.020 C 
ENDROOT
BRANCH   7   8
ATOM      8  C   LIG    1        3.337  -0.831  -0.219  0.00  0.00    +0.460 C 
ATOM      9  F   LIG    1        2.081  -1.014   0.371  0.00  0.00    -0.180 F 
ATOM     10  F   LIG    1        4.225  -1.797   0.266  0.00  0.00    -0.180 F 
ATOM     11  F   LIG    1        3.223  -0.956  -1.607  0.00  0.00    -0.180 F 
ENDBRANCH   7   8
BRANCH   5  12
ATOM     12  C   LIG    1        2.446   4.594   0.009  0.00  0.00    -0.130 C 
ATOM     13  C   LIG    1        1.850   5.929  -0.443  0.00  0.00    +0.090 C 
ATOM     14  C   LIG    1        1.095   4.624  -0.709  0.00  0.00    +0.070 C 
BRANCH  12  15
ATOM     15  C   LIG    1        2.442   4.294   1.486  0.00  0.00    -0.030 A 
ATOM     16  C   LIG    1        1.243   4.155   2.160  0.00  0.00    +0.020 A 
ATOM     17  C   LIG    1        1.239   3.881   3.515  0.00  0.00    +0.040 A 
ATOM     18  C   LIG    1        2.433   3.738   4.195  0.00  0.00    +0.030 A 
ATOM     19  C   LIG    1        3.634   3.883   3.522  0.00  0.00    -0.030 A 
ATOM     20 CL   LIG    1        5.135   3.712   4.377  0.00  0.00    -0.060 Cl
ATOM     21  C   LIG    1        3.637   4.158   2.166  0.00  0.00    +0.030 A 
ENDBRANCH  12  15
ENDBRANCH   5  12
BRANCH   1  22
ATOM     22  C   LIG    1        6.296   1.141   0.455  0.00  0.00    +0.290 C 
BRANCH  22  25
ATOM     23  O   LIG    1        8.623   1.702   1.696  0.00  0.00    -0.510 OA
ATOM     24  C   LIG    1        8.699   1.544   0.495  0.00  0.00    +0.500 C 
ATOM     25  N   LIG    1        7.592   1.260  -0.219  0.00  0.00    -0.730 N 
ATOM     26  H   LIG    1        7.653   1.134  -1.179  0.00  0.00    +0.400 HD
BRANCH  24  27
ATOM     27  C   LIG    1       10.032   1.666  -0.197  0.00  0.00    +0.170 C 
ATOM     28 CL   LIG    1       11.308   2.049   1.018  0.00  0.00    -0.130 Cl
ENDBRANCH  24  27
ENDBRANCH  22  25
ENDBRANCH   1  22
TORSDOF 6
