REMARK  Name = ZINCqH0000038TxZ.0
REMARK                            x       y       z     vdW  Elec       q    Type
REMARK                         _______ _______ _______ _____ _____    ______ ____
ROOT
ATOM      1  C   LIG    1       -1.823   5.301  -1.751  0.00  0.00    -0.030 C 
ATOM      2  C   LIG    1       -2.118   4.187  -1.123  0.00  0.00    -0.050 C 
ATOM      3  C   LIG    1       -1.235   3.571  -0.073  0.00  0.00    +0.310 C 
ATOM      4  N   LIG    1        0.068   4.250  -0.078  0.00  0.00    -0.600 N 
ATOM      5  C   LIG    1        0.064   5.720  -0.177  0.00  0.00    +0.290 C 
ATOM      6  C   LIG    1        1.220   3.557   0.009  0.00  0.00    +0.570 C 
ATOM      7  O   LIG    1        2.281   4.147   0.070  0.00  0.00    -0.520 OA
ATOM      8  C   LIG    1       -0.571   6.095  -1.525  0.00  0.00    +0.070 C 
ENDROOT
BRANCH   1  12
ATOM      9  C   LIG    1       -5.393   8.053  -3.928  0.00  0.00    +0.310 C 
ATOM     10  N   LIG    1       -4.375   7.018  -3.732  0.00  0.00    -0.480 N 
ATOM     11  C   LIG    1       -3.641   6.851  -2.594  0.00  0.00    +0.240 A 
ATOM     12  C   LIG    1       -2.789   5.806  -2.747  0.00  0.00    -0.150 A 
ATOM     13  C   LIG    1       -3.019   5.269  -4.099  0.00  0.00    -0.090 A 
ATOM     14  C   LIG    1       -2.470   4.216  -4.829  0.00  0.00    +0.050 A 
ATOM     15  C   LIG    1       -2.916   3.967  -6.107  0.00  0.00    -0.020 A 
ATOM     16  C   LIG    1       -3.909   4.756  -6.670  0.00  0.00    +0.030 A 
ATOM     17  C   LIG    1       -4.462   5.800  -5.961  0.00  0.00    -0.010 A 
ATOM     18  C   LIG    1       -4.024   6.070  -4.668  0.00  0.00    +0.090 A 
ENDBRANCH   1  12
BRANCH   6  19
ATOM     19  C   LIG    1        1.194   2.076   0.030  0.00  0.00    -0.020 A 
ATOM     20  C   LIG    1        0.262   1.387   0.807  0.00  0.00    -0.060 A 
ATOM     21  C   LIG    1        0.273  -0.003   0.798  0.00  0.00    +0.430 A 
ATOM     22  N   LIG    1        1.152  -0.668   0.065  0.00  0.00    -0.530 NA
ATOM     23  C   LIG    1        2.048  -0.049  -0.681  0.00  0.00    +0.230 A 
ATOM     24 CL   LIG    1        3.173  -0.983  -1.618  0.00  0.00    -0.020 Cl
ATOM     25  C   LIG    1        2.104   1.330  -0.728  0.00  0.00    -0.020 A 
BRANCH  21  26
ATOM     26  N   LIG    1       -0.650  -0.704   1.567  0.00  0.00    -0.840 N 
ATOM     27  H   LIG    1       -1.297  -0.222   2.106  0.00  0.00    +0.410 HD
ATOM     28  H   LIG    1       -0.647  -1.673   1.564  0.00  0.00    +0.410 HD
ENDBRANCH  21  26
ENDBRANCH   6  19
TORSDOF 3
