REMARK  Name = ZINCrg000000qDee.0
REMARK                            x       y       z     vdW  Elec       q    Type
REMARK                         _______ _______ _______ _____ _____    ______ ____
ROOT
ATOM      1  N   LIG    1        4.906   4.489  -1.079  0.00  0.00    -0.530 NA
ATOM      2  C   LIG    1        4.826   3.560   0.057  0.00  0.00    +0.190 C 
ATOM      3  C   LIG    1        3.511   2.781  -0.016  0.00  0.00    +0.240 C 
ATOM      4  N   LIG    1        2.384   3.725  -0.000  0.00  0.00    -0.460 N 
ATOM      5  C   LIG    1        2.464   4.654  -1.136  0.00  0.00    +0.220 C 
ATOM      6  C   LIG    1        3.780   5.433  -1.064  0.00  0.00    +0.200 C 
ENDROOT
BRANCH   4   7
ATOM      7  C   LIG    1        1.176   3.054   0.007  0.00  0.00    +0.470 A 
ATOM      8  C   LIG    1       -0.042   3.763   0.023  0.00  0.00    -0.130 A 
ATOM      9  N   LIG    1       -0.366   5.068   0.033  0.00  0.00    -0.180 NA
ATOM     10  N   LIG    1       -1.647   5.205   0.046  0.00  0.00    +0.000 NA
ATOM     11  N   LIG    1       -2.250   3.939   0.045  0.00  0.00    -0.380 N 
ATOM     12  C   LIG    1       -3.687   3.654   0.058  0.00  0.00    +0.390 C 
ATOM     13  C   LIG    1       -1.236   3.022   0.030  0.00  0.00    +0.320 A 
ATOM     14  N   LIG    1       -1.174   1.693   0.017  0.00  0.00    -0.550 NA
ATOM     15  C   LIG    1       -0.013   1.076   0.008  0.00  0.00    +0.590 A 
ATOM     16  N   LIG    1        1.137   1.727   0.001  0.00  0.00    -0.570 NA
ENDBRANCH   4   7
BRANCH   1  17
ATOM     17  C   LIG    1        6.190   5.202  -1.087  0.00  0.00    +0.240 C 
BRANCH  17  20
ATOM     18  C   LIG    1        6.017   7.949  -3.679  0.00  0.00    +0.170 A 
ATOM     19  C   LIG    1        5.880   7.254  -2.485  0.00  0.00    -0.050 A 
ATOM     20  C   LIG    1        6.339   5.955  -2.385  0.00  0.00    -0.000 A 
ATOM     21  C   LIG    1        6.940   5.346  -3.470  0.00  0.00    -0.040 A 
ATOM     22  C   LIG    1        7.074   6.034  -4.667  0.00  0.00    +0.170 A 
ATOM     23  C   LIG    1        6.614   7.338  -4.770  0.00  0.00    -0.170 A 
BRANCH  18  25
ATOM     24  C   LIG    1        5.740   9.882  -5.035  0.00  0.00    +0.250 C 
ATOM     25  O   LIG    1        5.566   9.227  -3.777  0.00  0.00    -0.310 OA
ENDBRANCH  18  25
BRANCH  22  26
ATOM     26  O   LIG    1        7.660   5.433  -5.736  0.00  0.00    -0.310 OA
ATOM     27  C   LIG    1        7.769   6.203  -6.934  0.00  0.00    +0.240 C 
ENDBRANCH  22  26
ENDBRANCH  17  20
ENDBRANCH   1  17
TORSDOF 5
