REMARK  Name = ZINCqH0000003PyT.0
REMARK                            x       y       z     vdW  Elec       q    Type
REMARK                         _______ _______ _______ _____ _____    ______ ____
ROOT
ATOM      1  C   LIG    1       -3.577  -1.122   0.024  0.00  0.00    +0.180 C 
ENDROOT
BRANCH   1   4
ATOM      2  C   LIG    1       -5.226   0.307  -2.505  0.00  0.00    +0.180 A 
ATOM      3  C   LIG    1       -5.471   0.339  -1.127  0.00  0.00    -0.120 A 
ATOM      4  C   LIG    1       -4.811  -0.256   0.037  0.00  0.00    -0.150 A 
ATOM      5  C   LIG    1       -5.510   0.120   1.119  0.00  0.00    +0.230 A 
ATOM      6  N   LIG    1       -6.567   0.904   0.742  0.00  0.00    -0.590 N 
ATOM      7  H   LIG    1       -7.215   1.296   1.348  0.00  0.00    +0.420 HD
ATOM      8  C   LIG    1       -6.573   1.054  -0.627  0.00  0.00    +0.130 A 
ATOM      9  C   LIG    1       -7.405   1.734  -1.511  0.00  0.00    -0.050 A 
ATOM     10  C   LIG    1       -7.150   1.699  -2.864  0.00  0.00    +0.070 A 
ATOM     11  C   LIG    1       -6.067   0.990  -3.363  0.00  0.00    -0.110 A 
BRANCH   2  12
ATOM     12  O   LIG    1       -4.166  -0.388  -2.996  0.00  0.00    -0.310 OA
BRANCH  12  14
ATOM     13  C   LIG    1       -2.744  -1.199  -4.774  0.00  0.00    +0.060 C 
ATOM     14  C   LIG    1       -3.978  -0.369  -4.412  0.00  0.00    +0.170 C 
ENDBRANCH  12  14
ENDBRANCH   2  12
ENDBRANCH   1   4
BRANCH   1  15
ATOM     15  C   LIG    1       -2.350  -0.247   0.019  0.00  0.00    +0.510 C 
ATOM     16  N   LIG    1       -1.124  -0.806   0.007  0.00  0.00    -0.620 N 
ATOM     17  H   LIG    1       -1.031  -1.772   0.001  0.00  0.00    +0.430 HD
ATOM     18  O   LIG    1       -2.466   0.960   0.026  0.00  0.00    -0.480 OA
BRANCH  16  19
ATOM     19  C   LIG    1        0.002  -0.004   0.002  0.00  0.00    +0.250 A 
ATOM     20  N   LIG    1        1.227  -0.446  -0.010  0.00  0.00    -0.520 NA
ATOM     21  C   LIG    1        2.195   0.434  -0.013  0.00  0.00    +0.180 A 
ATOM     22  C   LIG    1        1.732   1.740  -0.005  0.00  0.00    -0.420 A 
ATOM     23  C   LIG    1        2.584   2.865  -0.011  0.00  0.00    +0.440 C 
ATOM     24  C   LIG    1        4.076   2.618  -0.057  0.00  0.00    +0.040 C 
ATOM     25  C   LIG    1        4.406   1.307   0.656  0.00  0.00    +0.050 C 
ATOM     26  O   LIG    1        2.135   3.993   0.020  0.00  0.00    -0.470 OA
ATOM     27  C   LIG    1        3.686   0.135  -0.018  0.00  0.00    +0.150 C 
ATOM     28  S   LIG    1       -0.021   1.706   0.011  0.00  0.00    +0.350 S 
ENDBRANCH  16  19
ENDBRANCH   1  15
TORSDOF 5
