REMARK  Name = ZINCqH0000037Ot2.0
REMARK                            x       y       z     vdW  Elec       q    Type
REMARK                         _______ _______ _______ _____ _____    ______ ____
ROOT
ATOM      1  C   LIG    1        2.960   3.845  -0.005  0.00  0.00    -0.270 A 
ATOM      2  C   LIG    1        3.296   5.144  -0.007  0.00  0.00    +0.190 A 
ATOM      3  C   LIG    1        4.673   5.406  -0.014  0.00  0.00    -0.220 A 
ATOM      4  C   LIG    1        5.443   4.255  -0.028  0.00  0.00    +0.030 A 
ATOM      5  N   LIG    1        6.757   4.641  -0.038  0.00  0.00    -0.300 N 
ATOM      6  N   LIG    1        6.798   6.038  -0.031  0.00  0.00    -0.250 NA
ATOM      7  C   LIG    1        5.586   6.506  -0.017  0.00  0.00    +0.150 A 
ATOM      8  C   LIG    1        5.206   7.965  -0.006  0.00  0.00    +0.180 C 
ATOM      9  S   LIG    1        4.398   2.840  -0.025  0.00  0.00    +0.200 S 
ENDROOT
BRANCH   5  10
ATOM     10  C   LIG    1        7.867   3.785  -0.054  0.00  0.00    +0.140 A 
ATOM     11  C   LIG    1        7.825   2.580   0.634  0.00  0.00    +0.040 A 
ATOM     12  C   LIG    1        8.918   1.736   0.613  0.00  0.00    +0.020 A 
ATOM     13  C   LIG    1       10.059   2.096  -0.084  0.00  0.00    +0.100 A 
ATOM     14  C   LIG    1       10.104   3.300  -0.766  0.00  0.00    +0.020 A 
ATOM     15  F   LIG    1       11.129   1.271  -0.098  0.00  0.00    -0.130 F 
ATOM     16  C   LIG    1        9.012   4.144  -0.753  0.00  0.00    +0.070 A 
ENDBRANCH   5  10
BRANCH   1  19
ATOM     17  N   LIG    1        1.356   2.010  -0.000  0.00  0.00    -0.730 N 
ATOM     18  H   LIG    1        2.102   1.390  -0.011  0.00  0.00    +0.400 HD
ATOM     19  C   LIG    1        1.584   3.338   0.005  0.00  0.00    +0.600 C 
ATOM     20  O   LIG    1        0.649   4.116   0.018  0.00  0.00    -0.520 OA
BRANCH  17  21
ATOM     21  C   LIG    1       -0.018   1.503   0.010  0.00  0.00    +0.420 C 
BRANCH  21  26
ATOM     22  C   LIG    1        0.059  -3.425   1.283  0.00  0.00    +0.160 C 
ATOM     23  C   LIG    1        0.035  -2.121   0.528  0.00  0.00    +0.010 A 
ATOM     24  N   LIG    1        0.021  -1.969  -0.765  0.00  0.00    -0.350 NA
ATOM     25  O   LIG    1       -0.003  -0.801  -1.076  0.00  0.00    +0.110 OA
ATOM     26  C   LIG    1        0.002  -0.004   0.002  0.00  0.00    -0.060 A 
ATOM     27  C   LIG    1        0.023  -0.821   1.082  0.00  0.00    -0.020 A 
ENDBRANCH  21  26
ENDBRANCH  17  21
ENDBRANCH   1  19
TORSDOF 4
