REMARK  Name = ZINCtV000002AVkW.0
REMARK                            x       y       z     vdW  Elec       q    Type
REMARK                         _______ _______ _______ _____ _____    ______ ____
ROOT
ATOM      1  C   LIG    1       -0.088   0.161  -0.206  0.00  0.00    +0.240 A 
ATOM      2  N   LIG    1       -0.320   1.454  -0.178  0.00  0.00    -0.240 NA
ATOM      3  N   LIG    1        0.791   2.099  -0.164  0.00  0.00    -0.280 NA
ATOM      4  C   LIG    1        1.802   1.261  -0.181  0.00  0.00    +0.170 A 
ATOM      5  N   LIG    1        1.279  -0.004  -0.209  0.00  0.00    -0.420 N 
ENDROOT
BRANCH   1  12
ATOM      6  C   LIG    1       -2.187  -0.876   0.656  0.00  0.00    +0.180 A 
ATOM      7  C   LIG    1       -3.136  -1.885   0.623  0.00  0.00    -0.050 A 
ATOM      8  C   LIG    1       -3.007  -2.929  -0.275  0.00  0.00    +0.090 A 
ATOM      9  C   LIG    1       -1.933  -2.972  -1.148  0.00  0.00    -0.070 A 
ATOM     10  C   LIG    1       -0.982  -1.971  -1.131  0.00  0.00    +0.100 A 
ATOM     11 CL   LIG    1       -1.782  -4.289  -2.269  0.00  0.00    -0.060 Cl
ATOM     12  C   LIG    1       -1.103  -0.913  -0.230  0.00  0.00    -0.050 A 
BRANCH   6  14
ATOM     13  C   LIG    1       -3.442   0.117   2.413  0.00  0.00    +0.250 C 
ATOM     14  O   LIG    1       -2.311   0.147   1.541  0.00  0.00    -0.290 OA
ENDBRANCH   6  14
ENDBRANCH   1  12
BRANCH   5  15
ATOM     15  C   LIG    1        1.988  -1.214  -0.235  0.00  0.00    +0.100 A 
ATOM     16  C   LIG    1        1.935  -2.073   0.855  0.00  0.00    +0.060 A 
ATOM     17  C   LIG    1        2.628  -3.267   0.827  0.00  0.00    +0.040 A 
ATOM     18  C   LIG    1        3.387  -3.603  -0.285  0.00  0.00    +0.110 A 
ATOM     19  C   LIG    1        3.444  -2.743  -1.372  0.00  0.00    +0.030 A 
ATOM     20  C   LIG    1        2.747  -1.551  -1.347  0.00  0.00    +0.060 A 
BRANCH  18  21
ATOM     21  O   LIG    1        4.074  -4.776  -0.309  0.00  0.00    -0.260 OA
BRANCH  21  22
ATOM     22  C   LIG    1        5.410  -4.737  -0.066  0.00  0.00    +0.120 A 
ATOM     23  C   LIG    1        6.048  -3.519   0.121  0.00  0.00    -0.070 A 
ATOM     24  C   LIG    1        7.406  -3.484   0.374  0.00  0.00    +0.050 A 
ATOM     25  C   LIG    1        8.131  -4.660   0.430  0.00  0.00    -0.020 A 
ATOM     26  C   LIG    1        7.499  -5.875   0.239  0.00  0.00    +0.050 A 
ATOM     27  C   LIG    1        6.140  -5.916  -0.009  0.00  0.00    -0.010 A 
ENDBRANCH  21  22
ENDBRANCH  18  21
ENDBRANCH   5  15
BRANCH   4  28
ATOM     28  S   LIG    1        3.512   1.685  -0.171  0.00  0.00    +0.010 S 
ATOM     29  C   LIG    1        3.388   3.490  -0.132  0.00  0.00    +0.160 C 
ENDBRANCH   4  28
TORSDOF 6
