REMARK  Name = ZINCpe000000W9VQ.0
REMARK                            x       y       z     vdW  Elec       q    Type
REMARK                         _______ _______ _______ _____ _____    ______ ____
ROOT
ATOM      1  N   LIG    1        0.031   6.372   0.843  0.00  0.00    -0.740 N 
ATOM      2  H   LIG    1       -0.309   6.384  -0.065  0.00  0.00    +0.400 HD
ATOM      3  C   LIG    1        0.767   5.327   1.273  0.00  0.00    +0.710 C 
ATOM      4  N   LIG    1        1.030   4.300   0.441  0.00  0.00    -0.740 N 
ATOM      5  H   LIG    1        0.752   4.345  -0.487  0.00  0.00    +0.400 HD
ATOM      6  O   LIG    1        1.193   5.311   2.412  0.00  0.00    -0.580 OA
ENDROOT
BRANCH   1  13
ATOM      7  C   LIG    1       -1.555   8.186   1.313  0.00  0.00    +0.200 C 
ATOM      8  C   LIG    1       -1.226   8.970   0.017  0.00  0.00    -0.330 C 
ATOM      9  S   LIG    1        0.405   9.711   0.402  0.00  0.00    +2.390 S 
ATOM     10  C   LIG    1        0.898   8.510   1.690  0.00  0.00    -0.300 C 
ATOM     11  O   LIG    1        1.265   9.576  -0.721  0.00  0.00    -0.930 OA
ATOM     12  O   LIG    1        0.214  10.988   0.998  0.00  0.00    -0.930 OA
ATOM     13  C   LIG    1       -0.255   7.488   1.748  0.00  0.00    +0.310 C 
BRANCH   7  15
ATOM     14  C   LIG    1       -3.897   7.677   1.306  0.00  0.00    +0.210 C 
ATOM     15  O   LIG    1       -2.569   7.213   1.053  0.00  0.00    -0.360 OA
ENDBRANCH   7  15
ENDBRANCH   1  13
BRANCH   4  16
ATOM     16  C   LIG    1        1.734   3.116   0.938  0.00  0.00    +0.320 C 
BRANCH  16  17
ATOM     17  C   LIG    1        3.222   3.339   0.842  0.00  0.00    -0.100 A 
ATOM     18  C   LIG    1        3.755   3.972  -0.266  0.00  0.00    +0.020 A 
ATOM     19  C   LIG    1        5.119   4.181  -0.352  0.00  0.00    +0.000 A 
ATOM     20  C   LIG    1        5.950   3.748   0.664  0.00  0.00    +0.000 A 
ATOM     21  C   LIG    1        5.417   3.111   1.769  0.00  0.00    +0.000 A 
ATOM     22  C   LIG    1        4.053   2.906   1.858  0.00  0.00    +0.020 A 
ENDBRANCH  16  17
BRANCH  16  23
ATOM     23  C   LIG    1        1.345   1.899   0.096  0.00  0.00    -0.040 C 
ATOM     24  C   LIG    1       -0.170   1.608   0.214  0.00  0.00    +0.010 C 
ATOM     25  C   LIG    1       -0.253   0.072   0.310  0.00  0.00    +0.190 C 
ATOM     26  O   LIG    1        1.087  -0.436   0.202  0.00  0.00    -0.370 OA
ATOM     27  C   LIG    1        1.971   0.604   0.673  0.00  0.00    +0.220 C 
ENDBRANCH  16  23
ENDBRANCH   4  16
TORSDOF 5
