REMARK  Name = ZINCrD000000f0dL.0
REMARK                            x       y       z     vdW  Elec       q    Type
REMARK                         _______ _______ _______ _____ _____    ______ ____
ROOT
ATOM      1  N   LIG    1        1.448   1.942   0.074  0.00  0.00    -0.510 NA
ENDROOT
BRANCH   1   2
ATOM      2  C   LIG    1        0.045   1.506   0.103  0.00  0.00    +0.340 C 
BRANCH   2   7
ATOM      3 BR   LIG    1       -1.326   0.870   5.297  0.00  0.00    +0.060 Br
ATOM      4  C   LIG    1       -1.125   1.594   3.562  0.00  0.00    -0.030 A 
ATOM      5  C   LIG    1       -1.590   2.787   3.147  0.00  0.00    +0.010 A 
ATOM      6  C   LIG    1       -1.217   2.924   1.790  0.00  0.00    -0.040 A 
ATOM      7  C   LIG    1       -0.546   1.807   1.456  0.00  0.00    -0.030 A 
ATOM      8  O   LIG    1       -0.499   1.002   2.531  0.00  0.00    -0.160 OA
ENDBRANCH   2   7
ENDBRANCH   1   2
BRANCH   1   9
ATOM      9  C   LIG    1        2.251   1.198   1.053  0.00  0.00    +0.250 C 
BRANCH   9  10
ATOM     10  C   LIG    1        2.525  -0.188   0.528  0.00  0.00    -0.220 A 
ATOM     11  C   LIG    1        1.723  -1.256   0.896  0.00  0.00    +0.340 A 
ATOM     12  N   LIG    1        1.989  -2.459   0.415  0.00  0.00    -0.550 NA
ATOM     13  C   LIG    1        3.013  -2.650  -0.403  0.00  0.00    +0.490 A 
ATOM     14  N   LIG    1        3.803  -1.651  -0.771  0.00  0.00    -0.520 NA
ATOM     15  C   LIG    1        3.589  -0.423  -0.329  0.00  0.00    +0.370 A 
BRANCH  13  16
ATOM     16  N   LIG    1        3.266  -3.923  -0.885  0.00  0.00    -0.450 N 
ATOM     17  C   LIG    1        4.593  -4.411  -0.430  0.00  0.00    +0.200 C 
ATOM     18  C   LIG    1        4.479  -5.948  -0.588  0.00  0.00    +0.030 C 
ATOM     19  C   LIG    1        3.017  -6.231  -0.172  0.00  0.00    +0.020 C 
ATOM     20  C   LIG    1        2.279  -4.893  -0.362  0.00  0.00    +0.210 C 
ENDBRANCH  13  16
ENDBRANCH   9  10
ENDBRANCH   1   9
BRANCH   1  21
ATOM     21  C   LIG    1        1.553   3.390   0.298  0.00  0.00    +0.180 C 
BRANCH  21  22
ATOM     22  C   LIG    1        0.915   4.135  -0.876  0.00  0.00    +0.300 C 
BRANCH  22  23
ATOM     23  N   LIG    1        1.021   5.579  -0.653  0.00  0.00    -0.460 N 
ATOM     24  C   LIG    1        2.050   6.390  -1.050  0.00  0.00    +0.120 A 
ATOM     25  C   LIG    1        1.743   7.636  -0.643  0.00  0.00    +0.140 A 
ATOM     26  N   LIG    1        0.559   7.588  -0.015  0.00  0.00    -0.490 NA
ATOM     27  C   LIG    1        0.118   6.361  -0.022  0.00  0.00    +0.380 A 
ENDBRANCH  22  23
ENDBRANCH  21  22
ENDBRANCH   1  21
TORSDOF 8
