REMARK  Name = ZINCpk00000y6vYE.0
REMARK                            x       y       z     vdW  Elec       q    Type
REMARK                         _______ _______ _______ _____ _____    ______ ____
ROOT
ATOM      1  N   LIG    1       -5.144   0.887   0.484  0.00  0.00    -0.590 N 
ATOM      2  C   LIG    1       -5.302  -0.257   1.150  0.00  0.00    +0.520 C 
ATOM      3  C   LIG    1       -4.172  -1.191   1.474  0.00  0.00    +0.090 C 
ATOM      4  C   LIG    1       -2.834  -0.461   1.334  0.00  0.00    +0.050 C 
ATOM      5  C   LIG    1       -2.821   0.274  -0.012  0.00  0.00    +0.010 C 
ATOM      6  O   LIG    1       -6.419  -0.560   1.514  0.00  0.00    -0.540 OA
ATOM      7  C   LIG    1       -3.857   1.397   0.029  0.00  0.00    +0.360 C 
ENDROOT
BRANCH   7   8
ATOM      8  C   LIG    1       -4.012   1.982  -1.351  0.00  0.00    +0.180 A 
ATOM      9  N   LIG    1       -4.459   1.347  -2.400  0.00  0.00    -0.470 NA
ATOM     10  C   LIG    1       -4.460   2.179  -3.453  0.00  0.00    +0.140 A 
ATOM     11  C   LIG    1       -3.997   3.374  -3.040  0.00  0.00    +0.130 A 
ATOM     12  N   LIG    1       -3.718   3.252  -1.705  0.00  0.00    -0.440 N 
ATOM     13  C   LIG    1       -3.195   4.301  -0.826  0.00  0.00    +0.320 C 
ENDBRANCH   7   8
BRANCH   5  14
ATOM     14  C   LIG    1       -1.452   0.856  -0.256  0.00  0.00    +0.530 C 
ATOM     15  N   LIG    1       -0.378   0.046  -0.325  0.00  0.00    -0.660 N 
ATOM     16  H   LIG    1       -0.493  -0.916  -0.294  0.00  0.00    +0.420 HD
ATOM     17  O   LIG    1       -1.319   2.054  -0.392  0.00  0.00    -0.510 OA
BRANCH  15  18
ATOM     18  C   LIG    1        0.901   0.592  -0.447  0.00  0.00    +0.150 A 
ATOM     19  C   LIG    1        1.113   1.782  -1.146  0.00  0.00    +0.040 A 
ATOM     20  C   LIG    1        2.408   2.264  -1.225  0.00  0.00    +0.230 A 
ATOM     21  N   LIG    1        3.394   1.601  -0.650  0.00  0.00    -0.250 NA
ATOM     22  N   LIG    1        3.203   0.507  -0.008  0.00  0.00    -0.220 NA
ATOM     23  C   LIG    1        2.007  -0.029   0.129  0.00  0.00    +0.050 A 
ATOM     24  C   LIG    1        1.838  -1.313   0.900  0.00  0.00    +0.150 C 
ENDBRANCH  15  18
ENDBRANCH   5  14
BRANCH   1  26
ATOM     25  C   LIG    1       -6.665   2.576   1.389  0.00  0.00    +0.010 C 
ATOM     26  C   LIG    1       -6.340   1.682   0.191  0.00  0.00    +0.280 C 
ENDBRANCH   1  26
TORSDOF 4
