REMARK  Name = ZINCrD00000l2IZA.0
REMARK                            x       y       z     vdW  Elec       q    Type
REMARK                         _______ _______ _______ _____ _____    ______ ____
ROOT
ATOM      1  C   LIG    1        1.113  -0.857   0.027  0.00  0.00    -0.130 A 
ATOM      2  C   LIG    1       -0.123  -0.209   0.054  0.00  0.00    +0.050 A 
ATOM      3  C   LIG    1       -0.176   1.170   0.072  0.00  0.00    +0.000 A 
ATOM      4  C   LIG    1        0.993   1.910   0.065  0.00  0.00    +0.050 A 
ATOM      5  C   LIG    1        2.222   1.274   0.038  0.00  0.00    +0.000 A 
ATOM      6  C   LIG    1        2.288  -0.104   0.019  0.00  0.00    -0.040 A 
ENDROOT
BRANCH   1   9
ATOM      7  N   LIG    1        0.045  -3.058   0.117  0.00  0.00    -0.670 N 
ATOM      8  H   LIG    1       -0.817  -2.613   0.131  0.00  0.00    +0.410 HD
ATOM      9  C   LIG    1        1.176  -2.333   0.006  0.00  0.00    +0.560 C 
ATOM     10  O   LIG    1        2.248  -2.894  -0.110  0.00  0.00    -0.510 OA
BRANCH   7  14
ATOM     11  C   LIG    1        0.250  -7.209   0.395  0.00  0.00    -0.090 A 
ATOM     12  C   LIG    1        1.234  -6.429   0.975  0.00  0.00    +0.030 A 
ATOM     13  C   LIG    1        1.169  -5.053   0.884  0.00  0.00    +0.020 A 
ATOM     14  C   LIG    1        0.114  -4.452   0.210  0.00  0.00    +0.140 A 
ATOM     15  C   LIG    1       -0.875  -5.238  -0.366  0.00  0.00    -0.010 A 
ATOM     16  C   LIG    1       -0.801  -6.614  -0.277  0.00  0.00    +0.030 A 
BRANCH  11  17
ATOM     17  C   LIG    1        0.325  -8.711   0.496  0.00  0.00    +0.060 C 
BRANCH  17  18
ATOM     18  C   LIG    1       -0.408  -9.175   1.756  0.00  0.00    +0.010 C 
BRANCH  18  20
ATOM     19  C   LIG    1       -1.065 -11.164   3.118  0.00  0.00    +0.000 C 
ATOM     20  C   LIG    1       -0.332 -10.700   1.858  0.00  0.00    -0.010 C 
ENDBRANCH  18  20
ENDBRANCH  17  18
ENDBRANCH  11  17
ENDBRANCH   7  14
ENDBRANCH   1   9
BRANCH   6  21
ATOM     21  C   LIG    1        3.627  -0.795  -0.010  0.00  0.00    +0.410 C 
BRANCH  21  22
ATOM     22  N   LIG    1        4.691   0.205  -0.131  0.00  0.00    -0.580 N 
ATOM     23  C   LIG    1        5.367   0.721   0.914  0.00  0.00    +0.520 C 
ATOM     24  C   LIG    1        6.356   1.703   0.318  0.00  0.00    +0.320 C 
ATOM     25  N   LIG    1        6.099   1.617  -1.130  0.00  0.00    -0.730 N 
ATOM     26  H   LIG    1        6.553   2.112  -1.830  0.00  0.00    +0.440 HD
ATOM     27  O   LIG    1        5.215   0.456   2.087  0.00  0.00    -0.460 OA
ATOM     28  C   LIG    1        5.115   0.715  -1.294  0.00  0.00    +0.700 C 
ATOM     29  O   LIG    1        4.659   0.400  -2.375  0.00  0.00    -0.530 OA
ENDBRANCH  21  22
ENDBRANCH   6  21
TORSDOF 7
