REMARK  Name = ZINCrD000000D2J2.0
REMARK                            x       y       z     vdW  Elec       q    Type
REMARK                         _______ _______ _______ _____ _____    ______ ____
ROOT
ATOM      1  O   LIG    1        0.340  -2.203  -1.067  0.00  0.00    -0.950 OA
ATOM      2  S   LIG    1        0.371  -0.820  -1.391  0.00  0.00    +2.700 S 
ATOM      3  O   LIG    1       -0.426  -0.244  -2.417  0.00  0.00    -0.950 OA
ENDROOT
BRANCH   2   4
ATOM      4  C   LIG    1        2.045  -0.439  -1.790  0.00  0.00    -0.700 A 
ATOM      5  C   LIG    1        2.333   0.645  -2.598  0.00  0.00    +0.170 A 
ATOM      6  C   LIG    1        3.644   0.949  -2.908  0.00  0.00    -0.060 A 
ATOM      7  C   LIG    1        4.672   0.157  -2.417  0.00  0.00    +0.160 A 
ATOM      8  C   LIG    1        4.381  -0.934  -1.611  0.00  0.00    +0.010 A 
ATOM      9  C   LIG    1        3.068  -1.230  -1.300  0.00  0.00    +0.180 A 
BRANCH   7  10
ATOM     10  O   LIG    1        5.963   0.450  -2.725  0.00  0.00    -0.310 OA
BRANCH  10  11
ATOM     11  C   LIG    1        6.189   1.588  -3.560  0.00  0.00    +0.600 C 
ATOM     12  F   LIG    1        5.542   1.402  -4.787  0.00  0.00    -0.160 F 
ATOM     13  F   LIG    1        7.562   1.743  -3.776  0.00  0.00    -0.120 F 
ATOM     14  F   LIG    1        5.683   2.732  -2.934  0.00  0.00    -0.160 F 
ENDBRANCH  10  11
ENDBRANCH   7  10
ENDBRANCH   2   4
BRANCH   2  15
ATOM     15  N   LIG    1        0.002  -0.004   0.002  0.00  0.00    -1.120 NA
ATOM     16  H   LIG    1       -0.201  -0.496   0.813  0.00  0.00    +0.420 HD
BRANCH  15  17
ATOM     17  C   LIG    1       -0.018   1.461   0.010  0.00  0.00    +0.280 C 
BRANCH  17  18
ATOM     18  C   LIG    1       -0.734   1.954   1.269  0.00  0.00    +0.010 C 
BRANCH  18  19
ATOM     19  C   LIG    1       -0.755   3.484   1.277  0.00  0.00    +0.300 C 
BRANCH  19  20
ATOM     20  N   LIG    1       -1.440   3.957   2.483  0.00  0.00    -0.490 N 
ATOM     21  C   LIG    1       -2.752   4.303   2.581  0.00  0.00    +0.470 A 
ATOM     22  N   LIG    1       -3.028   4.673   3.797  0.00  0.00    -0.490 NA
ATOM     23  C   LIG    1       -1.907   4.600   4.561  0.00  0.00    +0.040 A 
ATOM     24  C   LIG    1       -1.637   4.877   5.903  0.00  0.00    +0.070 A 
ATOM     25  C   LIG    1       -0.374   4.699   6.394  0.00  0.00    +0.000 A 
ATOM     26  C   LIG    1        0.647   4.244   5.572  0.00  0.00    +0.030 A 
ATOM     27  C   LIG    1        0.403   3.964   4.244  0.00  0.00    +0.010 A 
ATOM     28  C   LIG    1       -0.874   4.139   3.728  0.00  0.00    +0.050 A 
ENDBRANCH  19  20
ENDBRANCH  18  19
ENDBRANCH  17  18
ENDBRANCH  15  17
ENDBRANCH   2  15
TORSDOF 8
