REMARK  Name = ZINCqH0000037Y9s.0
REMARK                            x       y       z     vdW  Elec       q    Type
REMARK                         _______ _______ _______ _____ _____    ______ ____
ROOT
ATOM      1  C   LIG    1       -1.349  -0.534  -0.151  0.00  0.00    +0.510 C 
ATOM      2  N   LIG    1       -0.256   0.229  -0.347  0.00  0.00    -0.680 N 
ATOM      3  H   LIG    1        0.618  -0.185  -0.419  0.00  0.00    +0.410 HD
ATOM      4  O   LIG    1       -2.451  -0.028  -0.154  0.00  0.00    -0.490 OA
ENDROOT
BRANCH   2   5
ATOM      5  C   LIG    1       -0.382   1.619  -0.447  0.00  0.00    +0.140 A 
ATOM      6  C   LIG    1        0.475   2.337  -1.273  0.00  0.00    +0.010 A 
ATOM      7  C   LIG    1        0.351   3.710  -1.378  0.00  0.00    +0.030 A 
ATOM      8  C   LIG    1       -0.617   4.378  -0.657  0.00  0.00    +0.030 A 
ATOM      9  C   LIG    1       -1.479   3.667   0.180  0.00  0.00    -0.120 A 
ATOM     10  C   LIG    1       -1.358   2.281   0.282  0.00  0.00    +0.090 A 
BRANCH   9  11
ATOM     11  C   LIG    1       -2.517   4.380   0.955  0.00  0.00    +0.560 C 
ATOM     12  O   LIG    1       -3.267   3.758   1.683  0.00  0.00    -0.530 OA
ATOM     13  N   LIG    1       -2.633   5.719   0.854  0.00  0.00    -0.850 N 
ATOM     14  H   LIG    1       -3.313   6.186   1.362  0.00  0.00    +0.410 HD
ATOM     15  H   LIG    1       -2.035   6.215   0.273  0.00  0.00    +0.400 HD
ENDBRANCH   9  11
ENDBRANCH   2   5
BRANCH   1  16
ATOM     16  C   LIG    1       -1.202  -2.018   0.071  0.00  0.00    +0.170 C 
BRANCH  16  19
ATOM     17  C   LIG    1       -4.552  -2.808   1.258  0.00  0.00    +0.130 A 
ATOM     18  N   LIG    1       -3.399  -2.208   1.182  0.00  0.00    -0.430 NA
ATOM     19  C   LIG    1       -2.564  -2.634   0.263  0.00  0.00    +0.080 A 
ATOM     20  C   LIG    1       -2.994  -3.653  -0.489  0.00  0.00    -0.070 A 
ATOM     21  S   LIG    1       -4.620  -4.081   0.042  0.00  0.00    +0.090 S 
BRANCH  17  26
ATOM     22  C   LIG    1       -8.746  -1.525   4.984  0.00  0.00    +0.090 C 
ATOM     23  C   LIG    1       -7.648  -1.861   4.008  0.00  0.00    -0.060 A 
ATOM     24  C   LIG    1       -7.948  -2.044   2.670  0.00  0.00    +0.000 A 
ATOM     25  C   LIG    1       -6.947  -2.352   1.772  0.00  0.00    +0.050 A 
ATOM     26  C   LIG    1       -5.630  -2.478   2.216  0.00  0.00    -0.040 A 
ATOM     27  C   LIG    1       -5.335  -2.298   3.568  0.00  0.00    -0.030 A 
ATOM     28  C   LIG    1       -3.916  -2.438   4.057  0.00  0.00    +0.090 C 
ATOM     29  C   LIG    1       -6.344  -1.985   4.455  0.00  0.00    +0.010 A 
ENDBRANCH  17  26
ENDBRANCH  16  19
ENDBRANCH   1  16
TORSDOF 5
