REMARK  Name = ZINCpk00000xPntW.0
REMARK                            x       y       z     vdW  Elec       q    Type
REMARK                         _______ _______ _______ _____ _____    ______ ____
ROOT
ATOM      1  C   LIG    1       -0.222  -3.089  -1.600  0.00  0.00    +0.150 C 
ATOM      2  C   LIG    1       -1.565  -3.816  -1.714  0.00  0.00    +0.160 C 
ATOM      3  N   LIG    1       -1.824  -4.135  -3.126  0.00  0.00    -0.520 NA
ATOM      4  C   LIG    1       -0.748  -4.971  -3.678  0.00  0.00    +0.140 C 
ATOM      5  C   LIG    1        0.586  -4.231  -3.544  0.00  0.00    +0.230 C 
ATOM      6  O   LIG    1        0.806  -3.903  -2.169  0.00  0.00    -0.370 OA
ENDROOT
BRANCH   1   7
ATOM      7  C   LIG    1        0.092  -2.826  -0.126  0.00  0.00    +0.310 C 
BRANCH   7   9
ATOM      8  C   LIG    1        2.618  -2.694   0.073  0.00  0.00    +0.310 C 
ATOM      9  N   LIG    1        1.316  -2.028  -0.022  0.00  0.00    -0.590 N 
BRANCH   9  10
ATOM     10  C   LIG    1        1.243  -0.640  -0.013  0.00  0.00    +0.340 A 
ATOM     11  C   LIG    1        0.002  -0.004   0.002  0.00  0.00    -0.050 A 
ATOM     12  C   LIG    1       -0.017   1.382   0.010  0.00  0.00    +0.070 A 
ATOM     13  C   LIG    1        1.199   2.051   0.002  0.00  0.00    +0.150 A 
ATOM     14  N   LIG    1        2.327   1.369  -0.013  0.00  0.00    -0.200 NA
ATOM     15  N   LIG    1        2.352   0.086  -0.020  0.00  0.00    -0.300 NA
ENDBRANCH   9  10
ENDBRANCH   7   9
ENDBRANCH   1   7
BRANCH   3  16
ATOM     16  C   LIG    1       -3.131  -4.785  -3.287  0.00  0.00    +0.160 C 
BRANCH  16  17
ATOM     17  C   LIG    1       -3.473  -4.882  -4.775  0.00  0.00    +0.270 C 
BRANCH  17  18
ATOM     18  C   LIG    1       -4.814  -5.550  -4.941  0.00  0.00    -0.130 A 
ATOM     19  C   LIG    1       -5.973  -4.801  -4.853  0.00  0.00    +0.050 A 
ATOM     20  C   LIG    1       -7.203  -5.411  -5.010  0.00  0.00    -0.010 A 
ATOM     21  C   LIG    1       -7.275  -6.774  -5.243  0.00  0.00    +0.100 A 
ATOM     22  C   LIG    1       -6.114  -7.523  -5.325  0.00  0.00    -0.010 A 
ATOM     23  F   LIG    1       -8.477  -7.372  -5.391  0.00  0.00    -0.140 F 
ATOM     24  C   LIG    1       -4.884  -6.910  -5.174  0.00  0.00    +0.050 A 
ENDBRANCH  17  18
BRANCH  17  25
ATOM     25  O   LIG    1       -3.521  -3.570  -5.339  0.00  0.00    -0.540 OA
ATOM     26  H   LIG    1       -4.180  -2.991  -4.932  0.00  0.00    +0.370 HD
ENDBRANCH  17  25
ENDBRANCH  16  17
ENDBRANCH   3  16
TORSDOF 7
