REMARK  Name = ZINCtV00001bB3OU.0
REMARK                            x       y       z     vdW  Elec       q    Type
REMARK                         _______ _______ _______ _____ _____    ______ ____
ROOT
ATOM      1  N   LIG    1        0.114   5.753   1.328  0.00  0.00    -0.530 NA
ATOM      2  C   LIG    1       -0.814   6.281   0.553  0.00  0.00    +0.350 A 
ATOM      3  S   LIG    1       -2.224   5.465  -0.149  0.00  0.00    +0.020 S 
ATOM      4  C   LIG    1       -2.828   6.911  -0.978  0.00  0.00    -0.030 A 
ATOM      5  C   LIG    1       -1.960   7.888  -0.685  0.00  0.00    +0.180 A 
ATOM      6  N   LIG    1       -0.900   7.576   0.122  0.00  0.00    -0.360 N 
ENDROOT
BRANCH   1  12
ATOM      7  C   LIG    1        2.350   1.436   1.898  0.00  0.00    +0.090 C 
ATOM      8  C   LIG    1        1.117   2.300   1.960  0.00  0.00    -0.070 A 
ATOM      9  C   LIG    1       -0.088   1.754   2.366  0.00  0.00    -0.010 A 
ATOM     10  C   LIG    1       -1.227   2.538   2.421  0.00  0.00    +0.040 A 
ATOM     11  C   LIG    1       -1.167   3.873   2.081  0.00  0.00    -0.040 A 
ATOM     12  C   LIG    1        0.047   4.432   1.671  0.00  0.00    +0.120 A 
ATOM     13  C   LIG    1        1.192   3.633   1.613  0.00  0.00    +0.020 A 
ENDBRANCH   1  12
BRANCH   5  14
ATOM     14  C   LIG    1       -2.144   9.258  -1.211  0.00  0.00    -0.040 A 
ATOM     15  C   LIG    1       -2.120  10.351  -0.343  0.00  0.00    +0.050 A 
ATOM     16  C   LIG    1       -2.287  11.627  -0.841  0.00  0.00    +0.010 A 
ATOM     17  C   LIG    1       -2.489  11.823  -2.196  0.00  0.00    +0.030 A 
ATOM     18  C   LIG    1       -2.520  10.743  -3.060  0.00  0.00    +0.010 A 
ATOM     19  C   LIG    1       -2.349   9.463  -2.576  0.00  0.00    +0.040 A 
ENDBRANCH   5  14
BRANCH   6  20
ATOM     20  N   LIG    1        0.054   8.536   0.486  0.00  0.00    -0.260 NA
ATOM     21  C   LIG    1        1.116   8.180   1.142  0.00  0.00    +0.320 C 
BRANCH  21  22
ATOM     22  C   LIG    1        2.050   9.203   1.645  0.00  0.00    -0.080 A 
ATOM     23  C   LIG    1        3.132   8.833   2.447  0.00  0.00    +0.060 A 
ATOM     24  C   LIG    1        4.003   9.796   2.914  0.00  0.00    +0.000 A 
ATOM     25  C   LIG    1        3.805  11.127   2.589  0.00  0.00    -0.060 A 
ATOM     26  C   LIG    1        2.735  11.501   1.796  0.00  0.00    +0.000 A 
ATOM     27  C   LIG    1        4.761  12.173   3.103  0.00  0.00    +0.090 C 
ATOM     28  C   LIG    1        1.860  10.549   1.317  0.00  0.00    -0.040 A 
ATOM     29  C   LIG    1        0.699  10.957   0.448  0.00  0.00    +0.120 C 
ENDBRANCH  21  22
ENDBRANCH   6  20
TORSDOF 4
