REMARK  Name = ZINCrH000004nA3t.0
REMARK                            x       y       z     vdW  Elec       q    Type
REMARK                         _______ _______ _______ _____ _____    ______ ____
ROOT
ATOM      1  N   LIG    1        4.037   2.616   1.325  0.00  0.00    -0.740 N 
ATOM      2  H   LIG    1        3.436   2.396   2.054  0.00  0.00    +0.390 HD
ATOM      3  C   LIG    1        5.153   3.334   1.566  0.00  0.00    +0.710 C 
ATOM      4  N   LIG    1        5.432   3.745   2.819  0.00  0.00    -0.610 N 
ATOM      5  C   LIG    1        4.514   3.398   3.881  0.00  0.00    +0.260 C 
ATOM      6  C   LIG    1        3.456   4.520   4.038  0.00  0.00    +0.020 C 
ATOM      7  C   LIG    1        4.093   5.732   4.586  0.00  0.00    +0.170 C 
ATOM      8  N   LIG    1        5.133   6.307   3.733  0.00  0.00    -0.520 NA
ATOM      9  C   LIG    1        6.417   5.702   4.016  0.00  0.00    +0.170 C 
ATOM     10  C   LIG    1        6.667   4.526   3.047  0.00  0.00    +0.290 C 
ATOM     11  O   LIG    1        5.906   3.611   0.653  0.00  0.00    -0.590 OA
ENDROOT
BRANCH   1  12
ATOM     12  C   LIG    1        3.733   2.170  -0.036  0.00  0.00    +0.340 C 
BRANCH  12  18
ATOM     13  C   LIG    1        1.228   2.064  -0.019  0.00  0.00    +0.150 A 
ATOM     14  C   LIG    1        0.041   1.346  -0.016  0.00  0.00    -0.080 A 
ATOM     15  C   LIG    1        0.070  -0.035  -0.027  0.00  0.00    +0.060 A 
ATOM     16  C   LIG    1        1.282  -0.702  -0.041  0.00  0.00    -0.030 A 
ATOM     17  C   LIG    1        2.466   0.012  -0.044  0.00  0.00    +0.070 A 
ATOM     18  C   LIG    1        2.442   1.393  -0.033  0.00  0.00    -0.140 A 
BRANCH  13  20
ATOM     19  C   LIG    1       -0.084   4.047   0.005  0.00  0.00    +0.250 C 
ATOM     20  O   LIG    1        1.202   3.423  -0.009  0.00  0.00    -0.310 OA
ENDBRANCH  13  20
ENDBRANCH  12  18
ENDBRANCH   1  12
BRANCH   8  21
ATOM     21  C   LIG    1        5.193   7.766   3.886  0.00  0.00    +0.270 C 
BRANCH  21  22
ATOM     22  C   LIG    1        5.628   8.106   5.288  0.00  0.00    -0.120 A 
ATOM     23  C   LIG    1        4.691   8.187   6.302  0.00  0.00    +0.030 A 
ATOM     24  C   LIG    1        5.090   8.494   7.589  0.00  0.00    +0.020 A 
ATOM     25  C   LIG    1        6.426   8.732   7.861  0.00  0.00    -0.030 A 
ATOM     26  C   LIG    1        7.362   8.656   6.845  0.00  0.00    +0.020 A 
ATOM     27 CL   LIG    1        6.926   9.125   9.476  0.00  0.00    -0.070 Cl
ATOM     28  C   LIG    1        6.963   8.343   5.560  0.00  0.00    +0.030 A 
ENDBRANCH  21  22
ENDBRANCH   8  21
TORSDOF 5
