REMARK  Name = ZINCrD000000AErQ.0
REMARK                            x       y       z     vdW  Elec       q    Type
REMARK                         _______ _______ _______ _____ _____    ______ ____
ROOT
ATOM      1  O   LIG    1       -1.204   2.837   0.023  0.00  0.00    -0.520 OA
ATOM      2  C   LIG    1       -1.187   1.624   0.017  0.00  0.00    +0.500 C 
ATOM      3  N   LIG    1       -0.011   0.966   0.007  0.00  0.00    -0.720 N 
ATOM      4  H   LIG    1        0.002  -0.004   0.002  0.00  0.00    +0.400 HD
ENDROOT
BRANCH   3   5
ATOM      5  C   LIG    1        1.248   1.716  -0.001  0.00  0.00    +0.340 C 
BRANCH   5   6
ATOM      6  C   LIG    1        2.332   0.870  -0.616  0.00  0.00    -0.090 A 
ATOM      7  C   LIG    1        2.404  -0.480  -0.327  0.00  0.00    +0.010 A 
ATOM      8  C   LIG    1        3.396  -1.257  -0.895  0.00  0.00    +0.020 A 
ATOM      9  C   LIG    1        4.323  -0.682  -1.744  0.00  0.00    +0.010 A 
ATOM     10  C   LIG    1        4.254   0.668  -2.030  0.00  0.00    +0.020 A 
ATOM     11  C   LIG    1        3.259   1.444  -1.466  0.00  0.00    +0.020 A 
ENDBRANCH   5   6
BRANCH   5  12
ATOM     12  C   LIG    1        1.629   2.071   1.413  0.00  0.00    -0.090 A 
ATOM     13  C   LIG    1        1.438   1.157   2.432  0.00  0.00    +0.020 A 
ATOM     14  C   LIG    1        1.793   1.481   3.728  0.00  0.00    +0.000 A 
ATOM     15  C   LIG    1        2.329   2.724   4.007  0.00  0.00    +0.000 A 
ATOM     16  C   LIG    1        2.515   3.641   2.989  0.00  0.00    +0.000 A 
ATOM     17  C   LIG    1        2.165   3.315   1.692  0.00  0.00    +0.020 A 
ENDBRANCH   5  12
ENDBRANCH   3   5
BRANCH   2  18
ATOM     18  C   LIG    1       -2.482   0.853   0.018  0.00  0.00    +0.330 C 
BRANCH  18  19
ATOM     19  N   LIG    1       -3.608   1.789   0.029  0.00  0.00    -0.520 N 
ATOM     20  C   LIG    1       -4.125   2.210   1.212  0.00  0.00    +0.600 A 
ATOM     21  N   LIG    1       -5.120   3.046   1.268  0.00  0.00    -0.500 NA
ATOM     22  C   LIG    1       -5.702   3.531   0.150  0.00  0.00    +0.070 A 
ATOM     23  C   LIG    1       -5.228   3.138  -1.098  0.00  0.00    -0.230 A 
ATOM     24  C   LIG    1       -5.966   3.753  -2.182  0.00  0.00    +0.080 A 
ATOM     25  C   LIG    1       -6.939   4.561  -1.801  0.00  0.00    -0.050 A 
ATOM     26  S   LIG    1       -7.046   4.648  -0.053  0.00  0.00    +0.200 S 
ATOM     27  C   LIG    1       -4.129   2.224  -1.135  0.00  0.00    +0.570 A 
ATOM     28  O   LIG    1       -3.672   1.846  -2.200  0.00  0.00    -0.520 OA
ENDBRANCH  18  19
ENDBRANCH   2  18
TORSDOF 5
