REMARK  Name = ZINCrg000000tcVP.0
REMARK                            x       y       z     vdW  Elec       q    Type
REMARK                         _______ _______ _______ _____ _____    ______ ____
ROOT
ATOM      1  O   LIG    1       -1.736   2.268  -1.088  0.00  0.00    -0.520 OA
ATOM      2  C   LIG    1       -0.742   1.585  -1.213  0.00  0.00    +0.520 C 
ATOM      3  N   LIG    1       -0.288   1.272  -2.443  0.00  0.00    -0.620 N 
ATOM      4  C   LIG    1        0.919   0.450  -2.616  0.00  0.00    +0.280 C 
ATOM      5  C   LIG    1        0.584  -0.702  -3.577  0.00  0.00    +0.160 C 
ATOM      6  N   LIG    1        0.025  -0.150  -4.819  0.00  0.00    -0.530 NA
ATOM      7  C   LIG    1       -1.242   0.551  -4.568  0.00  0.00    +0.170 C 
ATOM      8  C   LIG    1       -0.985   1.749  -3.648  0.00  0.00    +0.300 C 
ENDROOT
BRANCH   6   9
ATOM      9  C   LIG    1       -0.147  -1.201  -5.831  0.00  0.00    +0.240 C 
BRANCH   9  10
ATOM     10  C   LIG    1        1.095  -2.053  -5.886  0.00  0.00    -0.070 A 
ATOM     11  C   LIG    1        2.123  -1.720  -6.747  0.00  0.00    +0.070 A 
ATOM     12  C   LIG    1        3.266  -2.498  -6.796  0.00  0.00    -0.030 A 
ATOM     13  C   LIG    1        3.377  -3.622  -5.990  0.00  0.00    +0.060 A 
ATOM     14  O   LIG    1        4.503  -4.384  -6.056  0.00  0.00    -0.290 OA
ATOM     15  C   LIG    1        4.736  -5.284  -4.968  0.00  0.00    +0.230 C 
ATOM     16  C   LIG    1        3.426  -6.024  -4.667  0.00  0.00    +0.230 C 
ATOM     17  O   LIG    1        2.432  -5.053  -4.323  0.00  0.00    -0.300 OA
ATOM     18  C   LIG    1        2.341  -3.958  -5.127  0.00  0.00    +0.060 A 
ATOM     19 CL   LIG    1        4.558  -2.073  -7.875  0.00  0.00    -0.050 Cl
ATOM     20  C   LIG    1        1.200  -3.170  -5.078  0.00  0.00    +0.030 A 
ENDBRANCH   9  10
ENDBRANCH   6   9
BRANCH   2  21
ATOM     21  C   LIG    1       -0.013   1.086   0.008  0.00  0.00    +0.210 C 
BRANCH  21  22
ATOM     22  N   LIG    1       -0.700   1.560   1.217  0.00  0.00    -0.520 NA
ATOM     23  C   LIG    1       -0.608   3.022   1.336  0.00  0.00    +0.150 C 
ATOM     24  C   LIG    1       -1.387   3.478   2.573  0.00  0.00    +0.230 C 
ATOM     25  O   LIG    1       -0.873   2.807   3.727  0.00  0.00    -0.390 OA
ATOM     26  C   LIG    1       -0.948   1.381   3.645  0.00  0.00    +0.220 C 
ATOM     27  C   LIG    1       -0.165   0.904   2.419  0.00  0.00    +0.160 C 
ENDBRANCH  21  22
ENDBRANCH   2  21
TORSDOF 4
