REMARK  Name = ZINCpk000000nWGe.0
REMARK                            x       y       z     vdW  Elec       q    Type
REMARK                         _______ _______ _______ _____ _____    ______ ____
ROOT
ATOM      1  C   LIG    1       -0.789   3.193  -7.806  0.00  0.00    +0.060 C 
ATOM      2  C   LIG    1       -2.110   2.456  -7.572  0.00  0.00    -0.090 C 
ATOM      3  C   LIG    1       -2.607   2.491  -6.118  0.00  0.00    +0.270 C 
ATOM      4  N   LIG    1       -1.794   1.291  -5.868  0.00  0.00    -0.660 N 
ATOM      5  C   LIG    1       -1.181   0.739  -4.803  0.00  0.00    +0.730 C 
ATOM      6  N   LIG    1       -1.246   1.343  -3.600  0.00  0.00    -0.740 N 
ATOM      7  H   LIG    1       -1.734   2.175  -3.501  0.00  0.00    +0.400 HD
ATOM      8  O   LIG    1       -0.569  -0.305  -4.927  0.00  0.00    -0.570 OA
ATOM      9  C   LIG    1       -3.182   2.790  -8.611  0.00  0.00    +0.050 C 
ATOM     10  C   LIG    1       -1.951   0.955  -7.291  0.00  0.00    +0.310 C 
ENDROOT
BRANCH  10  11
ATOM     11  C   LIG    1       -0.713   0.357  -7.907  0.00  0.00    -0.150 A 
ATOM     12  C   LIG    1       -0.799  -0.395  -9.069  0.00  0.00    +0.070 A 
ATOM     13  C   LIG    1        0.367  -0.921  -9.602  0.00  0.00    -0.040 A 
ATOM     14  C   LIG    1        1.567  -0.691  -8.957  0.00  0.00    +0.250 A 
ATOM     15  N   LIG    1        1.611   0.025  -7.850  0.00  0.00    -0.490 NA
ATOM     16  C   LIG    1        0.523   0.546  -7.318  0.00  0.00    +0.300 A 
ENDBRANCH  10  11
BRANCH   6  17
ATOM     17  C   LIG    1       -0.579   0.742  -2.442  0.00  0.00    +0.290 C 
BRANCH  17  18
ATOM     18  C   LIG    1       -0.806   1.621  -1.210  0.00  0.00    -0.020 C 
ATOM     19  C   LIG    1       -2.269   1.504  -0.705  0.00  0.00    +0.040 C 
ATOM     20  C   LIG    1       -2.143   1.837   0.797  0.00  0.00    +0.270 C 
ATOM     21  N   LIG    1       -0.746   1.583   1.187  0.00  0.00    -1.020 NA
ATOM     22  C   LIG    1       -0.013   1.086   0.008  0.00  0.00    +0.290 C 
BRANCH  21  23
ATOM     23  S   LIG    1       -0.103   1.815   2.695  0.00  0.00    +2.630 S 
ATOM     24  O   LIG    1        0.988   0.907   2.755  0.00  0.00    -0.950 OA
ATOM     25  O   LIG    1       -1.213   1.684   3.573  0.00  0.00    -0.950 OA
ATOM     26  C   LIG    1        0.493   3.527   2.675  0.00  0.00    -0.280 C 
ENDBRANCH  21  23
ENDBRANCH  17  18
ENDBRANCH   6  17
TORSDOF 4
