REMARK  Name = ZINCrD0000073sGH.0
REMARK                            x       y       z     vdW  Elec       q    Type
REMARK                         _______ _______ _______ _____ _____    ______ ____
ROOT
ATOM      1  N   LIG    1       -0.094   6.123  -1.347  0.00  0.00    -0.380 N 
ATOM      2  N   LIG    1       -1.236   6.388  -2.112  0.00  0.00    -0.280 NA
ATOM      3  C   LIG    1       -0.855   6.815  -3.289  0.00  0.00    +0.250 A 
ATOM      4  C   LIG    1        0.541   6.840  -3.320  0.00  0.00    -0.100 A 
ATOM      5  C   LIG    1        0.993   6.414  -2.107  0.00  0.00    +0.300 A 
ENDROOT
BRANCH   5   6
ATOM      6  N   LIG    1        2.326   6.296  -1.720  0.00  0.00    -0.650 N 
ATOM      7  H   LIG    1        2.546   5.979  -0.830  0.00  0.00    +0.410 HD
ATOM      8  C   LIG    1        3.310   6.621  -2.582  0.00  0.00    +0.580 C 
ATOM      9  O   LIG    1        3.034   7.019  -3.699  0.00  0.00    -0.500 OA
BRANCH   8  10
ATOM     10  C   LIG    1        4.709   6.497  -2.175  0.00  0.00    -0.250 C 
ATOM     11  C   LIG    1        5.701   6.819  -3.042  0.00  0.00    +0.180 C 
ATOM     12  C   LIG    1        7.091   6.661  -2.585  0.00  0.00    -0.160 A 
ATOM     13  C   LIG    1        8.152   7.268  -3.255  0.00  0.00    +0.090 A 
ATOM     14  C   LIG    1        9.440   7.088  -2.793  0.00  0.00    -0.020 A 
ATOM     15  C   LIG    1        9.678   6.309  -1.672  0.00  0.00    +0.070 A 
ATOM     16  C   LIG    1        8.633   5.702  -1.000  0.00  0.00    -0.010 A 
ATOM     17  C   LIG    1        7.336   5.871  -1.448  0.00  0.00    +0.140 A 
ATOM     18  O   LIG    1        6.289   5.290  -0.812  0.00  0.00    -0.300 OA
ATOM     19  C   LIG    1        5.054   6.006  -0.793  0.00  0.00    +0.300 C 
ENDBRANCH   8  10
ENDBRANCH   5   6
BRANCH   1  20
ATOM     20  C   LIG    1       -0.074   5.628   0.032  0.00  0.00    +0.380 C 
BRANCH  20  24
ATOM     21  C   LIG    1       -0.016   1.355   0.009  0.00  0.00    +0.140 A 
ATOM     22  C   LIG    1       -1.226   2.033   0.019  0.00  0.00    -0.080 A 
ATOM     23  C   LIG    1       -1.242   3.414   0.031  0.00  0.00    +0.080 A 
ATOM     24  C   LIG    1       -0.054   4.121   0.024  0.00  0.00    -0.160 A 
ATOM     25  C   LIG    1        1.153   3.447   0.009  0.00  0.00    +0.060 A 
ATOM     26  C   LIG    1        1.175   2.066   0.002  0.00  0.00    -0.010 A 
BRANCH  21  28
ATOM     27  C   LIG    1       -1.262  -0.670   0.011  0.00  0.00    +0.250 C 
ATOM     28  O   LIG    1        0.002  -0.004   0.002  0.00  0.00    -0.320 OA
ENDBRANCH  21  28
ENDBRANCH  20  24
ENDBRANCH   1  20
TORSDOF 5
