REMARK  Name = ZINCrg000000qKqr.0
REMARK                            x       y       z     vdW  Elec       q    Type
REMARK                         _______ _______ _______ _____ _____    ______ ____
ROOT
ATOM      1  C   LIG    1       -3.906  -1.741   2.094  0.00  0.00    +0.510 C 
ATOM      2  N   LIG    1       -3.426  -0.970   1.098  0.00  0.00    -0.610 N 
ATOM      3  C   LIG    1       -4.218  -0.738  -0.117  0.00  0.00    +0.260 C 
ATOM      4  C   LIG    1       -3.369  -1.108  -1.337  0.00  0.00    +0.020 C 
ATOM      5  C   LIG    1       -2.049  -0.335  -1.289  0.00  0.00    +0.010 C 
ATOM      6  C   LIG    1       -1.275  -0.721  -0.027  0.00  0.00    +0.230 C 
ATOM      7  C   LIG    1       -2.100  -0.346   1.208  0.00  0.00    +0.280 C 
ATOM      8  O   LIG    1       -3.243  -1.926   3.092  0.00  0.00    -0.540 OA
ENDROOT
BRANCH   6   9
ATOM      9  N   LIG    1        0.002  -0.004   0.002  0.00  0.00    -0.600 N 
ATOM     10  C   LIG    1        1.238  -0.781   0.022  0.00  0.00    +0.280 C 
ATOM     11  C   LIG    1        2.417   0.099  -0.398  0.00  0.00    +0.180 C 
ATOM     12  N   LIG    1        2.387   1.339   0.395  0.00  0.00    -0.680 NA
ATOM     13  H   LIG    1        3.250   1.852   0.296  0.00  0.00    +0.360 HD
ATOM     14  C   LIG    1        1.236   2.163   0.002  0.00  0.00    +0.230 C 
ATOM     15  C   LIG    1       -0.016   1.333   0.009  0.00  0.00    +0.520 C 
ATOM     16  O   LIG    1       -1.088   1.899   0.018  0.00  0.00    -0.540 OA
ENDBRANCH   6   9
BRANCH   1  17
ATOM     17  C   LIG    1       -5.268  -2.375   1.966  0.00  0.00    +0.060 C 
BRANCH  17  18
ATOM     18  C   LIG    1       -5.569  -3.193   3.224  0.00  0.00    +0.100 C 
BRANCH  18  22
ATOM     19  C   LIG    1       -9.430  -4.996   2.859  0.00  0.00    +0.100 A 
ATOM     20  C   LIG    1       -8.304  -5.666   2.410  0.00  0.00    -0.030 A 
ATOM     21  C   LIG    1       -7.057  -5.081   2.530  0.00  0.00    +0.020 A 
ATOM     22  C   LIG    1       -6.931  -3.826   3.096  0.00  0.00    -0.080 A 
ATOM     23  C   LIG    1       -8.050  -3.154   3.551  0.00  0.00    -0.030 A 
ATOM     24  C   LIG    1       -9.303  -3.732   3.429  0.00  0.00    +0.100 A 
BRANCH  19  26
ATOM     25  C   LIG    1      -10.712  -6.869   2.148  0.00  0.00    +0.240 C 
ATOM     26  O   LIG    1      -10.657  -5.570   2.743  0.00  0.00    -0.310 OA
ENDBRANCH  19  26
BRANCH  24  27
ATOM     27  O   LIG    1      -10.405  -3.070   3.871  0.00  0.00    -0.310 OA
ATOM     28  C   LIG    1      -10.199  -1.778   4.446  0.00  0.00    +0.240 C 
ENDBRANCH  24  27
ENDBRANCH  18  22
ENDBRANCH  17  18
ENDBRANCH   1  17
TORSDOF 6
