REMARK  Name = ZINCqH0000005Am7.0
REMARK                            x       y       z     vdW  Elec       q    Type
REMARK                         _______ _______ _______ _____ _____    ______ ____
ROOT
ATOM      1  C   LIG    1       -0.711   1.590  -1.251  0.00  0.00    +0.010 C 
ATOM      2  C   LIG    1        0.008   1.126   0.032  0.00  0.00    +0.080 C 
ATOM      3  C   LIG    1       -0.709   1.607   1.308  0.00  0.00    +0.200 C 
ATOM      4  N   LIG    1       -2.142   1.497   1.198  0.00  0.00    -0.480 N 
ATOM      5  C   LIG    1       -2.705   2.801   0.789  0.00  0.00    +0.220 C 
ATOM      6  C   LIG    1       -2.651   3.017  -0.652  0.00  0.00    +0.050 C 
ATOM      7  C   LIG    1       -1.196   3.013  -1.173  0.00  0.00    +0.300 C 
ATOM      8  F   LIG    1       -1.152   3.593  -2.445  0.00  0.00    -0.190 F 
ATOM      9  F   LIG    1       -0.382   3.737  -0.296  0.00  0.00    -0.190 F 
ENDROOT
BRANCH   4  10
ATOM     10  C   LIG    1       -2.698   1.069   2.386  0.00  0.00    +0.400 A 
ATOM     11  N   LIG    1       -2.996   1.931   3.348  0.00  0.00    -0.560 NA
ATOM     12  C   LIG    1       -3.531   1.532   4.492  0.00  0.00    +0.510 A 
ATOM     13  N   LIG    1       -3.801   0.276   4.754  0.00  0.00    -0.510 NA
ATOM     14  C   LIG    1       -3.540  -0.680   3.849  0.00  0.00    +0.160 A 
ATOM     15  C   LIG    1       -3.818  -2.031   4.100  0.00  0.00    +0.070 A 
ATOM     16  C   LIG    1       -3.551  -2.966   3.147  0.00  0.00    +0.050 A 
ATOM     17  C   LIG    1       -2.986  -2.602   1.920  0.00  0.00    -0.100 A 
ATOM     18  C   LIG    1       -2.696  -1.280   1.646  0.00  0.00    +0.110 A 
ATOM     19  C   LIG    1       -2.972  -0.303   2.607  0.00  0.00    -0.130 A 
BRANCH  17  20
ATOM     20  S   LIG    1       -2.642  -3.840   0.715  0.00  0.00    -0.090 S 
ATOM     21  C   LIG    1       -3.187  -5.366   1.531  0.00  0.00    +0.140 C 
ENDBRANCH  17  20
ENDBRANCH   4  10
BRANCH   1  22
ATOM     22  C   LIG    1        0.256   1.466  -2.430  0.00  0.00    +0.110 C 
BRANCH  22  23
ATOM     23  C   LIG    1        0.592   0.014  -2.654  0.00  0.00    +0.460 C 
ATOM     24  O   LIG    1        0.107  -0.835  -1.944  0.00  0.00    -0.500 OA
BRANCH  23  26
ATOM     25  C   LIG    1        1.707  -1.753  -3.800  0.00  0.00    +0.260 C 
ATOM     26  O   LIG    1        1.429  -0.337  -3.643  0.00  0.00    -0.360 OA
ENDBRANCH  23  26
ENDBRANCH  22  23
ENDBRANCH   1  22
TORSDOF 5
