REMARK  Name = ZINCrg00000SjSIA.0
REMARK                            x       y       z     vdW  Elec       q    Type
REMARK                         _______ _______ _______ _____ _____    ______ ____
ROOT
ATOM      1  C   LIG    1       -9.952   2.229   2.064  0.00  0.00    +0.050 C 
ATOM      2  C   LIG    1       -9.061   2.539   3.269  0.00  0.00    +0.250 C 
ATOM      3  C   LIG    1       -9.662   3.700   4.070  0.00  0.00    +0.150 C 
ATOM      4  O   LIG    1       -9.590   4.896   3.291  0.00  0.00    -0.350 OA
ATOM      5  C   LIG    1       -8.259   5.309   2.974  0.00  0.00    +0.240 C 
ATOM      6  C   LIG    1       -7.585   4.233   2.122  0.00  0.00    +0.250 C 
ATOM      7  N   LIG    1       -7.723   2.938   2.806  0.00  0.00    -0.630 N 
ATOM      8  C   LIG    1       -6.653   2.143   3.008  0.00  0.00    +0.710 C 
ATOM      9  N   LIG    1       -5.422   2.571   2.666  0.00  0.00    -0.740 N 
ATOM     10  H   LIG    1       -5.312   3.418   2.207  0.00  0.00    +0.400 HD
ATOM     11  O   LIG    1       -6.799   1.040   3.499  0.00  0.00    -0.580 OA
ENDROOT
BRANCH   3  12
ATOM     12  C   LIG    1      -11.124   3.391   4.399  0.00  0.00    +0.470 C 
ATOM     13  F   LIG    1      -11.867   3.339   3.216  0.00  0.00    -0.170 F 
ATOM     14  F   LIG    1      -11.637   4.394   5.229  0.00  0.00    -0.170 F 
ATOM     15  F   LIG    1      -11.204   2.158   5.055  0.00  0.00    -0.170 F 
ENDBRANCH   3  12
BRANCH   9  16
ATOM     16  C   LIG    1       -4.248   1.755   2.986  0.00  0.00    +0.290 C 
BRANCH  16  17
ATOM     17  C   LIG    1       -2.984   2.463   2.493  0.00  0.00    +0.000 C 
ATOM     18  C   LIG    1       -2.735   3.743   3.321  0.00  0.00    +0.040 C 
ATOM     19  C   LIG    1       -1.194   3.805   3.470  0.00  0.00    +0.040 C 
ATOM     20  C   LIG    1       -0.804   2.314   3.646  0.00  0.00    +0.050 C 
ATOM     21  C   LIG    1       -1.762   1.568   2.708  0.00  0.00    +0.130 C 
ATOM     22  N   LIG    1       -2.142   0.268   3.265  0.00  0.00    -0.720 N 
ATOM     23  H   LIG    1       -2.598   0.105   4.106  0.00  0.00    +0.440 HD
ATOM     24  C   LIG    1       -1.730  -0.658   2.376  0.00  0.00    +0.700 C 
ATOM     25  N   LIG    1       -1.130  -0.111   1.310  0.00  0.00    -0.580 N 
ATOM     26  C   LIG    1       -0.584  -0.879   0.189  0.00  0.00    +0.340 C 
ATOM     27  O   LIG    1       -1.886  -1.854   2.524  0.00  0.00    -0.530 OA
ATOM     28  C   LIG    1       -1.085   1.236   1.402  0.00  0.00    +0.530 C 
ATOM     29  O   LIG    1       -0.606   2.012   0.604  0.00  0.00    -0.450 OA
ENDBRANCH  16  17
ENDBRANCH   9  16
TORSDOF 3
