REMARK  Name = ZINCrH00000No4Qx.0
REMARK                            x       y       z     vdW  Elec       q    Type
REMARK                         _______ _______ _______ _____ _____    ______ ____
ROOT
ATOM      1  C   LIG    1       -3.582   1.101   5.010  0.00  0.00    +0.280 C 
ATOM      2  C   LIG    1       -5.083   1.025   4.658  0.00  0.00    +0.080 C 
ATOM      3  C   LIG    1       -5.239  -0.256   3.867  0.00  0.00    -0.080 A 
ATOM      4  C   LIG    1       -6.372  -0.992   3.567  0.00  0.00    +0.010 A 
ATOM      5  C   LIG    1       -6.272  -2.148   2.817  0.00  0.00    +0.020 A 
ATOM      6  C   LIG    1       -5.037  -2.572   2.365  0.00  0.00    +0.000 A 
ATOM      7  C   LIG    1       -3.905  -1.838   2.663  0.00  0.00    +0.040 A 
ATOM      8  C   LIG    1       -4.003  -0.679   3.414  0.00  0.00    -0.120 A 
ATOM      9  C   LIG    1       -2.932   0.288   3.871  0.00  0.00    +0.280 C 
ENDROOT
BRANCH   9  10
ATOM     10  N   LIG    1       -2.545   1.174   2.771  0.00  0.00    -0.720 N 
ATOM     11  H   LIG    1       -3.003   2.020   2.645  0.00  0.00    +0.400 HD
ATOM     12  C   LIG    1       -1.552   0.814   1.933  0.00  0.00    +0.520 C 
ATOM     13  O   LIG    1       -0.980  -0.243   2.090  0.00  0.00    -0.530 OA
BRANCH  12  14
ATOM     14  C   LIG    1       -1.154   1.726   0.801  0.00  0.00    +0.090 C 
BRANCH  14  15
ATOM     15  C   LIG    1       -0.013   1.086   0.008  0.00  0.00    -0.010 C 
ATOM     16  C   LIG    1        1.335   1.811  -0.001  0.00  0.00    +0.010 C 
ATOM     17  C   LIG    1        0.460   1.806  -1.256  0.00  0.00    -0.130 C 
ATOM     18  C   LIG    1       -0.244   3.111  -1.632  0.00  0.00    +0.060 C 
ATOM     19  C   LIG    1        0.918   0.941  -2.433  0.00  0.00    +0.060 C 
ENDBRANCH  14  15
ENDBRANCH  12  14
ENDBRANCH   9  10
BRANCH   1  20
ATOM     20  N   LIG    1       -3.316   0.481   6.310  0.00  0.00    -0.690 N 
ATOM     21  H   LIG    1       -3.129  -0.469   6.365  0.00  0.00    +0.420 HD
BRANCH  20  27
ATOM     22  C   LIG    1       -3.905   4.784   8.334  0.00  0.00    +0.140 C 
ATOM     23  C   LIG    1       -3.611   3.310   8.448  0.00  0.00    +0.220 A 
ATOM     24  C   LIG    1       -3.361   2.739   9.686  0.00  0.00    -0.150 A 
ATOM     25  C   LIG    1       -3.096   1.379   9.746  0.00  0.00    +0.220 A 
ATOM     26  N   LIG    1       -3.088   0.673   8.628  0.00  0.00    -0.570 NA
ATOM     27  C   LIG    1       -3.331   1.250   7.461  0.00  0.00    +0.580 A 
ATOM     28  C   LIG    1       -2.818   0.715  11.070  0.00  0.00    +0.140 C 
ATOM     29  N   LIG    1       -3.583   2.548   7.368  0.00  0.00    -0.570 NA
ENDBRANCH  20  27
ENDBRANCH   1  20
TORSDOF 5
