REMARK  Name = ZINCrg000000thep.0
REMARK                            x       y       z     vdW  Elec       q    Type
REMARK                         _______ _______ _______ _____ _____    ______ ____
ROOT
ATOM      1  O   LIG    1       -0.757   7.700  -0.304  0.00  0.00    -0.490 OA
ATOM      2  C   LIG    1        0.305   8.285  -0.319  0.00  0.00    +0.500 C 
ATOM      3  N   LIG    1        1.456   7.596  -0.188  0.00  0.00    -0.670 N 
ATOM      4  H   LIG    1        2.300   8.070  -0.123  0.00  0.00    +0.410 HD
ENDROOT
BRANCH   3   5
ATOM      5  C   LIG    1        1.433   6.196  -0.146  0.00  0.00    +0.120 A 
ATOM      6  C   LIG    1        0.483   5.495  -0.878  0.00  0.00    +0.050 A 
ATOM      7  C   LIG    1        0.460   4.115  -0.836  0.00  0.00    +0.010 A 
ATOM      8  C   LIG    1        1.387   3.428  -0.063  0.00  0.00    +0.100 A 
ATOM      9  C   LIG    1        2.333   4.129   0.673  0.00  0.00    -0.020 A 
ATOM     10  C   LIG    1        2.359   5.509   0.627  0.00  0.00    +0.010 A 
BRANCH   8  11
ATOM     11  N   LIG    1        1.364   2.030  -0.021  0.00  0.00    -0.490 N 
ATOM     12  C   LIG    1        2.426   1.511   0.854  0.00  0.00    +0.160 C 
ATOM     13  C   LIG    1        2.327  -0.015   0.918  0.00  0.00    +0.220 C 
ATOM     14  O   LIG    1        2.407  -0.549  -0.406  0.00  0.00    -0.380 OA
ATOM     15  C   LIG    1        1.387  -0.066  -1.284  0.00  0.00    +0.220 C 
ATOM     16  C   LIG    1        1.477   1.460  -1.371  0.00  0.00    +0.160 C 
ENDBRANCH   8  11
ENDBRANCH   3   5
BRANCH   2  17
ATOM     17  C   LIG    1        0.338   9.783  -0.484  0.00  0.00    +0.370 C 
BRANCH  17  18
ATOM     18  N   LIG    1       -1.031  10.291  -0.604  0.00  0.00    -0.360 N 
ATOM     19  C   LIG    1       -1.586  11.248   0.166  0.00  0.00    +0.320 A 
ATOM     20  C   LIG    1       -2.864  11.425  -0.278  0.00  0.00    -0.300 A 
ATOM     21  C   LIG    1       -3.923  12.355   0.178  0.00  0.00    +0.610 C 
ATOM     22  N   LIG    1       -5.167  11.817   0.264  0.00  0.00    -0.730 N 
ATOM     23  H   LIG    1       -5.945  12.391   0.341  0.00  0.00    +0.400 HD
ATOM     24  C   LIG    1       -5.319  10.372   0.241  0.00  0.00    +0.260 C 
ATOM     25  C   LIG    1       -5.442   9.783  -1.163  0.00  0.00    +0.030 C 
ATOM     26  C   LIG    1       -4.393  10.419  -2.086  0.00  0.00    +0.140 C 
ATOM     27  O   LIG    1       -3.695  13.517   0.456  0.00  0.00    -0.530 OA
ATOM     28  C   LIG    1       -3.083  10.528  -1.354  0.00  0.00    +0.110 A 
ATOM     29  N   LIG    1       -1.981   9.869  -1.545  0.00  0.00    -0.250 NA
ENDBRANCH  17  18
ENDBRANCH   2  17
TORSDOF 4
