REMARK  Name = ZINCpk00000eaKrw.1
REMARK                            x       y       z     vdW  Elec       q    Type
REMARK                         _______ _______ _______ _____ _____    ______ ____
ROOT
ATOM      1  N   LIG    1       -0.546   7.612  -1.130  0.00  0.00    -0.540 NA
ATOM      2  C   LIG    1       -1.357   8.298  -0.114  0.00  0.00    +0.180 C 
ATOM      3  C   LIG    1       -1.112   9.806  -0.203  0.00  0.00    +0.180 C 
ATOM      4  N   LIG    1       -1.454  10.277  -1.552  0.00  0.00    -0.520 NA
ATOM      5  C   LIG    1       -0.643   9.591  -2.567  0.00  0.00    +0.190 C 
ATOM      6  C   LIG    1       -0.888   8.083  -2.479  0.00  0.00    +0.190 C 
ENDROOT
BRANCH   1   7
ATOM      7  C   LIG    1       -0.697   6.154  -1.027  0.00  0.00    +0.180 C 
BRANCH   7   9
ATOM      8  C   LIG    1       -0.246   4.160   0.408  0.00  0.00    +0.030 C 
ATOM      9  C   LIG    1        0.031   5.653   0.222  0.00  0.00    +0.030 C 
BRANCH   9  10
ATOM     10  C   LIG    1        1.513   5.873   0.061  0.00  0.00    -0.060 A 
ATOM     11  C   LIG    1        2.194   6.673   0.960  0.00  0.00    +0.050 A 
ATOM     12  C   LIG    1        3.553   6.876   0.814  0.00  0.00    -0.020 A 
ATOM     13  C   LIG    1        4.233   6.277  -0.233  0.00  0.00    +0.090 A 
ATOM     14  C   LIG    1        3.550   5.479  -1.135  0.00  0.00    -0.020 A 
ATOM     15  F   LIG    1        5.562   6.474  -0.377  0.00  0.00    -0.140 F 
ATOM     16  C   LIG    1        2.191   5.274  -0.984  0.00  0.00    +0.040 A 
ENDBRANCH   9  10
ENDBRANCH   7   9
ENDBRANCH   1   7
BRANCH   4  17
ATOM     17  C   LIG    1       -1.303  11.735  -1.654  0.00  0.00    +0.210 C 
BRANCH  17  18
ATOM     18  C   LIG    1       -1.897  12.211  -2.955  0.00  0.00    +0.520 C 
ATOM     19  N   LIG    1       -1.756  13.498  -3.329  0.00  0.00    -0.620 N 
ATOM     20  C   LIG    1       -1.031  14.458  -2.482  0.00  0.00    +0.240 C 
ATOM     21  C   LIG    1        0.006  15.181  -3.356  0.00  0.00    +0.220 C 
ATOM     22  O   LIG    1       -0.646  15.719  -4.509  0.00  0.00    -0.380 OA
ATOM     23  C   LIG    1       -1.231  14.733  -5.363  0.00  0.00    +0.220 C 
ATOM     24  C   LIG    1       -2.327  13.986  -4.595  0.00  0.00    +0.260 C 
ATOM     25  O   LIG    1       -2.502  11.436  -3.665  0.00  0.00    -0.520 OA
ENDBRANCH  17  18
ENDBRANCH   4  17
TORSDOF 5
