REMARK  Name = ZINCpk000000n3GT.0
REMARK                            x       y       z     vdW  Elec       q    Type
REMARK                         _______ _______ _______ _____ _____    ______ ____
ROOT
ATOM      1  C   LIG    1       -2.305   1.255   0.056  0.00  0.00    +0.150 A 
ATOM      2  C   LIG    1       -2.482  -0.119   0.160  0.00  0.00    +0.030 A 
ATOM      3  C   LIG    1       -1.384  -0.953   0.280  0.00  0.00    +0.060 A 
ATOM      4  C   LIG    1       -0.114  -0.424   0.296  0.00  0.00    -0.100 A 
ATOM      5  C   LIG    1        1.259  -1.038   0.411  0.00  0.00    +0.330 C 
ATOM      6  N   LIG    1        2.213   0.075   0.364  0.00  0.00    -0.610 N 
ATOM      7  C   LIG    1        1.529   1.226   0.237  0.00  0.00    +0.570 C 
ATOM      8  O   LIG    1        2.033   2.330   0.169  0.00  0.00    -0.510 OA
ATOM      9  C   LIG    1        0.079   0.957   0.191  0.00  0.00    -0.130 A 
ATOM     10  C   LIG    1       -1.029   1.797   0.075  0.00  0.00    +0.100 A 
ENDROOT
BRANCH   6  11
ATOM     11  C   LIG    1        3.671  -0.046   0.442  0.00  0.00    +0.290 C 
ATOM     12  C   LIG    1        4.173   0.627   1.724  0.00  0.00    +0.060 C 
ATOM     13  C   LIG    1        3.611  -0.137   2.928  0.00  0.00    +0.090 C 
ATOM     14  C   LIG    1        3.998  -1.589   2.816  0.00  0.00    +0.520 C 
ATOM     15  N   LIG    1        4.185  -2.169   1.622  0.00  0.00    -0.670 N 
ATOM     16  H   LIG    1        4.425  -3.109   1.593  0.00  0.00    +0.420 HD
ATOM     17  O   LIG    1        4.142  -2.244   3.825  0.00  0.00    -0.490 OA
ATOM     18  C   LIG    1        4.053  -1.502   0.465  0.00  0.00    +0.520 C 
ATOM     19  O   LIG    1        4.246  -2.083  -0.581  0.00  0.00    -0.480 OA
ENDBRANCH   6  11
BRANCH   1  21
ATOM     20  C   LIG    1       -3.341   3.212  -0.815  0.00  0.00    +0.520 C 
ATOM     21  N   LIG    1       -3.418   2.095  -0.065  0.00  0.00    -0.670 N 
ATOM     22  H   LIG    1       -4.245   1.873   0.390  0.00  0.00    +0.410 HD
ATOM     23  O   LIG    1       -2.339   3.442  -1.460  0.00  0.00    -0.510 OA
BRANCH  20  25
ATOM     24  C   LIG    1       -4.155   5.351  -1.771  0.00  0.00    +0.060 C 
ATOM     25  C   LIG    1       -4.498   4.176  -0.852  0.00  0.00    -0.080 C 
ATOM     26  C   LIG    1       -4.774   4.697   0.560  0.00  0.00    +0.050 C 
ATOM     27  C   LIG    1       -5.742   3.460  -1.383  0.00  0.00    +0.050 C 
ENDBRANCH  20  25
ENDBRANCH   1  21
TORSDOF 3
