REMARK  Name = ZINCtj00000mhBr2.1
REMARK                            x       y       z     vdW  Elec       q    Type
REMARK                         _______ _______ _______ _____ _____    ______ ____
ROOT
ATOM      1  C   LIG    1        1.270  -6.098  -0.038  0.00  0.00    +0.290 C 
ENDROOT
BRANCH   1   7
ATOM      2  N   LIG    1        0.185 -10.811  -1.238  0.00  0.00    -0.490 N 
ATOM      3  C   LIG    1       -0.735  -9.955  -1.999  0.00  0.00    +0.190 C 
ATOM      4  C   LIG    1        0.029  -8.740  -2.535  0.00  0.00    +0.310 C 
ATOM      5  N   LIG    1        0.706  -8.079  -1.409  0.00  0.00    -0.590 N 
ATOM      6  C   LIG    1        1.543  -8.900  -0.521  0.00  0.00    +0.290 C 
ATOM      7  C   LIG    1        0.567  -6.755  -1.199  0.00  0.00    +0.500 C 
ATOM      8  O   LIG    1       -0.123  -6.092  -1.944  0.00  0.00    -0.530 OA
ATOM      9  C   LIG    1        0.715 -10.110  -0.061  0.00  0.00    +0.190 C 
BRANCH   2  15
ATOM     10  C   LIG    1        0.417 -15.178   1.005  0.00  0.00    +0.100 C 
ATOM     11  C   LIG    1       -0.345 -14.144   0.216  0.00  0.00    -0.060 A 
ATOM     12  C   LIG    1       -1.658 -14.382  -0.147  0.00  0.00    -0.010 A 
ATOM     13  C   LIG    1       -2.360 -13.436  -0.871  0.00  0.00    +0.040 A 
ATOM     14  C   LIG    1       -1.752 -12.251  -1.235  0.00  0.00    -0.040 A 
ATOM     15  C   LIG    1       -0.433 -12.009  -0.872  0.00  0.00    +0.100 A 
ATOM     16  C   LIG    1        0.271 -12.963  -0.149  0.00  0.00    -0.020 A 
ENDBRANCH   2  15
ENDBRANCH   1   7
BRANCH   1  17
ATOM     17  N   LIG    1        0.960  -4.662  -0.028  0.00  0.00    -0.370 N 
ATOM     18  C   LIG    1        1.546  -4.046   1.169  0.00  0.00    +0.280 C 
ATOM     19  C   LIG    1        1.159  -2.567   1.227  0.00  0.00    +0.110 C 
ATOM     20  C   LIG    1        1.685  -1.857  -0.024  0.00  0.00    +0.220 C 
ATOM     21  C   LIG    1        1.126  -2.555  -1.268  0.00  0.00    +0.060 C 
ATOM     22  C   LIG    1        1.514  -4.035  -1.233  0.00  0.00    +0.270 C 
ATOM     23  H   LIG    1       -0.041  -4.536  -0.014  0.00  0.00    +0.430 HD
BRANCH  20  24
ATOM     24  C   LIG    1        1.240  -0.418  -0.012  0.00  0.00    +0.150 A 
ATOM     25  N   LIG    1        0.002  -0.004   0.002  0.00  0.00    -0.470 NA
ATOM     26  C   LIG    1       -0.016   1.337   0.009  0.00  0.00    +0.160 A 
ATOM     27  C   LIG    1        1.259   1.771  -0.000  0.00  0.00    +0.140 A 
ATOM     28  N   LIG    1        2.056   0.658  -0.014  0.00  0.00    -0.450 N 
ATOM     29  C   LIG    1        3.521   0.638  -0.027  0.00  0.00    +0.330 C 
ENDBRANCH  20  24
BRANCH  20  30
ATOM     30  O   LIG    1        3.112  -1.916  -0.043  0.00  0.00    -0.550 OA
ATOM     31  H   LIG    1        3.514  -1.488  -0.811  0.00  0.00    +0.390 HD
ENDBRANCH  20  30
ENDBRANCH   1  17
TORSDOF 5
