REMARK  Name = ZINCpe00000VVGMd.0
REMARK                            x       y       z     vdW  Elec       q    Type
REMARK                         _______ _______ _______ _____ _____    ______ ____
ROOT
ATOM      1  N   LIG    1        9.976   0.806  -2.992  0.00  0.00    -0.660 N 
ATOM      2  H   LIG    1        9.338   0.805  -3.723  0.00  0.00    +0.410 HD
ATOM      3  C   LIG    1        9.540   0.797  -1.717  0.00  0.00    +0.710 C 
ATOM      4  N   LIG    1        8.217   0.787  -1.457  0.00  0.00    -0.740 N 
ATOM      5  H   LIG    1        7.579   0.787  -2.188  0.00  0.00    +0.400 HD
ATOM      6  O   LIG    1       10.339   0.798  -0.801  0.00  0.00    -0.570 OA
ENDROOT
BRANCH   1   9
ATOM      7  N   LIG    1       13.278   0.834  -4.319  0.00  0.00    -0.370 N 
ATOM      8  C   LIG    1       11.931   0.825  -4.494  0.00  0.00    +0.190 A 
ATOM      9  C   LIG    1       11.358   0.816  -3.264  0.00  0.00    +0.030 A 
ATOM     10  C   LIG    1       12.386   0.824  -2.311  0.00  0.00    +0.260 A 
ATOM     11  N   LIG    1       13.533   0.829  -2.942  0.00  0.00    -0.250 NA
BRANCH   7  12
ATOM     12  C   LIG    1       14.285   0.846  -5.383  0.00  0.00    +0.370 C 
BRANCH  12  16
ATOM     13  N   LIG    1       16.227   2.228  -6.045  0.00  0.00    -0.850 N 
ATOM     14  H   LIG    1       16.825   2.980  -5.915  0.00  0.00    +0.410 HD
ATOM     15  H   LIG    1       16.358   1.628  -6.796  0.00  0.00    +0.400 HD
ATOM     16  C   LIG    1       15.214   2.015  -5.181  0.00  0.00    +0.500 C 
ATOM     17  O   LIG    1       15.051   2.764  -4.242  0.00  0.00    -0.510 OA
ENDBRANCH  12  16
ENDBRANCH   7  12
ENDBRANCH   1   9
BRANCH   4  18
ATOM     18  C   LIG    1        7.743   0.778  -0.071  0.00  0.00    +0.340 C 
BRANCH  18  19
ATOM     19  C   LIG    1        6.236   0.768  -0.056  0.00  0.00    -0.120 A 
ATOM     20  C   LIG    1        5.554  -0.435  -0.055  0.00  0.00    +0.070 A 
ATOM     21  C   LIG    1        4.173  -0.447  -0.041  0.00  0.00    +0.020 A 
ATOM     22  C   LIG    1        3.469   0.750  -0.028  0.00  0.00    +0.170 A 
ATOM     23  C   LIG    1        4.157   1.956  -0.034  0.00  0.00    -0.010 A 
ATOM     24  C   LIG    1        5.538   1.962  -0.043  0.00  0.00    +0.070 A 
BRANCH  22  25
ATOM     25  N   LIG    1        2.068   0.741  -0.014  0.00  0.00    -0.330 N 
ATOM     26  C   LIG    1        1.265   1.829  -0.000  0.00  0.00    +0.230 A 
ATOM     27  C   LIG    1       -0.017   1.395   0.010  0.00  0.00    -0.100 A 
ATOM     28  C   LIG    1        0.002  -0.004   0.002  0.00  0.00    +0.250 A 
ATOM     29  N   LIG    1        1.250  -0.397  -0.012  0.00  0.00    -0.290 NA
ENDBRANCH  22  25
ENDBRANCH  18  19
ENDBRANCH   4  18
TORSDOF 6
