REMARK  Name = ZINCrH000004qSiu.0
REMARK                            x       y       z     vdW  Elec       q    Type
REMARK                         _______ _______ _______ _____ _____    ______ ____
ROOT
ATOM      1  C   LIG    1       -1.433  -0.536   0.142  0.00  0.00    +0.250 C 
ENDROOT
BRANCH   1   4
ATOM      2  N   LIG    1       -2.648   1.132  -1.221  0.00  0.00    -0.720 N 
ATOM      3  H   LIG    1       -2.500   1.776  -0.511  0.00  0.00    +0.400 HD
ATOM      4  C   LIG    1       -2.227  -0.140  -1.076  0.00  0.00    +0.520 C 
ATOM      5  O   LIG    1       -2.486  -0.965  -1.926  0.00  0.00    -0.530 OA
BRANCH   2   6
ATOM      6  C   LIG    1       -3.331   1.542  -2.451  0.00  0.00    +0.310 C 
ATOM      7  C   LIG    1       -2.292   1.920  -3.509  0.00  0.00    +0.040 C 
BRANCH   6  11
ATOM      8  C   LIG    1       -4.800   5.680   0.049  0.00  0.00    +0.140 C 
ATOM      9  C   LIG    1       -4.844   4.602  -1.004  0.00  0.00    -0.170 A 
ATOM     10  C   LIG    1       -3.969   3.602  -1.117  0.00  0.00    +0.000 A 
ATOM     11  C   LIG    1       -4.212   2.730  -2.165  0.00  0.00    -0.120 A 
ATOM     12  C   LIG    1       -5.282   3.025  -2.905  0.00  0.00    -0.170 A 
ATOM     13  C   LIG    1       -5.755   2.239  -4.099  0.00  0.00    +0.140 C 
ATOM     14  S   LIG    1       -6.058   4.471  -2.270  0.00  0.00    +0.110 S 
ENDBRANCH   6  11
ENDBRANCH   2   6
ENDBRANCH   1   4
BRANCH   1  15
ATOM     15  N   LIG    1       -1.652  -1.957   0.426  0.00  0.00    -0.710 N 
ATOM     16  H   LIG    1       -1.913  -2.559  -0.287  0.00  0.00    +0.410 HD
ATOM     17  C   LIG    1       -1.489  -2.426   1.679  0.00  0.00    +0.520 C 
ATOM     18  O   LIG    1       -1.162  -1.673   2.571  0.00  0.00    -0.510 OA
BRANCH  17  19
ATOM     19  C   LIG    1       -1.713  -3.887   1.972  0.00  0.00    +0.240 C 
BRANCH  19  20
ATOM     20  O   LIG    1       -1.481  -4.137   3.359  0.00  0.00    -0.290 OA
BRANCH  20  21
ATOM     21  C   LIG    1       -1.641  -5.415   3.792  0.00  0.00    +0.130 A 
ATOM     22  C   LIG    1       -2.021  -6.408   2.900  0.00  0.00    -0.080 A 
ATOM     23  C   LIG    1       -2.178  -7.708   3.341  0.00  0.00    +0.050 A 
ATOM     24  C   LIG    1       -1.968  -8.017   4.672  0.00  0.00    -0.030 A 
ATOM     25  C   LIG    1       -1.595  -7.029   5.564  0.00  0.00    +0.050 A 
ATOM     26  C   LIG    1       -1.431  -5.729   5.127  0.00  0.00    -0.020 A 
ENDBRANCH  20  21
ENDBRANCH  19  20
ENDBRANCH  17  19
ENDBRANCH   1  15
BRANCH   1  27
ATOM     27  C   LIG    1        0.054  -0.290  -0.116  0.00  0.00    -0.020 C 
ATOM     28  C   LIG    1        0.865  -0.746   1.099  0.00  0.00    +0.040 C 
ATOM     29  C   LIG    1        0.291   1.202  -0.356  0.00  0.00    +0.030 C 
ENDBRANCH   1  27
TORSDOF 8
