REMARK  Name = ZINCnE000001DVrH.0
REMARK                            x       y       z     vdW  Elec       q    Type
REMARK                         _______ _______ _______ _____ _____    ______ ____
ROOT
ATOM      1  C   LIG    1        1.546  -2.339  -0.025  0.00  0.00    -0.080 A 
ATOM      2  N   LIG    1        0.439  -3.012  -0.019  0.00  0.00    -0.250 NA
ATOM      3  N   LIG    1        0.501  -4.387  -0.027  0.00  0.00    -0.510 NA
ATOM      4  C   LIG    1        1.752  -4.934  -0.042  0.00  0.00    +0.340 A 
ATOM      5  N   LIG    1        2.070  -6.206  -0.053  0.00  0.00    -0.630 NA
ATOM      6  S   LIG    1        2.848  -3.540  -0.051  0.00  0.00    -0.100 S 
ENDROOT
BRANCH   1   7
ATOM      7  S   LIG    1        1.720  -0.585  -0.018  0.00  0.00    +0.030 S 
BRANCH   7   8
ATOM      8  C   LIG    1        0.002  -0.004   0.002  0.00  0.00    +0.080 C 
BRANCH   8  11
ATOM      9  N   LIG    1       -1.195   2.161   0.019  0.00  0.00    -0.730 N 
ATOM     10  H   LIG    1       -2.028   1.664   0.021  0.00  0.00    +0.400 HD
ATOM     11  C   LIG    1       -0.018   1.503   0.010  0.00  0.00    +0.540 C 
ATOM     12  O   LIG    1        1.024   2.123   0.004  0.00  0.00    -0.520 OA
BRANCH   9  13
ATOM     13  C   LIG    1       -1.214   3.626   0.028  0.00  0.00    +0.240 C 
ATOM     14  C   LIG    1       -1.103   4.145  -1.407  0.00  0.00    +0.020 C 
BRANCH  13  16
ATOM     15  C   LIG    1       -2.546   5.644   0.654  0.00  0.00    +0.030 C 
ATOM     16  C   LIG    1       -2.526   4.114   0.646  0.00  0.00    -0.020 C 
ATOM     17  C   LIG    1       -3.704   3.593  -0.179  0.00  0.00    +0.020 C 
ENDBRANCH  13  16
ENDBRANCH   9  13
ENDBRANCH   8  11
ENDBRANCH   7   8
ENDBRANCH   1   7
BRANCH   5  18
ATOM     18  C   LIG    1        1.018  -7.225  -0.048  0.00  0.00    +0.230 C 
BRANCH  18  19
ATOM     19  C   LIG    1        1.062  -7.999  -1.341  0.00  0.00    -0.050 A 
ATOM     20  C   LIG    1        0.318  -7.574  -2.426  0.00  0.00    +0.010 A 
ATOM     21  C   LIG    1        0.362  -8.281  -3.614  0.00  0.00    -0.010 A 
ATOM     22  C   LIG    1        1.142  -9.418  -3.712  0.00  0.00    -0.030 A 
ATOM     23  C   LIG    1        1.882  -9.845  -2.626  0.00  0.00    -0.020 A 
ATOM     24  C   LIG    1        1.842  -9.136  -1.440  0.00  0.00    +0.010 A 
ENDBRANCH  18  19
ENDBRANCH   5  18
TORSDOF 7
