REMARK  Name = ZINCpk00000y6wwE.0
REMARK                            x       y       z     vdW  Elec       q    Type
REMARK                         _______ _______ _______ _____ _____    ______ ____
ROOT
ATOM      1  C   LIG    1       -1.639   7.672   0.876  0.00  0.00    +0.160 C 
ATOM      2  C   LIG    1       -2.360   6.383   0.394  0.00  0.00    +0.060 C 
ATOM      3  C   LIG    1       -1.289   5.292   0.605  0.00  0.00    +0.220 C 
ATOM      4  N   LIG    1        0.020   5.960   0.631  0.00  0.00    -0.610 N 
ATOM      5  C   LIG    1        1.209   5.353   0.818  0.00  0.00    +0.580 C 
ATOM      6  O   LIG    1        2.219   6.018   0.940  0.00  0.00    -0.520 OA
ATOM      7  C   LIG    1       -0.182   7.405   0.420  0.00  0.00    +0.250 C 
ENDROOT
BRANCH   5   8
ATOM      8  C   LIG    1        1.284   3.878   0.875  0.00  0.00    -0.150 A 
ATOM      9  C   LIG    1        0.135   3.127   1.124  0.00  0.00    +0.070 A 
ATOM     10  C   LIG    1        0.210   1.749   1.176  0.00  0.00    +0.040 A 
ATOM     11  C   LIG    1        1.421   1.114   0.981  0.00  0.00    -0.100 A 
ATOM     12  C   LIG    1        1.821  -0.343   0.976  0.00  0.00    +0.270 C 
ATOM     13  O   LIG    1        3.097  -0.402   0.313  0.00  0.00    -0.360 OA
ATOM     14  C   LIG    1        3.707   0.877   0.568  0.00  0.00    +0.270 C 
ATOM     15  C   LIG    1        2.568   1.856   0.733  0.00  0.00    -0.150 A 
ATOM     16  C   LIG    1        2.505   3.229   0.674  0.00  0.00    +0.110 A 
ENDBRANCH   5   8
BRANCH   1  18
ATOM     17  C   LIG    1       -1.977  10.043   0.962  0.00  0.00    +0.220 C 
ATOM     18  O   LIG    1       -2.173   8.831   0.232  0.00  0.00    -0.370 OA
ENDBRANCH   1  18
BRANCH   3  19
ATOM     19  C   LIG    1       -1.336   4.286  -0.547  0.00  0.00    +0.310 C 
BRANCH  19  20
ATOM     20  N   LIG    1       -2.554   3.479  -0.441  0.00  0.00    -0.370 N 
ATOM     21  C   LIG    1       -3.482   3.312  -1.406  0.00  0.00    +0.260 A 
ATOM     22  C   LIG    1       -4.448   2.501  -0.918  0.00  0.00    -0.160 A 
ATOM     23  C   LIG    1       -4.093   2.151   0.395  0.00  0.00    +0.340 A 
ATOM     24  N   LIG    1       -2.955   2.739   0.679  0.00  0.00    -0.360 NA
BRANCH  23  25
ATOM     25  N   LIG    1       -4.825   1.319   1.251  0.00  0.00    -0.850 N 
ATOM     26  H   LIG    1       -4.497   1.134   2.145  0.00  0.00    +0.400 HD
ATOM     27  H   LIG    1       -5.660   0.927   0.949  0.00  0.00    +0.410 HD
ENDBRANCH  23  25
ENDBRANCH  19  20
ENDBRANCH   3  19
TORSDOF 5
