REMARK  Name = ZINCrH00000tj1mH.0
REMARK                            x       y       z     vdW  Elec       q    Type
REMARK                         _______ _______ _______ _____ _____    ______ ____
ROOT
ATOM      1  N   LIG    1        0.262   4.050  -1.133  0.00  0.00    -0.670 NA
ATOM      2  H   LIG    1       -0.555   3.462  -1.205  0.00  0.00    +0.360 HD
ENDROOT
BRANCH   1  11
ATOM      3  C   LIG    1        2.401   0.039   0.011  0.00  0.00    +0.120 A 
ATOM      4  C   LIG    1        1.211  -0.673   0.003  0.00  0.00    -0.060 A 
ATOM      5  C   LIG    1        0.002  -0.004   0.002  0.00  0.00    +0.050 A 
ATOM      6  C   LIG    1       -0.017   1.384   0.010  0.00  0.00    +0.060 A 
ATOM      7  O   LIG    1       -1.208   2.045   0.048  0.00  0.00    -0.330 OA
ATOM      8  C   LIG    1       -1.510   2.706   1.281  0.00  0.00    +0.220 C 
ATOM      9  C   LIG    1       -0.925   4.102   1.305  0.00  0.00    +0.010 C 
ATOM     10  C   LIG    1        0.597   4.121   1.295  0.00  0.00    +0.050 C 
ATOM     11  C   LIG    1        1.136   3.605  -0.040  0.00  0.00    +0.230 C 
ATOM     12  C   LIG    1        1.168   2.090   0.002  0.00  0.00    -0.110 A 
ATOM     13  C   LIG    1        2.379   1.428   0.011  0.00  0.00    +0.010 A 
BRANCH   3  15
ATOM     14  C   LIG    1        3.538  -2.050   0.019  0.00  0.00    +0.250 C 
ATOM     15  O   LIG    1        3.590  -0.622   0.019  0.00  0.00    -0.310 OA
ENDBRANCH   3  15
ENDBRANCH   1  11
BRANCH   1  16
ATOM     16  C   LIG    1        0.992   4.094  -2.407  0.00  0.00    +0.310 C 
BRANCH  16  17
ATOM     17  C   LIG    1        0.065   4.553  -3.502  0.00  0.00    -0.000 A 
ATOM     18  N   LIG    1       -0.132   5.783  -3.855  0.00  0.00    -0.240 NA
ATOM     19  N   LIG    1       -0.941   6.004  -4.799  0.00  0.00    -0.230 NA
ATOM     20  C   LIG    1       -1.515   4.956  -5.325  0.00  0.00    +0.020 A 
ATOM     21  S   LIG    1       -0.906   3.534  -4.478  0.00  0.00    +0.190 S 
BRANCH  20  22
ATOM     22  C   LIG    1       -2.497   4.960  -6.430  0.00  0.00    -0.010 A 
ATOM     23  C   LIG    1       -2.905   6.159  -7.026  0.00  0.00    +0.060 A 
ATOM     24  C   LIG    1       -3.824   6.117  -8.054  0.00  0.00    +0.280 A 
ATOM     25  N   LIG    1       -4.317   4.969  -8.477  0.00  0.00    -0.450 NA
ATOM     26  C   LIG    1       -3.961   3.815  -7.946  0.00  0.00    +0.270 A 
ATOM     27  C   LIG    1       -3.042   3.763  -6.915  0.00  0.00    +0.060 A 
ATOM     28  F   LIG    1       -2.678   2.577  -6.379  0.00  0.00    -0.120 F 
ENDBRANCH  20  22
ENDBRANCH  16  17
ENDBRANCH   1  16
TORSDOF 5
