REMARK  Name = ZINCrH00000No521.0
REMARK                            x       y       z     vdW  Elec       q    Type
REMARK                         _______ _______ _______ _____ _____    ______ ____
ROOT
ATOM      1  C   LIG    1        4.111   5.911  -0.347  0.00  0.00    +0.510 C 
ATOM      2  N   LIG    1        3.300   4.992  -0.907  0.00  0.00    -0.730 N 
ATOM      3  H   LIG    1        3.380   4.058  -0.657  0.00  0.00    +0.400 HD
ATOM      4  O   LIG    1        4.011   7.079  -0.660  0.00  0.00    -0.530 OA
ENDROOT
BRANCH   1   5
ATOM      5  C   LIG    1        5.143   5.488   0.667  0.00  0.00    +0.100 C 
BRANCH   5   9
ATOM      6  C   LIG    1        7.327   8.915   1.993  0.00  0.00    +0.150 A 
ATOM      7  C   LIG    1        6.172   8.524   2.659  0.00  0.00    -0.010 A 
ATOM      8  C   LIG    1        5.469   7.417   2.228  0.00  0.00    +0.040 A 
ATOM      9  C   LIG    1        5.913   6.696   1.134  0.00  0.00    -0.080 A 
ATOM     10  C   LIG    1        7.065   7.079   0.472  0.00  0.00    +0.040 A 
ATOM     11  C   LIG    1        7.770   8.189   0.894  0.00  0.00    +0.010 A 
BRANCH   6  13
ATOM     12  C   LIG    1        8.684  10.812   1.533  0.00  0.00    +0.540 C 
ATOM     13  N   LIG    1        8.041  10.035   2.427  0.00  0.00    -0.670 N 
ATOM     14  H   LIG    1        8.074  10.253   3.371  0.00  0.00    +0.410 HD
ATOM     15  O   LIG    1        8.565  10.596   0.342  0.00  0.00    -0.520 OA
BRANCH  12  17
ATOM     16  C   LIG    1       10.165  12.689   1.115  0.00  0.00    +0.160 C 
ATOM     17  C   LIG    1        9.530  11.922   1.997  0.00  0.00    -0.090 C 
ENDBRANCH  12  17
ENDBRANCH   6  13
ENDBRANCH   5   9
ENDBRANCH   1   5
BRANCH   2  18
ATOM     18  C   LIG    1        2.297   5.402  -1.893  0.00  0.00    +0.270 C 
BRANCH  18  19
ATOM     19  C   LIG    1        1.516   4.176  -2.367  0.00  0.00    +0.140 C 
ATOM     20  C   LIG    1        0.486   4.581  -3.452  0.00  0.00    +0.020 C 
ATOM     21  C   LIG    1       -0.562   3.443  -3.304  0.00  0.00    +0.010 C 
ATOM     22  C   LIG    1       -0.516   3.152  -1.790  0.00  0.00    +0.120 C 
ATOM     23  C   LIG    1       -0.590   1.626  -1.578  0.00  0.00    +0.010 C 
ATOM     24  C   LIG    1       -0.081   1.229  -0.273  0.00  0.00    +0.010 C 
ATOM     25  C   LIG    1       -0.896   1.838   0.885  0.00  0.00    +0.000 C 
ATOM     26  C   LIG    1       -0.440   3.256   1.096  0.00  0.00    +0.010 C 
ATOM     27  C   LIG    1       -1.312   4.274   0.335  0.00  0.00    +0.010 C 
ATOM     28  C   LIG    1       -1.676   3.800  -1.087  0.00  0.00    +0.010 C 
ATOM     29  O   LIG    1        0.734   3.635  -1.290  0.00  0.00    -0.350 OA
ENDBRANCH  18  19
ENDBRANCH   2  18
TORSDOF 6
