REMARK  Name = ZINCrH000004mPFR.0
REMARK                            x       y       z     vdW  Elec       q    Type
REMARK                         _______ _______ _______ _____ _____    ______ ____
ROOT
ATOM      1  N   LIG    1        6.129  -1.717   4.988  0.00  0.00    -0.680 N 
ATOM      2  H   LIG    1        5.812  -0.802   4.941  0.00  0.00    +0.410 HD
ATOM      3  C   LIG    1        5.446  -2.700   4.368  0.00  0.00    +0.710 C 
ATOM      4  N   LIG    1        4.385  -2.398   3.594  0.00  0.00    -0.630 N 
ATOM      5  C   LIG    1        3.693  -3.441   2.822  0.00  0.00    +0.320 C 
ATOM      6  C   LIG    1        3.577  -2.974   1.367  0.00  0.00    +0.170 C 
ATOM      7  N   LIG    1        2.942  -1.650   1.330  0.00  0.00    -0.530 NA
ATOM      8  C   LIG    1        3.765  -0.645   2.017  0.00  0.00    +0.180 C 
ATOM      9  C   LIG    1        3.889  -1.017   3.498  0.00  0.00    +0.280 C 
ATOM     10  O   LIG    1        5.787  -3.858   4.507  0.00  0.00    -0.570 OA
ENDROOT
BRANCH   1  14
ATOM     11  C   LIG    1        9.613  -2.616   7.103  0.00  0.00    +0.100 A 
ATOM     12  C   LIG    1        9.300  -3.318   5.950  0.00  0.00    -0.020 A 
ATOM     13  C   LIG    1        8.146  -3.020   5.249  0.00  0.00    +0.040 A 
ATOM     14  C   LIG    1        7.299  -2.018   5.699  0.00  0.00    +0.170 A 
ATOM     15  C   LIG    1        7.611  -1.309   6.852  0.00  0.00    -0.040 A 
ATOM     16  C   LIG    1        8.764  -1.611   7.557  0.00  0.00    +0.100 A 
BRANCH  11  18
ATOM     17  C   LIG    1       11.572  -3.955   7.269  0.00  0.00    +0.250 C 
ATOM     18  O   LIG    1       10.749  -2.911   7.792  0.00  0.00    -0.310 OA
ENDBRANCH  11  18
BRANCH  16  19
ATOM     19  O   LIG    1        9.070  -0.921   8.688  0.00  0.00    -0.310 OA
BRANCH  19  20
ATOM     20  C   LIG    1        8.154   0.097   9.095  0.00  0.00    +0.590 C 
ATOM     21  F   LIG    1        6.898  -0.472   9.330  0.00  0.00    -0.200 F 
ATOM     22  F   LIG    1        8.049   1.060   8.086  0.00  0.00    -0.200 F 
ENDBRANCH  19  20
ENDBRANCH  16  19
ENDBRANCH   1  14
BRANCH   7  23
ATOM     23  C   LIG    1        2.657  -1.242  -0.052  0.00  0.00    +0.280 C 
BRANCH  23  24
ATOM     24  C   LIG    1        1.794  -0.006  -0.042  0.00  0.00    -0.170 A 
ATOM     25  C   LIG    1        2.247   1.248  -0.038  0.00  0.00    +0.000 A 
ATOM     26  C   LIG    1        1.265   2.223  -0.030  0.00  0.00    +0.000 A 
ATOM     27  C   LIG    1        0.014   1.761  -0.028  0.00  0.00    -0.050 A 
ATOM     28  S   LIG    1        0.035   0.002  -0.036  0.00  0.00    +0.120 S 
ENDBRANCH  23  24
ENDBRANCH   7  23
TORSDOF 6
