REMARK  Name = ZINCrD000000AnbA.0
REMARK                            x       y       z     vdW  Elec       q    Type
REMARK                         _______ _______ _______ _____ _____    ______ ____
ROOT
ATOM      1  N   LIG    1       -3.695   1.798   1.107  0.00  0.00    -0.910 N 
ATOM      2  C   LIG    1       -4.316   1.640   2.356  0.00  0.00    +0.140 A 
ATOM      3  C   LIG    1       -3.791   1.055   3.507  0.00  0.00    +0.020 A 
ATOM      4  C   LIG    1       -4.544   0.978   4.672  0.00  0.00    +0.040 A 
ATOM      5  C   LIG    1       -5.816   1.461   4.755  0.00  0.00    +0.030 A 
ATOM      6  C   LIG    1       -6.388   2.060   3.619  0.00  0.00    -0.030 A 
ATOM      7  C   LIG    1       -7.690   2.588   3.601  0.00  0.00    +0.090 A 
ATOM      8  C   LIG    1       -8.174   3.154   2.458  0.00  0.00    +0.000 A 
ATOM      9  C   LIG    1       -7.399   3.222   1.294  0.00  0.00    +0.190 A 
ATOM     10  C   LIG    1       -6.148   2.722   1.290  0.00  0.00    -0.640 A 
ATOM     11  C   LIG    1       -5.616   2.134   2.442  0.00  0.00    -0.070 A 
ATOM     12  S   LIG    1       -4.817   2.573   0.134  0.00  0.00    +2.670 S 
ATOM     13  O   LIG    1       -5.223   1.654  -0.870  0.00  0.00    -0.920 OA
ATOM     14  O   LIG    1       -4.327   3.880  -0.131  0.00  0.00    -0.930 OA
ENDROOT
BRANCH   1  15
ATOM     15  C   LIG    1       -2.342   1.377   0.734  0.00  0.00    +0.390 C 
BRANCH  15  17
ATOM     16  O   LIG    1       -3.421  -0.660   0.228  0.00  0.00    -0.480 OA
ATOM     17  C   LIG    1       -2.365  -0.069   0.310  0.00  0.00    +0.490 C 
ATOM     18  N   LIG    1       -1.212  -0.705   0.023  0.00  0.00    -0.550 N 
ATOM     19  C   LIG    1        0.059   0.031  -0.011  0.00  0.00    +0.260 C 
ATOM     20  C   LIG    1        0.825  -0.414  -1.264  0.00  0.00    +0.030 C 
ATOM     21  C   LIG    1        1.148  -1.903  -1.143  0.00  0.00    +0.080 C 
ATOM     22  C   LIG    1       -0.095  -2.687  -0.813  0.00  0.00    -0.120 A 
ATOM     23  C   LIG    1       -0.120  -4.046  -1.079  0.00  0.00    +0.030 A 
ATOM     24  C   LIG    1       -1.243  -4.794  -0.780  0.00  0.00    -0.020 A 
ATOM     25  C   LIG    1       -2.349  -4.190  -0.213  0.00  0.00    +0.020 A 
ATOM     26  C   LIG    1       -2.333  -2.835   0.053  0.00  0.00    +0.010 A 
ATOM     27  C   LIG    1       -1.206  -2.080  -0.248  0.00  0.00    +0.150 A 
ENDBRANCH  15  17
ENDBRANCH   1  15
TORSDOF 2
