REMARK  Name = ZINCrD000000fTKu.0
REMARK                            x       y       z     vdW  Elec       q    Type
REMARK                         _______ _______ _______ _____ _____    ______ ____
ROOT
ATOM      1  C   LIG    1        0.041  -0.864   1.613  0.00  0.00    +0.530 C 
ATOM      2  N   LIG    1        1.347  -0.779   1.933  0.00  0.00    -0.720 N 
ATOM      3  H   LIG    1        1.889  -0.058   1.575  0.00  0.00    +0.400 HD
ATOM      4  O   LIG    1       -0.636  -1.765   2.060  0.00  0.00    -0.500 OA
ENDROOT
BRANCH   1  10
ATOM      5  C   LIG    1       -0.052   1.814  -2.400  0.00  0.00    +0.530 C 
ATOM      6  N   LIG    1       -0.693   0.927  -1.613  0.00  0.00    -0.610 N 
ATOM      7  C   LIG    1       -2.159   0.806  -1.647  0.00  0.00    +0.250 C 
ATOM      8  C   LIG    1       -2.683   0.879  -0.208  0.00  0.00    +0.220 C 
ATOM      9  O   LIG    1       -1.985  -0.075   0.596  0.00  0.00    -0.350 OA
ATOM     10  C   LIG    1       -0.578   0.161   0.698  0.00  0.00    +0.150 C 
ATOM     11  C   LIG    1        0.053   0.052  -0.695  0.00  0.00    +0.280 C 
ATOM     12  O   LIG    1        1.145   1.973  -2.285  0.00  0.00    -0.530 OA
BRANCH   5  14
ATOM     13  C   LIG    1        0.156   3.368  -4.321  0.00  0.00    +0.060 C 
ATOM     14  C   LIG    1       -0.823   2.608  -3.423  0.00  0.00    -0.090 C 
ATOM     15  C   LIG    1       -1.740   3.604  -2.711  0.00  0.00    +0.060 C 
ATOM     16  C   LIG    1       -1.666   1.659  -4.277  0.00  0.00    +0.040 C 
ENDBRANCH   5  14
ENDBRANCH   1  10
BRANCH   2  17
ATOM     17  C   LIG    1        1.949  -1.776   2.823  0.00  0.00    +0.300 C 
BRANCH  17  18
ATOM     18  C   LIG    1        3.152  -1.178   3.505  0.00  0.00    -0.100 A 
ATOM     19  C   LIG    1        4.014  -0.362   2.796  0.00  0.00    +0.050 A 
ATOM     20  C   LIG    1        5.116   0.191   3.423  0.00  0.00    -0.010 A 
ATOM     21  C   LIG    1        5.361  -0.082   4.758  0.00  0.00    +0.100 A 
ATOM     22  C   LIG    1        4.500  -0.903   5.465  0.00  0.00    -0.010 A 
ATOM     23  F   LIG    1        6.440   0.454   5.370  0.00  0.00    -0.140 F 
ATOM     24  C   LIG    1        3.397  -1.450   4.838  0.00  0.00    +0.070 A 
ENDBRANCH  17  18
BRANCH  17  25
ATOM     25  C   LIG    1        2.380  -2.995   2.005  0.00  0.00    -0.070 C 
ATOM     26  C   LIG    1        1.158  -3.602   1.312  0.00  0.00    +0.030 C 
ATOM     27  C   LIG    1        3.009  -4.036   2.934  0.00  0.00    +0.040 C 
ATOM     28  C   LIG    1        3.404  -2.567   0.952  0.00  0.00    +0.020 C 
ENDBRANCH  17  25
ENDBRANCH   2  17
TORSDOF 5
