REMARK  Name = ZINCvU0000000CSG.0
REMARK                            x       y       z     vdW  Elec       q    Type
REMARK                         _______ _______ _______ _____ _____    ______ ____
ROOT
ATOM      1  N   LIG    1        3.117   4.296  -0.005  0.00  0.00    -0.660 N 
ATOM      2  H   LIG    1        3.904   3.733   0.061  0.00  0.00    +0.420 HD
ATOM      3  C   LIG    1        1.889   3.741   0.000  0.00  0.00    +0.530 C 
ATOM      4  O   LIG    1        0.904   4.448   0.020  0.00  0.00    -0.490 OA
ENDROOT
BRANCH   1  10
ATOM      5  C   LIG    1        4.403   6.311   0.386  0.00  0.00    +0.140 A 
ATOM      6  C   LIG    1        4.536   7.686   0.284  0.00  0.00    -0.040 A 
ATOM      7  C   LIG    1        3.533   8.436  -0.303  0.00  0.00    +0.090 A 
ATOM      8  C   LIG    1        2.396   7.818  -0.789  0.00  0.00    -0.200 A 
ATOM      9  C   LIG    1        2.258   6.446  -0.696  0.00  0.00    +0.110 A 
ATOM     10  C   LIG    1        3.257   5.687  -0.104  0.00  0.00    +0.120 A 
BRANCH   8  11
ATOM     11  C   LIG    1        1.308   8.641  -1.427  0.00  0.00    +0.510 C 
ATOM     12  F   LIG    1        0.116   8.473  -0.714  0.00  0.00    -0.170 F 
ATOM     13  F   LIG    1        1.122   8.224  -2.750  0.00  0.00    -0.180 F 
ATOM     14  F   LIG    1        1.674   9.992  -1.411  0.00  0.00    -0.180 F 
ENDBRANCH   8  11
BRANCH   5  15
ATOM     15  O   LIG    1        5.388   5.571   0.961  0.00  0.00    -0.310 OA
BRANCH  15  16
ATOM     16  C   LIG    1        6.533   6.278   1.441  0.00  0.00    +0.200 C 
BRANCH  16  18
ATOM     17  C   LIG    1        8.752   6.043   2.565  0.00  0.00    +0.040 C 
ATOM     18  C   LIG    1        7.526   5.287   2.051  0.00  0.00    +0.020 C 
ENDBRANCH  16  18
ENDBRANCH  15  16
ENDBRANCH   5  15
ENDBRANCH   1  10
BRANCH   3  19
ATOM     19  C   LIG    1        1.740   2.242  -0.018  0.00  0.00    +0.100 C 
BRANCH  19  20
ATOM     20  S   LIG    1       -0.022   1.809  -0.007  0.00  0.00    -0.160 S 
BRANCH  20  21
ATOM     21  C   LIG    1        0.003  -0.005  -0.031  0.00  0.00    +0.130 C 
BRANCH  21  22
ATOM     22  C   LIG    1       -1.411  -0.526  -0.024  0.00  0.00    -0.120 A 
ATOM     23  C   LIG    1       -2.035  -0.783   1.163  0.00  0.00    +0.140 A 
ATOM     24  C   LIG    1       -3.350  -1.264   1.173  0.00  0.00    -0.210 A 
ATOM     25  C   LIG    1       -4.018  -1.490  -0.037  0.00  0.00    +0.120 A 
ATOM     26  C   LIG    1       -3.377  -1.232  -1.229  0.00  0.00    -0.080 A 
ATOM     27  C   LIG    1       -2.073  -0.750  -1.227  0.00  0.00    +0.180 A 
BRANCH  24  28
ATOM     28  C   LIG    1       -4.026  -1.536   2.448  0.00  0.00    +0.400 C 
ATOM     29  O   LIG    1       -3.446  -1.339   3.495  0.00  0.00    -0.460 OA
ATOM     30  C   LIG    1       -5.440  -2.058   2.456  0.00  0.00    +0.080 C 
ENDBRANCH  24  28
BRANCH  27  31
ATOM     31  O   LIG    1       -1.444  -0.498  -2.402  0.00  0.00    -0.300 OA
ATOM     32  C   LIG    1       -2.181  -0.750  -3.600  0.00  0.00    +0.250 C 
ENDBRANCH  27  31
ENDBRANCH  21  22
ENDBRANCH  20  21
ENDBRANCH  19  20
ENDBRANCH   3  19
TORSDOF 11
