REMARK  Name = ZINCpe00000RdvDl.0
REMARK                            x       y       z     vdW  Elec       q    Type
REMARK                         _______ _______ _______ _____ _____    ______ ____
ROOT
ATOM      1  N   LIG    1       -3.569   8.032   0.087  0.00  0.00    -0.580 N 
ATOM      2  C   LIG    1       -4.413   7.034   0.414  0.00  0.00    +0.610 C 
ATOM      3  O   LIG    1       -5.585   7.275   0.631  0.00  0.00    -0.520 OA
ENDROOT
BRANCH   2   4
ATOM      4  C   LIG    1       -3.915   5.647   0.510  0.00  0.00    -0.000 A 
ATOM      5  N   LIG    1       -2.658   5.258   0.417  0.00  0.00    -0.270 NA
ATOM      6  N   LIG    1       -2.580   3.982   0.544  0.00  0.00    -0.230 N 
ATOM      7  C   LIG    1       -3.817   3.456   0.741  0.00  0.00    +0.180 A 
ATOM      8  C   LIG    1       -4.695   4.486   0.726  0.00  0.00    +0.000 A 
BRANCH   6   9
ATOM      9  C   LIG    1       -1.391   3.241   0.492  0.00  0.00    +0.100 A 
ATOM     10  C   LIG    1       -1.421   1.865   0.681  0.00  0.00    +0.060 A 
ATOM     11  C   LIG    1       -0.250   1.137   0.635  0.00  0.00    +0.020 A 
ATOM     12  C   LIG    1        0.957   1.777   0.390  0.00  0.00    +0.130 A 
ATOM     13  C   LIG    1        0.987   3.151   0.196  0.00  0.00    -0.050 A 
ATOM     14  C   LIG    1       -0.184   3.881   0.247  0.00  0.00    +0.070 A 
BRANCH  12  15
ATOM     15  O   LIG    1        2.109   1.059   0.340  0.00  0.00    -0.310 OA
ATOM     16  C   LIG    1        3.314   1.783   0.083  0.00  0.00    +0.240 C 
ENDBRANCH  12  15
ENDBRANCH   6   9
ENDBRANCH   2   4
BRANCH   1  17
ATOM     17  C   LIG    1       -2.181   7.730  -0.270  0.00  0.00    +0.240 C 
ATOM     18  C   LIG    1       -1.404   9.036  -0.447  0.00  0.00    +0.080 C 
BRANCH  17  19
ATOM     19  C   LIG    1       -2.152   6.949  -1.559  0.00  0.00    +0.520 C 
ATOM     20  O   LIG    1       -3.095   7.002  -2.321  0.00  0.00    -0.540 OA
ATOM     21  N   LIG    1       -1.079   6.194  -1.866  0.00  0.00    -0.850 N 
ATOM     22  H   LIG    1       -1.032   5.744  -2.724  0.00  0.00    +0.400 HD
ATOM     23  H   LIG    1       -0.354   6.099  -1.228  0.00  0.00    +0.400 HD
ENDBRANCH  17  19
ENDBRANCH   1  17
BRANCH   1  24
ATOM     24  C   LIG    1       -4.040   9.419   0.087  0.00  0.00    +0.310 C 
BRANCH  24  25
ATOM     25  C   LIG    1       -3.966   9.982   1.508  0.00  0.00    +0.160 C 
BRANCH  25  27
ATOM     26  C   LIG    1       -2.421  10.542   3.253  0.00  0.00    +0.200 C 
ATOM     27  O   LIG    1       -2.602  10.029   1.932  0.00  0.00    -0.390 OA
ENDBRANCH  25  27
ENDBRANCH  24  25
ENDBRANCH   1  24
TORSDOF 8
