REMARK  Name = ZINCkj00000GePb3.0
REMARK                            x       y       z     vdW  Elec       q    Type
REMARK                         _______ _______ _______ _____ _____    ______ ____
ROOT
ATOM      1  C   LIG    1       -5.510   4.809  -6.735  0.00  0.00    +0.250 A 
ATOM      2  N   LIG    1       -5.231   3.905  -5.829  0.00  0.00    -0.300 NA
ATOM      3  N   LIG    1       -3.909   4.130  -5.435  0.00  0.00    -0.390 N 
ATOM      4  C   LIG    1       -3.119   3.393  -4.449  0.00  0.00    +0.350 C 
ATOM      5  C   LIG    1       -1.636   3.718  -4.664  0.00  0.00    +0.170 C 
ATOM      6  C   LIG    1       -1.450   5.237  -4.733  0.00  0.00    +0.070 C 
ATOM      7  C   LIG    1       -2.080   5.764  -6.029  0.00  0.00    +0.210 C 
ATOM      8  C   LIG    1       -3.469   5.184  -6.149  0.00  0.00    +0.270 A 
ATOM      9  N   LIG    1       -4.438   5.580  -6.925  0.00  0.00    -0.510 NA
ENDROOT
BRANCH   5  10
ATOM     10  N   LIG    1       -0.850   3.180  -3.545  0.00  0.00    -0.500 N 
ATOM     11  H   LIG    1        0.113   3.463  -3.644  0.00  0.00    +0.440 HD
ATOM     12  H   LIG    1       -1.218   3.534  -2.675  0.00  0.00    +0.440 HD
BRANCH  10  13
ATOM     13  C   LIG    1       -0.932   1.713  -3.551  0.00  0.00    +0.290 C 
BRANCH  13  14
ATOM     14  C   LIG    1       -0.114   1.152  -2.386  0.00  0.00    +0.230 C 
BRANCH  14  15
ATOM     15  O   LIG    1       -0.704   1.559  -1.150  0.00  0.00    -0.390 OA
BRANCH  15  16
ATOM     16  C   LIG    1       -0.013   1.086   0.008  0.00  0.00    +0.240 C 
BRANCH  16  17
ATOM     17  C   LIG    1       -0.729   1.579   1.267  0.00  0.00    +0.460 C 
ATOM     18  F   LIG    1       -0.748   2.978   1.274  0.00  0.00    -0.180 F 
ATOM     19  F   LIG    1       -0.052   1.116   2.400  0.00  0.00    -0.170 F 
ATOM     20  F   LIG    1       -2.041   1.095   1.277  0.00  0.00    -0.170 F 
ENDBRANCH  16  17
ENDBRANCH  15  16
ENDBRANCH  14  15
ENDBRANCH  13  14
ENDBRANCH  10  13
ENDBRANCH   5  10
BRANCH   1  22
ATOM     21  C   LIG    1       -6.815   4.109  -8.725  0.00  0.00    +0.040 C 
ATOM     22  C   LIG    1       -6.830   4.954  -7.449  0.00  0.00    +0.150 C 
ENDBRANCH   1  22
TORSDOF 7
