REMARK  Name = ZINCpk00000y6wQ8.2
REMARK                            x       y       z     vdW  Elec       q    Type
REMARK                         _______ _______ _______ _____ _____    ______ ____
ROOT
ATOM      1  C   LIG    1       -1.765  -0.905  -3.631  0.00  0.00    +0.280 C 
ENDROOT
BRANCH   1   2
ATOM      2  C   LIG    1       -2.251   0.206  -4.565  0.00  0.00    +0.110 C 
ATOM      3  C   LIG    1       -2.566  -0.366  -5.964  0.00  0.00    +0.060 C 
ATOM      4  C   LIG    1       -2.106   0.723  -6.955  0.00  0.00    +0.170 C 
ATOM      5  C   LIG    1       -1.552   1.861  -6.072  0.00  0.00    +0.150 C 
ATOM      6  N   LIG    1       -1.168   1.195  -4.801  0.00  0.00    -0.490 NA
BRANCH   4   7
ATOM      7  O   LIG    1       -3.213   1.189  -7.729  0.00  0.00    -0.560 OA
ATOM      8  H   LIG    1       -2.984   1.876  -8.370  0.00  0.00    +0.380 HD
ENDBRANCH   4   7
BRANCH   6   9
ATOM      9  C   LIG    1       -1.093   2.166  -3.700  0.00  0.00    +0.220 C 
BRANCH   9  10
ATOM     10  C   LIG    1        0.221   2.900  -3.766  0.00  0.00    -0.080 A 
ATOM     11  C   LIG    1        1.323   2.407  -3.092  0.00  0.00    +0.020 A 
ATOM     12  C   LIG    1        2.530   3.078  -3.156  0.00  0.00    +0.000 A 
ATOM     13  C   LIG    1        2.632   4.247  -3.887  0.00  0.00    +0.000 A 
ATOM     14  C   LIG    1        1.530   4.742  -4.557  0.00  0.00    +0.000 A 
ATOM     15  C   LIG    1        0.324   4.069  -4.496  0.00  0.00    +0.010 A 
ENDBRANCH   9  10
ENDBRANCH   6   9
ENDBRANCH   1   2
BRANCH   1  18
ATOM     16  O   LIG    1       -1.524  -3.190  -2.223  0.00  0.00    -0.530 OA
ATOM     17  C   LIG    1       -2.625  -2.979  -2.686  0.00  0.00    +0.490 C 
ATOM     18  N   LIG    1       -2.850  -1.863  -3.407  0.00  0.00    -0.720 N 
ATOM     19  H   LIG    1       -3.731  -1.694  -3.777  0.00  0.00    +0.400 HD
BRANCH  17  20
ATOM     20  C   LIG    1       -3.741  -3.965  -2.455  0.00  0.00    +0.270 C 
BRANCH  20  21
ATOM     21  C   LIG    1       -4.817  -3.319  -1.621  0.00  0.00    -0.120 A 
ATOM     22  C   LIG    1       -5.957  -2.823  -2.227  0.00  0.00    +0.020 A 
ATOM     23  C   LIG    1       -6.944  -2.231  -1.462  0.00  0.00    +0.010 A 
ATOM     24  C   LIG    1       -6.792  -2.133  -0.091  0.00  0.00    +0.020 A 
ATOM     25  C   LIG    1       -5.653  -2.631   0.514  0.00  0.00    +0.020 A 
ATOM     26  C   LIG    1       -4.666  -3.223  -0.251  0.00  0.00    +0.010 A 
ENDBRANCH  20  21
BRANCH  20  27
ATOM     27  O   LIG    1       -3.231  -5.111  -1.770  0.00  0.00    -0.530 OA
ATOM     28  H   LIG    1       -2.842  -4.912  -0.907  0.00  0.00    +0.380 HD
ENDBRANCH  20  27
ENDBRANCH  17  20
ENDBRANCH   1  18
TORSDOF 8
