REMARK  Name = ZINCpe000000YTXH.0
REMARK                            x       y       z     vdW  Elec       q    Type
REMARK                         _______ _______ _______ _____ _____    ______ ____
ROOT
ATOM      1  N   LIG    1       -2.349   8.245   0.049  0.00  0.00    -0.520 NA
ATOM      2  C   LIG    1       -2.559   8.033  -1.389  0.00  0.00    +0.180 C 
ATOM      3  C   LIG    1       -4.058   8.101  -1.699  0.00  0.00    +0.310 C 
ATOM      4  N   LIG    1       -4.587   9.370  -1.174  0.00  0.00    -0.600 N 
ATOM      5  C   LIG    1       -4.299   9.717   0.226  0.00  0.00    +0.300 C 
ATOM      6  C   LIG    1       -2.790   9.585   0.460  0.00  0.00    +0.170 C 
ENDROOT
BRANCH   4   7
ATOM      7  C   LIG    1       -5.336  10.214  -1.976  0.00  0.00    +0.450 A 
ATOM      8  N   LIG    1       -6.079   9.722  -2.949  0.00  0.00    -0.530 NA
ATOM      9  C   LIG    1       -6.810  10.521  -3.733  0.00  0.00    +0.260 A 
ATOM     10  C   LIG    1       -6.817  11.858  -3.564  0.00  0.00    +0.160 A 
ATOM     11  N   LIG    1       -6.064  12.425  -2.569  0.00  0.00    -0.240 N 
ATOM     12  N   LIG    1       -5.862  13.742  -2.146  0.00  0.00    -0.300 NA
ATOM     13  C   LIG    1       -5.027  13.738  -1.129  0.00  0.00    +0.260 A 
ATOM     14  C   LIG    1       -4.658  12.431  -0.853  0.00  0.00    -0.100 A 
ATOM     15  C   LIG    1       -5.315  11.611  -1.756  0.00  0.00    +0.030 A 
ENDBRANCH   4   7
BRANCH   1  16
ATOM     16  C   LIG    1       -0.945   8.018   0.415  0.00  0.00    +0.220 C 
BRANCH  16  18
ATOM     17  O   LIG    1       -1.441   5.797  -0.208  0.00  0.00    -0.450 OA
ATOM     18  C   LIG    1       -0.600   6.566   0.205  0.00  0.00    +0.500 C 
ATOM     19  N   LIG    1        0.644   6.123   0.478  0.00  0.00    -0.670 N 
ATOM     20  H   LIG    1        1.295   6.720   0.877  0.00  0.00    +0.420 HD
BRANCH  19  21
ATOM     21  C   LIG    1        0.994   4.805   0.185  0.00  0.00    +0.360 A 
ATOM     22  C   LIG    1        2.306   4.385   0.365  0.00  0.00    -0.070 A 
ATOM     23  C   LIG    1        2.639   3.073   0.076  0.00  0.00    +0.090 A 
ATOM     24  C   LIG    1        1.645   2.227  -0.395  0.00  0.00    -0.060 A 
ATOM     25  C   LIG    1        0.361   2.712  -0.550  0.00  0.00    +0.290 A 
ATOM     26  N   LIG    1        0.072   3.966  -0.262  0.00  0.00    -0.480 NA
ENDBRANCH  19  21
ENDBRANCH  16  18
ENDBRANCH   1  16
TORSDOF 4
