REMARK  Name = ZINCqH00000059Bf.0
REMARK                            x       y       z     vdW  Elec       q    Type
REMARK                         _______ _______ _______ _____ _____    ______ ____
ROOT
ATOM      1  C   LIG    1        0.497   4.087   0.012  0.00  0.00    +0.150 A 
ATOM      2  C   LIG    1       -0.809   3.619   0.025  0.00  0.00    +0.010 A 
ATOM      3  C   LIG    1       -1.057   2.259   0.009  0.00  0.00    +0.060 A 
ATOM      4  C   LIG    1       -0.003   1.360  -0.010  0.00  0.00    +0.020 A 
ATOM      5  O   LIG    1        0.020  -0.006  -0.025  0.00  0.00    -0.290 OA
ATOM      6  C   LIG    1        1.357  -0.368   0.350  0.00  0.00    +0.270 C 
ATOM      7  O   LIG    1        2.155   0.755  -0.046  0.00  0.00    -0.300 OA
ATOM      8  C   LIG    1        1.796  -1.623  -0.395  0.00  0.00    +0.060 C 
ATOM      9  C   LIG    1        0.908  -2.801   0.017  0.00  0.00    +0.030 C 
ATOM     10  C   LIG    1        1.022  -3.018   1.527  0.00  0.00    +0.020 C 
ATOM     11  C   LIG    1        0.558  -1.759   2.263  0.00  0.00    +0.030 C 
ATOM     12  C   LIG    1        1.445  -0.579   1.858  0.00  0.00    +0.010 C 
ATOM     13  C   LIG    1        1.310   1.828  -0.023  0.00  0.00    +0.050 A 
ATOM     14  C   LIG    1        1.557   3.190  -0.012  0.00  0.00    +0.040 A 
ENDROOT
BRANCH   1  16
ATOM     15  C   LIG    1        1.816   5.952   0.685  0.00  0.00    +0.510 C 
ATOM     16  N   LIG    1        0.747   5.466   0.023  0.00  0.00    -0.670 N 
ATOM     17  H   LIG    1        0.151   6.071  -0.445  0.00  0.00    +0.410 HD
ATOM     18  O   LIG    1        2.608   5.191   1.200  0.00  0.00    -0.490 OA
BRANCH  15  19
ATOM     19  C   LIG    1        2.027   7.440   0.785  0.00  0.00    +0.220 C 
BRANCH  19  21
ATOM     20  C   LIG    1        3.105   7.284   2.948  0.00  0.00    +0.210 C 
ATOM     21  N   LIG    1        3.252   7.711   1.550  0.00  0.00    -0.520 NA
BRANCH  21  22
ATOM     22  C   LIG    1        3.620   9.130   1.469  0.00  0.00    +0.310 C 
BRANCH  22  23
ATOM     23  C   LIG    1        4.997   9.326   2.050  0.00  0.00    -0.010 A 
ATOM     24  C   LIG    1        6.156   9.253   1.371  0.00  0.00    -0.030 A 
ATOM     25  C   LIG    1        7.192   9.503   2.300  0.00  0.00    -0.070 A 
ATOM     26  C   LIG    1        6.605   9.706   3.493  0.00  0.00    +0.160 A 
ATOM     27  O   LIG    1        5.275   9.598   3.336  0.00  0.00    -0.180 OA
ENDBRANCH  22  23
ENDBRANCH  21  22
ENDBRANCH  19  21
ENDBRANCH  15  19
ENDBRANCH   1  16
TORSDOF 5
