REMARK  Name = ZINCrH000004sFWU.0
REMARK                            x       y       z     vdW  Elec       q    Type
REMARK                         _______ _______ _______ _____ _____    ______ ____
ROOT
ATOM      1  C   LIG    1       -4.753   2.474  -0.944  0.00  0.00    +0.180 C 
ATOM      2  C   LIG    1       -3.339   2.554  -0.429  0.00  0.00    +0.140 A 
ATOM      3  N   LIG    1       -2.396   1.692  -0.667  0.00  0.00    -0.250 NA
ATOM      4  N   LIG    1       -1.223   2.095  -0.022  0.00  0.00    -0.300 N 
ATOM      5  C   LIG    1       -1.481   3.271   0.632  0.00  0.00    +0.030 A 
ATOM      6  S   LIG    1       -0.741   4.500   1.649  0.00  0.00    +0.220 S 
ATOM      7  C   LIG    1       -2.243   5.406   1.725  0.00  0.00    -0.280 A 
ATOM      8  C   LIG    1       -3.201   4.785   1.020  0.00  0.00    +0.200 A 
ATOM      9  C   LIG    1       -2.808   3.592   0.398  0.00  0.00    -0.220 A 
ENDROOT
BRANCH   4  10
ATOM     10  C   LIG    1        0.003   1.419  -0.045  0.00  0.00    +0.150 A 
ATOM     11  C   LIG    1        1.193   2.135  -0.056  0.00  0.00    +0.000 A 
ATOM     12  C   LIG    1        2.400   1.465  -0.084  0.00  0.00    +0.050 A 
ATOM     13  C   LIG    1        2.425   0.082  -0.102  0.00  0.00    +0.010 A 
ATOM     14  C   LIG    1        1.242  -0.634  -0.092  0.00  0.00    +0.040 A 
ATOM     15  C   LIG    1        0.032   0.030  -0.063  0.00  0.00    +0.030 A 
ENDBRANCH   4  10
BRANCH   7  16
ATOM     16  C   LIG    1       -2.426   6.663   2.456  0.00  0.00    +0.600 C 
ATOM     17  N   LIG    1       -1.394   7.204   3.135  0.00  0.00    -0.660 N 
ATOM     18  H   LIG    1       -0.555   6.723   3.207  0.00  0.00    +0.420 HD
ATOM     19  O   LIG    1       -3.509   7.219   2.450  0.00  0.00    -0.510 OA
BRANCH  17  20
ATOM     20  C   LIG    1       -1.533   8.453   3.732  0.00  0.00    +0.220 A 
ATOM     21  C   LIG    1       -2.459   9.363   3.240  0.00  0.00    +0.010 A 
ATOM     22  C   LIG    1       -2.595  10.602   3.834  0.00  0.00    +0.070 A 
ATOM     23  C   LIG    1       -1.811  10.947   4.922  0.00  0.00    -0.020 A 
ATOM     24  C   LIG    1       -0.886  10.057   5.425  0.00  0.00    +0.070 A 
ATOM     25  C   LIG    1       -0.742   8.798   4.838  0.00  0.00    -0.190 A 
BRANCH  25  26
ATOM     26  C   LIG    1        0.241   7.838   5.375  0.00  0.00    +0.570 C 
ATOM     27  O   LIG    1        0.432   6.781   4.805  0.00  0.00    -0.550 OA
ATOM     28  N   LIG    1        0.928   8.133   6.497  0.00  0.00    -0.840 N 
ATOM     29  H   LIG    1        1.575   7.502   6.849  0.00  0.00    +0.410 HD
ATOM     30  H   LIG    1        0.776   8.976   6.951  0.00  0.00    +0.400 HD
ENDBRANCH  25  26
ENDBRANCH  17  20
ENDBRANCH   7  16
TORSDOF 4
