REMARK  Name = ZINCnE00000dmQvz.0
REMARK                            x       y       z     vdW  Elec       q    Type
REMARK                         _______ _______ _______ _____ _____    ______ ____
ROOT
ATOM      1  N   LIG    1        1.072  -0.694   0.257  0.00  0.00    -0.730 N 
ATOM      2  H   LIG    1        1.865  -0.137   0.301  0.00  0.00    +0.400 HD
ATOM      3  C   LIG    1       -0.145  -0.150   0.452  0.00  0.00    +0.570 C 
ATOM      4  O   LIG    1       -1.139  -0.848   0.397  0.00  0.00    -0.520 OA
ENDROOT
BRANCH   3   5
ATOM      5  C   LIG    1       -0.272   1.293   0.732  0.00  0.00    -0.200 A 
ATOM      6  C   LIG    1        0.868   2.097   0.796  0.00  0.00    +0.040 A 
ATOM      7  C   LIG    1        0.753   3.449   1.058  0.00  0.00    -0.040 A 
ATOM      8  C   LIG    1       -0.486   4.020   1.260  0.00  0.00    +0.090 A 
ATOM      9  C   LIG    1       -1.642   3.235   1.201  0.00  0.00    -0.170 A 
ATOM     10  C   LIG    1       -1.537   1.863   0.929  0.00  0.00    +0.210 A 
BRANCH   9  11
ATOM     11  C   LIG    1       -2.963   3.847   1.415  0.00  0.00    +0.520 C 
ATOM     12  O   LIG    1       -3.972   3.157   1.363  0.00  0.00    -0.670 OA
ATOM     13  O   LIG    1       -3.052   5.045   1.647  0.00  0.00    -0.690 OA
ENDBRANCH   9  11
BRANCH  10  14
ATOM     14  O   LIG    1       -2.649   1.094   0.864  0.00  0.00    -0.450 OA
ATOM     15  H   LIG    1       -2.910   0.707   1.711  0.00  0.00    +0.390 HD
ENDBRANCH  10  14
ENDBRANCH   3   5
BRANCH   1  17
ATOM     16  C   LIG    1        1.066  -2.368  -1.526  0.00  0.00    +0.040 C 
ATOM     17  C   LIG    1        1.198  -2.127  -0.021  0.00  0.00    +0.290 C 
BRANCH  17  18
ATOM     18  C   LIG    1        2.545  -2.614   0.450  0.00  0.00    -0.100 A 
ATOM     19  C   LIG    1        3.614  -1.740   0.508  0.00  0.00    +0.060 A 
ATOM     20  C   LIG    1        4.849  -2.186   0.939  0.00  0.00    +0.050 A 
ATOM     21  C   LIG    1        5.016  -3.506   1.314  0.00  0.00    -0.070 A 
ATOM     22  C   LIG    1        3.947  -4.382   1.257  0.00  0.00    +0.030 A 
ATOM     23 BR   LIG    1        6.707  -4.115   1.905  0.00  0.00    -0.040 Br
ATOM     24  C   LIG    1        2.709  -3.935   0.829  0.00  0.00    +0.120 A 
ATOM     25  F   LIG    1        1.663  -4.788   0.778  0.00  0.00    -0.130 F 
ENDBRANCH  17  18
ENDBRANCH   1  17
TORSDOF 5
