REMARK  Name = ZINCpk00000xIfpV.0
REMARK                            x       y       z     vdW  Elec       q    Type
REMARK                         _______ _______ _______ _____ _____    ______ ____
ROOT
ATOM      1  N   LIG    1        3.621  -0.659  -0.036  0.00  0.00    -0.660 N 
ATOM      2  H   LIG    1        3.666  -1.562  -0.389  0.00  0.00    +0.420 HD
ATOM      3  C   LIG    1        4.732  -0.070   0.450  0.00  0.00    +0.520 C 
ATOM      4  O   LIG    1        4.658   1.017   0.982  0.00  0.00    -0.480 OA
ENDROOT
BRANCH   1   7
ATOM      5  C   LIG    1        1.184   2.098  -0.025  0.00  0.00    +0.220 A 
ATOM      6  C   LIG    1        2.392   1.418  -0.031  0.00  0.00    -0.060 A 
ATOM      7  C   LIG    1        2.404   0.030  -0.031  0.00  0.00    +0.240 A 
ATOM      8  C   LIG    1        1.206  -0.673  -0.025  0.00  0.00    -0.150 A 
ATOM      9  C   LIG    1        0.004   0.008  -0.021  0.00  0.00    +0.170 A 
ATOM     10  C   LIG    1        1.218  -2.180  -0.025  0.00  0.00    +0.120 C 
ATOM     11  C   LIG    1       -0.010   1.390  -0.020  0.00  0.00    -0.100 A 
BRANCH  11  12
ATOM     12  N   LIG    1       -1.300   2.115  -0.021  0.00  0.00    +0.040 N 
ATOM     13  O   LIG    1       -1.313   3.333  -0.020  0.00  0.00    -0.140 OA
ATOM     14  O   LIG    1       -2.348   1.495  -0.021  0.00  0.00    -0.180 OA
ENDBRANCH  11  12
BRANCH   5  16
ATOM     15  C   LIG    1        2.434   4.120  -0.030  0.00  0.00    +0.260 C 
ATOM     16  O   LIG    1        1.168   3.457  -0.025  0.00  0.00    -0.280 OA
ENDBRANCH   5  16
ENDBRANCH   1   7
BRANCH   3  17
ATOM     17  C   LIG    1        6.065  -0.762   0.332  0.00  0.00    +0.280 C 
BRANCH  17  18
ATOM     18  O   LIG    1        7.096   0.070   0.926  0.00  0.00    -0.310 OA
BRANCH  18  19
ATOM     19  C   LIG    1        8.356  -0.407   0.903  0.00  0.00    +0.540 C 
ATOM     20  O   LIG    1        8.586  -1.489   0.400  0.00  0.00    -0.490 OA
BRANCH  19  21
ATOM     21  C   LIG    1        9.459   0.386   1.490  0.00  0.00    +0.030 A 
ATOM     22  C   LIG    1       10.763  -0.106   1.467  0.00  0.00    +0.310 A 
ATOM     23  N   LIG    1       11.745   0.607   1.992  0.00  0.00    -0.440 NA
ATOM     24  C   LIG    1       11.491   1.783   2.537  0.00  0.00    +0.270 A 
ATOM     25  C   LIG    1       10.193   2.275   2.561  0.00  0.00    +0.240 A 
ATOM     26  N   LIG    1        9.210   1.574   2.036  0.00  0.00    -0.380 NA
ENDBRANCH  19  21
ENDBRANCH  18  19
ENDBRANCH  17  18
ENDBRANCH   3  17
TORSDOF 7
