REMARK  Name = ZINCtV000002yUPr.0
REMARK                            x       y       z     vdW  Elec       q    Type
REMARK                         _______ _______ _______ _____ _____    ______ ____
ROOT
ATOM      1  C   LIG    1        1.453   1.970  -0.201  0.00  0.00    -0.080 A 
ATOM      2  C   LIG    1        1.429   3.367  -0.194  0.00  0.00    +0.040 A 
ATOM      3  C   LIG    1        2.604   4.074  -0.057  0.00  0.00    +0.050 A 
ATOM      4  C   LIG    1        3.812   3.407   0.075  0.00  0.00    +0.040 A 
ATOM      5  C   LIG    1        3.852   2.028   0.069  0.00  0.00    +0.070 A 
ATOM      6  C   LIG    1        2.678   1.297  -0.062  0.00  0.00    -0.100 A 
ENDROOT
BRANCH   1   9
ATOM      7  N   LIG    1       -0.973   1.858  -0.480  0.00  0.00    -0.670 N 
ATOM      8  H   LIG    1       -1.003   2.825  -0.402  0.00  0.00    +0.410 HD
ATOM      9  C   LIG    1        0.200   1.208  -0.347  0.00  0.00    +0.550 C 
ATOM     10  O   LIG    1        0.226  -0.008  -0.353  0.00  0.00    -0.490 OA
BRANCH   7  16
ATOM     11  C   LIG    1       -3.356   1.577  -0.206  0.00  0.00    -0.110 A 
ATOM     12  C   LIG    1       -4.513   0.868  -0.459  0.00  0.00    +0.030 A 
ATOM     13  C   LIG    1       -4.468  -0.282  -1.226  0.00  0.00    -0.010 A 
ATOM     14  C   LIG    1       -3.264  -0.723  -1.745  0.00  0.00    +0.030 A 
ATOM     15  C   LIG    1       -2.104  -0.016  -1.500  0.00  0.00    +0.010 A 
ATOM     16  C   LIG    1       -2.146   1.140  -0.731  0.00  0.00    +0.150 A 
BRANCH  11  18
ATOM     17  C   LIG    1       -3.527   4.050  -0.276  0.00  0.00    +0.020 C 
ATOM     18  C   LIG    1       -3.405   2.826   0.635  0.00  0.00    +0.060 C 
ENDBRANCH  11  18
ENDBRANCH   7  16
ENDBRANCH   1   9
BRANCH   6  19
ATOM     19  S   LIG    1        2.726  -0.464  -0.063  0.00  0.00    +0.140 S 
BRANCH  19  20
ATOM     20  C   LIG    1        2.175  -0.785   1.580  0.00  0.00    +0.210 A 
ATOM     21  C   LIG    1        2.140  -2.111   2.082  0.00  0.00    -0.160 A 
ATOM     22  C   LIG    1        1.698  -2.294   3.396  0.00  0.00    +0.100 A 
ATOM     23  S   LIG    1        1.748  -4.003   3.803  0.00  0.00    +0.170 S 
ATOM     24  C   LIG    1        2.346  -4.433   2.212  0.00  0.00    -0.170 A 
ATOM     25  C   LIG    1        2.656  -5.841   1.773  0.00  0.00    +0.150 C 
ATOM     26  N   LIG    1        1.321  -1.226   4.110  0.00  0.00    -0.500 NA
ATOM     27  C   LIG    1        1.366  -0.018   3.598  0.00  0.00    +0.530 A 
ATOM     28  C   LIG    1        2.502  -3.367   1.451  0.00  0.00    -0.070 A 
ATOM     29  C   LIG    1        3.014  -3.446   0.036  0.00  0.00    +0.140 C 
ATOM     30  N   LIG    1        1.781   0.208   2.365  0.00  0.00    -0.520 NA
ENDBRANCH  19  20
ENDBRANCH   6  19
TORSDOF 5
