REMARK  Name = ZINCrH000004nqWE.1
REMARK                            x       y       z     vdW  Elec       q    Type
REMARK                         _______ _______ _______ _____ _____    ______ ____
ROOT
ATOM      1  N   LIG    1        3.767   3.108   0.429  0.00  0.00    -0.710 N 
ATOM      2  H   LIG    1        3.194   3.825   0.113  0.00  0.00    +0.420 HD
ATOM      3  C   LIG    1        3.240   1.900   0.712  0.00  0.00    +0.590 C 
ATOM      4  O   LIG    1        3.958   1.002   1.108  0.00  0.00    -0.530 OA
ENDROOT
BRANCH   3   5
ATOM      5  C   LIG    1        1.796   1.669   0.544  0.00  0.00    -0.000 A 
ATOM      6  C   LIG    1        1.216   0.478   0.814  0.00  0.00    -0.170 A 
ATOM      7  S   LIG    1       -0.462   0.586   0.502  0.00  0.00    +0.230 S 
ATOM      8  C   LIG    1       -0.281   2.268   0.015  0.00  0.00    +0.100 A 
ATOM      9  C   LIG    1        1.935  -0.750   1.310  0.00  0.00    +0.180 C 
ATOM     10  N   LIG    1        0.969   2.614   0.116  0.00  0.00    -0.420 NA
BRANCH   8  11
ATOM     11  C   LIG    1       -1.372   3.143  -0.441  0.00  0.00    +0.050 A 
ATOM     12  C   LIG    1       -2.684   2.793  -0.557  0.00  0.00    -0.010 A 
ATOM     13  C   LIG    1       -3.367   3.932  -1.024  0.00  0.00    -0.050 A 
ATOM     14  C   LIG    1       -2.452   4.911  -1.169  0.00  0.00    +0.200 A 
ATOM     15  O   LIG    1       -1.249   4.434  -0.811  0.00  0.00    -0.150 OA
ENDBRANCH   8  11
ENDBRANCH   3   5
BRANCH   1  16
ATOM     16  C   LIG    1        5.204   3.338   0.596  0.00  0.00    +0.280 C 
BRANCH  16  17
ATOM     17  C   LIG    1        5.538   4.780   0.209  0.00  0.00    +0.210 C 
BRANCH  17  22
ATOM     18  C   LIG    1        9.174   5.696  -0.258  0.00  0.00    +0.130 A 
ATOM     19  C   LIG    1        9.661   5.555   1.033  0.00  0.00    -0.080 A 
ATOM     20  C   LIG    1        8.812   5.165   2.051  0.00  0.00    +0.050 A 
ATOM     21  C   LIG    1        7.478   4.920   1.784  0.00  0.00    -0.020 A 
ATOM     22  C   LIG    1        6.992   5.054   0.497  0.00  0.00    -0.070 A 
ATOM     23  C   LIG    1        7.836   5.444  -0.524  0.00  0.00    -0.010 A 
BRANCH  18  25
ATOM     24  C   LIG    1       11.372   6.322  -0.914  0.00  0.00    +0.250 C 
ATOM     25  O   LIG    1       10.007   6.080  -1.261  0.00  0.00    -0.320 OA
ENDBRANCH  18  25
ENDBRANCH  17  22
BRANCH  17  26
ATOM     26  N   LIG    1        4.702   5.703   0.988  0.00  0.00    -0.530 NA
ATOM     27  C   LIG    1        5.341   7.021   1.105  0.00  0.00    +0.200 C 
ATOM     28  C   LIG    1        4.398   5.146   2.313  0.00  0.00    +0.180 C 
ENDBRANCH  17  26
ENDBRANCH  16  17
ENDBRANCH   1  16
TORSDOF 7
