REMARK  Name = ZINCpe00000gMbrh.0
REMARK                            x       y       z     vdW  Elec       q    Type
REMARK                         _______ _______ _______ _____ _____    ______ ____
ROOT
ATOM      1  C   LIG    1       -0.050   1.539   0.184  0.00  0.00    +0.200 C 
ATOM      2  N   LIG    1       -0.034   0.074   0.070  0.00  0.00    -0.520 NA
ATOM      3  C   LIG    1       -1.397  -0.472   0.104  0.00  0.00    +0.180 C 
ATOM      4  C   LIG    1       -1.350  -1.973  -0.198  0.00  0.00    +0.310 C 
ATOM      5  N   LIG    1       -0.403  -2.607   0.732  0.00  0.00    -0.990 NA
ATOM      6  C   LIG    1        0.944  -2.030   0.855  0.00  0.00    +0.340 C 
ATOM      7  C   LIG    1        0.806  -0.526   1.115  0.00  0.00    +0.220 C 
ENDROOT
BRANCH   7   8
ATOM      8  C   LIG    1        2.170   0.115   1.094  0.00  0.00    +0.210 A 
ATOM      9  N   LIG    1        3.026   0.050   0.111  0.00  0.00    -0.460 NA
ATOM     10  C   LIG    1        4.131   0.736   0.440  0.00  0.00    +0.150 A 
ATOM     11  C   LIG    1        3.952   1.246   1.673  0.00  0.00    +0.130 A 
ATOM     12  N   LIG    1        2.706   0.858   2.086  0.00  0.00    -0.570 N 
ATOM     13  H   LIG    1        2.288   1.073   2.934  0.00  0.00    +0.410 HD
ENDBRANCH   7   8
BRANCH   5  14
ATOM     14  S   LIG    1       -0.842  -3.936   1.617  0.00  0.00    +2.700 S 
ATOM     15  O   LIG    1        0.362  -4.611   1.953  0.00  0.00    -0.940 OA
ATOM     16  O   LIG    1       -1.909  -4.555   0.910  0.00  0.00    -0.950 OA
BRANCH  14  17
ATOM     17  C   LIG    1       -1.524  -3.351   3.133  0.00  0.00    -0.680 A 
ATOM     18  C   LIG    1       -2.857  -3.575   3.422  0.00  0.00    +0.130 A 
ATOM     19  C   LIG    1       -3.395  -3.117   4.611  0.00  0.00    +0.020 A 
ATOM     20  C   LIG    1       -2.602  -2.432   5.512  0.00  0.00    +0.080 A 
ATOM     21  C   LIG    1       -1.264  -2.204   5.228  0.00  0.00    +0.030 A 
ATOM     22  O   LIG    1       -0.497  -1.525   6.124  0.00  0.00    -0.300 OA
ATOM     23  C   LIG    1        0.922  -1.641   5.975  0.00  0.00    +0.240 C 
ATOM     24  C   LIG    1        1.268  -1.448   4.492  0.00  0.00    +0.220 C 
ATOM     25  O   LIG    1        0.590  -2.460   3.739  0.00  0.00    -0.300 OA
ATOM     26  C   LIG    1       -0.721  -2.671   4.037  0.00  0.00    +0.150 A 
ENDBRANCH  14  17
ENDBRANCH   5  14
TORSDOF 3
