REMARK  Name = ZINCrg000000qPrH.0
REMARK                            x       y       z     vdW  Elec       q    Type
REMARK                         _______ _______ _______ _____ _____    ______ ____
ROOT
ATOM      1  C   LIG    1        1.251   1.966   0.007  0.00  0.00    -0.070 A 
ATOM      2  N   LIG    1        1.374   3.268   0.023  0.00  0.00    -0.210 NA
ATOM      3  N   LIG    1        2.554   3.717   0.020  0.00  0.00    -0.260 NA
ATOM      4  C   LIG    1        3.529   2.859   0.002  0.00  0.00    -0.000 A 
ATOM      5  S   LIG    1        2.874   1.276  -0.006  0.00  0.00    +0.280 S 
ENDROOT
BRANCH   1   8
ATOM      6  N   LIG    1       -1.191   1.870   0.018  0.00  0.00    -0.640 N 
ATOM      7  H   LIG    1       -1.205   2.837   0.098  0.00  0.00    +0.420 HD
ATOM      8  C   LIG    1       -0.014   1.212   0.007  0.00  0.00    +0.610 C 
ATOM      9  O   LIG    1        0.002  -0.004  -0.009  0.00  0.00    -0.500 OA
BRANCH   6  13
ATOM     10  C   LIG    1       -4.768  -0.249  -0.290  0.00  0.00    +0.120 A 
ATOM     11  C   LIG    1       -3.694  -0.797   0.397  0.00  0.00    +0.010 A 
ATOM     12  C   LIG    1       -2.509  -0.096   0.499  0.00  0.00    +0.070 A 
ATOM     13  C   LIG    1       -2.392   1.158  -0.086  0.00  0.00    +0.100 A 
ATOM     14  C   LIG    1       -3.468   1.708  -0.770  0.00  0.00    +0.040 A 
ATOM     15  C   LIG    1       -4.651   1.004  -0.875  0.00  0.00    -0.060 A 
BRANCH  10  17
ATOM     16  C   LIG    1       -6.998  -0.316  -1.112  0.00  0.00    +0.250 C 
ATOM     17  O   LIG    1       -5.934  -0.940  -0.390  0.00  0.00    -0.320 OA
ENDBRANCH  10  17
ENDBRANCH   6  13
ENDBRANCH   1   8
BRANCH   4  18
ATOM     18  C   LIG    1        4.996   3.200  -0.004  0.00  0.00    +0.320 C 
BRANCH  18  19
ATOM     19  N   LIG    1        5.483   3.294   1.378  0.00  0.00    -0.540 NA
ATOM     20  C   LIG    1        4.860   4.422   2.081  0.00  0.00    +0.200 C 
ATOM     21  C   LIG    1        5.277   4.402   3.553  0.00  0.00    +0.080 C 
ATOM     22  C   LIG    1        6.802   4.498   3.648  0.00  0.00    -0.440 C 
ATOM     23  C   LIG    1        7.428   3.338   2.868  0.00  0.00    +0.070 C 
ATOM     24  C   LIG    1        6.948   3.389   1.415  0.00  0.00    +0.210 C 
BRANCH  22  25
ATOM     25  S   LIG    1        7.309   4.402   5.387  0.00  0.00    +2.610 S 
ATOM     26  O   LIG    1        8.670   4.784   5.531  0.00  0.00    -0.960 OA
ATOM     27  O   LIG    1        6.816   3.211   5.985  0.00  0.00    -0.960 OA
BRANCH  25  28
ATOM     28  N   LIG    1        6.462   5.614   6.131  0.00  0.00    -1.250 NA
ATOM     29  H   LIG    1        6.567   5.765   7.084  0.00  0.00    +0.420 HD
ATOM     30  H   LIG    1        5.861   6.174   5.615  0.00  0.00    +0.410 HD
ENDBRANCH  25  28
ENDBRANCH  22  25
ENDBRANCH  18  19
ENDBRANCH   4  18
TORSDOF 7
