REMARK  Name = ZINCpe00000VVGII.2
REMARK                            x       y       z     vdW  Elec       q    Type
REMARK                         _______ _______ _______ _____ _____    ______ ____
ROOT
ATOM      1  C   LIG    1       -1.768   0.201   0.780  0.00  0.00    +0.060 C 
ATOM      2  C   LIG    1       -2.642   0.935  -0.239  0.00  0.00    +0.180 C 
ENDROOT
BRANCH   2   3
ATOM      3  C   LIG    1       -3.963   0.223  -0.374  0.00  0.00    +0.480 C 
ATOM      4  N   LIG    1       -4.825   0.200   0.662  0.00  0.00    -0.610 N 
ATOM      5  C   LIG    1       -4.536   0.948   1.893  0.00  0.00    +0.270 C 
ATOM      6  C   LIG    1       -5.729   1.856   2.210  0.00  0.00    +0.030 C 
ATOM      7  C   LIG    1       -7.004   1.012   2.272  0.00  0.00    +0.030 C 
ATOM      8  C   LIG    1       -7.247   0.351   0.913  0.00  0.00    -0.020 C 
ATOM      9  C   LIG    1       -6.074  -0.569   0.579  0.00  0.00    +0.310 C 
ATOM     10  O   LIG    1       -4.250  -0.330  -1.415  0.00  0.00    -0.530 OA
BRANCH   8  11
ATOM     11  C   LIG    1       -8.521  -0.453   0.965  0.00  0.00    +0.520 C 
ATOM     12  O   LIG    1       -8.493  -1.647   0.755  0.00  0.00    -0.540 OA
ATOM     13  N   LIG    1       -9.691   0.155   1.245  0.00  0.00    -0.850 N 
ATOM     14  H   LIG    1      -10.511  -0.362   1.279  0.00  0.00    +0.400 HD
ATOM     15  H   LIG    1       -9.713   1.110   1.413  0.00  0.00    +0.400 HD
ENDBRANCH   8  11
ENDBRANCH   2   3
BRANCH   2  16
ATOM     16  N   LIG    1       -1.962   0.956  -1.541  0.00  0.00    -0.480 NA
ATOM     17  C   LIG    1       -1.648  -0.406  -1.993  0.00  0.00    +0.170 C 
ATOM     18  C   LIG    1       -0.815  -0.340  -3.275  0.00  0.00    +0.020 C 
ATOM     19  C   LIG    1       -1.605   0.407  -4.354  0.00  0.00    +0.000 C 
ATOM     20  C   LIG    1       -1.961   1.804  -3.839  0.00  0.00    +0.020 C 
ATOM     21  C   LIG    1       -2.761   1.676  -2.541  0.00  0.00    +0.140 C 
BRANCH  21  22
ATOM     22  C   LIG    1       -3.101   3.071  -2.012  0.00  0.00    +0.320 C 
BRANCH  22  23
ATOM     23  N   LIG    1       -1.864   3.810  -1.752  0.00  0.00    -0.360 N 
ATOM     24  C   LIG    1       -1.518   4.997  -2.295  0.00  0.00    +0.210 A 
ATOM     25  C   LIG    1       -0.306   5.339  -1.800  0.00  0.00    -0.130 A 
ATOM     26  C   LIG    1        0.103   4.328  -0.924  0.00  0.00    +0.210 A 
ATOM     27  N   LIG    1       -0.832   3.414  -0.890  0.00  0.00    -0.250 NA
ENDBRANCH  22  23
ENDBRANCH  21  22
ENDBRANCH   2  16
TORSDOF 5
