REMARK  Name = ZINCqH0000034GiJ.0
REMARK                            x       y       z     vdW  Elec       q    Type
REMARK                         _______ _______ _______ _____ _____    ______ ____
ROOT
ATOM      1  C   LIG    1       -2.042  -2.190  -2.447  0.00  0.00    +0.160 A 
ATOM      2  C   LIG    1       -0.916  -2.885  -2.023  0.00  0.00    +0.010 A 
ATOM      3  C   LIG    1       -0.496  -4.005  -2.714  0.00  0.00    +0.040 A 
ATOM      4  C   LIG    1       -1.192  -4.429  -3.836  0.00  0.00    +0.080 A 
ATOM      5  C   LIG    1       -2.313  -3.732  -4.263  0.00  0.00    +0.040 A 
ATOM      6  C   LIG    1       -2.737  -2.616  -3.571  0.00  0.00    +0.040 A 
ENDROOT
BRANCH   1   8
ATOM      7  C   LIG    1       -2.500   0.247  -2.408  0.00  0.00    +0.310 C 
ATOM      8  N   LIG    1       -2.471  -1.059  -1.745  0.00  0.00    -0.950 N 
BRANCH   8   9
ATOM      9  S   LIG    1       -2.947  -1.196  -0.165  0.00  0.00    +2.690 S 
ATOM     10  O   LIG    1       -3.733  -0.047   0.119  0.00  0.00    -0.940 OA
ATOM     11  O   LIG    1       -3.425  -2.525  -0.003  0.00  0.00    -0.940 OA
BRANCH   9  12
ATOM     12  C   LIG    1       -1.498  -1.065   0.829  0.00  0.00    -0.680 A 
ATOM     13  C   LIG    1       -1.008   0.181   1.177  0.00  0.00    +0.120 A 
ATOM     14  C   LIG    1        0.128   0.284   1.957  0.00  0.00    +0.000 A 
ATOM     15  C   LIG    1        0.776  -0.859   2.389  0.00  0.00    +0.070 A 
ATOM     16  C   LIG    1        0.286  -2.104   2.042  0.00  0.00    +0.000 A 
ATOM     17  C   LIG    1       -0.851  -2.207   1.263  0.00  0.00    +0.120 A 
ENDBRANCH   9  12
ENDBRANCH   8   9
ENDBRANCH   1   8
BRANCH   4  18
ATOM     18  O   LIG    1       -0.775  -5.529  -4.519  0.00  0.00    -0.290 OA
BRANCH  18  19
ATOM     19  C   LIG    1       -0.944  -6.723  -3.917  0.00  0.00    +0.500 C 
ATOM     20  O   LIG    1       -1.439  -6.780  -2.809  0.00  0.00    -0.480 OA
BRANCH  19  21
ATOM     21  C   LIG    1       -0.529  -7.962  -4.606  0.00  0.00    -0.130 A 
ATOM     22  C   LIG    1        0.035  -7.900  -5.882  0.00  0.00    +0.080 A 
ATOM     23  C   LIG    1        0.425  -9.061  -6.516  0.00  0.00    +0.000 A 
ATOM     24  C   LIG    1        0.250 -10.285  -5.896  0.00  0.00    +0.050 A 
ATOM     25  C   LIG    1       -0.313 -10.354  -4.634  0.00  0.00    +0.010 A 
ATOM     26  C   LIG    1       -0.703  -9.201  -3.985  0.00  0.00    +0.090 A 
ENDBRANCH  19  21
ENDBRANCH  18  19
ENDBRANCH   4  18
TORSDOF 6
