REMARK  Name = ZINCpe00000VVtkR.2
REMARK                            x       y       z     vdW  Elec       q    Type
REMARK                         _______ _______ _______ _____ _____    ______ ____
ROOT
ATOM      1  N   LIG    1        2.021   5.837   1.065  0.00  0.00    -0.510 NA
ATOM      2  C   LIG    1        3.139   4.883   1.089  0.00  0.00    +0.180 C 
ATOM      3  C   LIG    1        2.925   3.824   0.002  0.00  0.00    +0.300 C 
ATOM      4  N   LIG    1        1.593   3.227   0.188  0.00  0.00    -0.620 N 
ATOM      5  C   LIG    1        0.437   4.128   0.304  0.00  0.00    +0.290 C 
ATOM      6  C   LIG    1        1.436   1.890   0.243  0.00  0.00    +0.520 C 
ATOM      7  O   LIG    1        2.400   1.161   0.140  0.00  0.00    -0.520 OA
ATOM      8  C   LIG    1        0.749   5.176   1.385  0.00  0.00    +0.180 C 
ENDROOT
BRANCH   1   9
ATOM      9  C   LIG    1        2.272   6.965   1.973  0.00  0.00    +0.370 C 
BRANCH   9  10
ATOM     10  C   LIG    1        1.243   8.040   1.735  0.00  0.00    -0.090 A 
ATOM     11  C   LIG    1        0.749   8.254   0.462  0.00  0.00    +0.060 A 
ATOM     12  C   LIG    1       -0.198   9.237   0.244  0.00  0.00    +0.010 A 
ATOM     13  C   LIG    1       -0.644  10.012   1.298  0.00  0.00    +0.010 A 
ATOM     14  C   LIG    1       -0.147   9.801   2.571  0.00  0.00    +0.000 A 
ATOM     15  C   LIG    1        0.797   8.815   2.789  0.00  0.00    +0.010 A 
ENDBRANCH   9  10
BRANCH   9  17
ATOM     16  N   LIG    1        2.115   6.142   4.443  0.00  0.00    -0.410 NA
ATOM     17  C   LIG    1        2.183   6.500   3.367  0.00  0.00    +0.170 C 
ENDBRANCH   9  17
ENDBRANCH   1   9
BRANCH   6  18
ATOM     18  C   LIG    1        0.063   1.300   0.434  0.00  0.00    +0.210 C 
BRANCH  18  19
ATOM     19  N   LIG    1        0.159  -0.166   0.461  0.00  0.00    -0.520 NA
ATOM     20  C   LIG    1        0.592  -0.689  -0.841  0.00  0.00    +0.180 C 
ATOM     21  C   LIG    1        0.822  -2.199  -0.736  0.00  0.00    +0.040 C 
ATOM     22  C   LIG    1       -0.479  -2.878  -0.299  0.00  0.00    -0.020 C 
ATOM     23  C   LIG    1       -0.935  -2.281   1.035  0.00  0.00    +0.180 C 
ATOM     24  C   LIG    1       -1.113  -0.769   0.878  0.00  0.00    +0.180 C 
BRANCH  23  25
ATOM     25  O   LIG    1       -2.178  -2.871   1.422  0.00  0.00    -0.570 OA
ATOM     26  H   LIG    1       -2.138  -3.830   1.540  0.00  0.00    +0.380 HD
ENDBRANCH  23  25
ENDBRANCH  18  19
ENDBRANCH   6  18
TORSDOF 6
