REMARK  Name = ZINCpk00001AZj69.0
REMARK                            x       y       z     vdW  Elec       q    Type
REMARK                         _______ _______ _______ _____ _____    ______ ____
ROOT
ATOM      1  N   LIG    1       -4.046  11.345   0.099  0.00  0.00    -0.670 N 
ATOM      2  H   LIG    1       -3.288  11.947   0.170  0.00  0.00    +0.420 HD
ATOM      3  C   LIG    1       -3.850  10.012   0.088  0.00  0.00    +0.510 C 
ATOM      4  O   LIG    1       -4.801   9.259   0.084  0.00  0.00    -0.490 OA
ENDROOT
BRANCH   1   9
ATOM      5  C   LIG    1       -7.691  11.713   0.512  0.00  0.00    -0.110 A 
ATOM      6  C   LIG    1       -7.910  12.905  -0.182  0.00  0.00    +0.070 A 
ATOM      7  C   LIG    1       -6.851  13.564  -0.773  0.00  0.00    +0.030 A 
ATOM      8  C   LIG    1       -5.571  13.051  -0.676  0.00  0.00    +0.040 A 
ATOM      9  C   LIG    1       -5.343  11.863   0.008  0.00  0.00    +0.130 A 
ATOM     10  C   LIG    1       -6.399  11.193   0.605  0.00  0.00    +0.100 A 
BRANCH   5  11
ATOM     11  C   LIG    1       -8.823  11.005   1.145  0.00  0.00    +0.510 C 
ATOM     12  O   LIG    1       -8.630   9.968   1.748  0.00  0.00    -0.500 OA
BRANCH  11  14
ATOM     13  C   LIG    1      -11.132  10.761   1.699  0.00  0.00    +0.280 C 
ATOM     14  O   LIG    1      -10.069  11.509   1.053  0.00  0.00    -0.350 OA
ENDBRANCH  11  14
ENDBRANCH   5  11
ENDBRANCH   1   9
BRANCH   3  15
ATOM     15  C   LIG    1       -2.449   9.457   0.081  0.00  0.00    +0.270 C 
BRANCH  15  16
ATOM     16  O   LIG    1       -2.503   8.006   0.070  0.00  0.00    -0.320 OA
BRANCH  16  17
ATOM     17  C   LIG    1       -1.326   7.348   0.062  0.00  0.00    +0.500 C 
ATOM     18  O   LIG    1       -0.282   7.972   0.065  0.00  0.00    -0.500 OA
BRANCH  17  19
ATOM     19  C   LIG    1       -1.304   5.884   0.050  0.00  0.00    +0.020 C 
ATOM     20  C   LIG    1       -0.127   5.227   0.043  0.00  0.00    +0.130 C 
BRANCH  20  21
ATOM     21  C   LIG    1       -0.106   3.754   0.031  0.00  0.00    +0.080 A 
ATOM     22  C   LIG    1        1.113   3.070   0.024  0.00  0.00    +0.260 A 
ATOM     23  N   LIG    1        1.126   1.750   0.013  0.00  0.00    -0.440 NA
ATOM     24  C   LIG    1       -0.011   1.076   0.010  0.00  0.00    +0.240 A 
ATOM     25  C   LIG    1       -1.224   1.751   0.013  0.00  0.00    +0.240 A 
ATOM     26  N   LIG    1       -1.248   3.068   0.028  0.00  0.00    -0.420 NA
ENDBRANCH  20  21
ENDBRANCH  17  19
ENDBRANCH  16  17
ENDBRANCH  15  16
ENDBRANCH   3  15
TORSDOF 8
