REMARK  Name = ZINCpk00000ebcF7.0
REMARK                            x       y       z     vdW  Elec       q    Type
REMARK                         _______ _______ _______ _____ _____    ______ ____
ROOT
ATOM      1  C   LIG    1        1.140   2.151   0.003  0.00  0.00    +0.520 C 
ATOM      2  N   LIG    1       -0.018   1.461   0.010  0.00  0.00    -0.720 N 
ATOM      3  H   LIG    1       -0.864   1.934   0.017  0.00  0.00    +0.410 HD
ATOM      4  O   LIG    1        2.199   1.558  -0.011  0.00  0.00    -0.510 OA
ENDROOT
BRANCH   1   5
ATOM      5  C   LIG    1        1.120   3.657   0.011  0.00  0.00    +0.270 C 
BRANCH   5   6
ATOM      6  O   LIG    1        2.482   4.160   0.001  0.00  0.00    -0.320 OA
BRANCH   6   7
ATOM      7  C   LIG    1        2.640   5.498   0.006  0.00  0.00    +0.560 C 
ATOM      8  O   LIG    1        1.667   6.225   0.020  0.00  0.00    -0.480 OA
BRANCH   7  15
ATOM      9  C   LIG    1        4.480   6.297  -2.619  0.00  0.00    +0.180 C 
ATOM     10  C   LIG    1        4.828   6.442  -1.160  0.00  0.00    +0.070 A 
ATOM     11  N   LIG    1        5.928   6.915  -0.655  0.00  0.00    -0.350 NA
ATOM     12  O   LIG    1        5.921   6.902   0.552  0.00  0.00    +0.100 OA
ATOM     13  C   LIG    1        4.791   6.412   1.065  0.00  0.00    +0.040 A 
ATOM     14  C   LIG    1        4.455   6.255   2.526  0.00  0.00    +0.200 C 
ATOM     15  C   LIG    1        3.993   6.079  -0.003  0.00  0.00    -0.250 A 
ENDBRANCH   7  15
ENDBRANCH   6   7
ENDBRANCH   5   6
ENDBRANCH   1   5
BRANCH   2  16
ATOM     16  C   LIG    1        0.002  -0.004   0.002  0.00  0.00    +0.320 C 
BRANCH  16  17
ATOM     17  C   LIG    1       -1.433  -0.534   0.013  0.00  0.00    +0.140 C 
ATOM     18  C   LIG    1       -1.419  -2.068   0.019  0.00  0.00    +0.240 C 
ATOM     19  O   LIG    1       -2.774  -2.529   0.043  0.00  0.00    -0.300 OA
ATOM     20  C   LIG    1       -3.610  -1.926   0.932  0.00  0.00    +0.050 A 
ATOM     21  C   LIG    1       -4.808  -2.540   1.265  0.00  0.00    +0.030 A 
ATOM     22  C   LIG    1       -5.669  -1.937   2.163  0.00  0.00    +0.020 A 
ATOM     23  C   LIG    1       -5.339  -0.722   2.731  0.00  0.00    +0.020 A 
ATOM     24  C   LIG    1       -4.145  -0.105   2.405  0.00  0.00    +0.030 A 
ATOM     25  C   LIG    1       -3.277  -0.704   1.505  0.00  0.00    +0.050 A 
ATOM     26  O   LIG    1       -2.104  -0.086   1.196  0.00  0.00    -0.300 OA
ENDBRANCH  16  17
ENDBRANCH   2  16
TORSDOF 6
