REMARK  Name = ZINCpe000000Z223.1
REMARK                            x       y       z     vdW  Elec       q    Type
REMARK                         _______ _______ _______ _____ _____    ______ ____
ROOT
ATOM      1  C   LIG    1        2.406   0.752  -0.017  0.00  0.00    +0.510 C 
ATOM      2  N   LIG    1        3.671   1.218  -0.026  0.00  0.00    -0.610 N 
ATOM      3  C   LIG    1        3.935   2.664  -0.027  0.00  0.00    +0.270 C 
ATOM      4  C   LIG    1        4.859   2.999  -1.197  0.00  0.00    +0.030 C 
ATOM      5  C   LIG    1        6.116   2.130  -1.117  0.00  0.00    +0.140 C 
ATOM      6  C   LIG    1        5.724   0.654  -1.217  0.00  0.00    +0.030 C 
ATOM      7  C   LIG    1        4.810   0.291  -0.042  0.00  0.00    +0.280 C 
ATOM      8  O   LIG    1        2.201  -0.443  -0.021  0.00  0.00    -0.540 OA
ENDROOT
BRANCH   5   9
ATOM      9  N   LIG    1        7.019   2.473  -2.224  0.00  0.00    -0.530 NA
ATOM     10  C   LIG    1        8.201   1.598  -2.229  0.00  0.00    +0.140 C 
ATOM     11  C   LIG    1        9.084   1.950  -3.430  0.00  0.00    +0.220 C 
ATOM     12  O   LIG    1        9.435   3.335  -3.368  0.00  0.00    -0.390 OA
ATOM     13  C   LIG    1        8.308   4.215  -3.361  0.00  0.00    +0.220 C 
ATOM     14  C   LIG    1        7.418   3.886  -2.160  0.00  0.00    +0.140 C 
ENDBRANCH   5   9
BRANCH   1  15
ATOM     15  C   LIG    1        1.248   1.716  -0.001  0.00  0.00    +0.300 C 
BRANCH  15  18
ATOM     16  O   LIG    1       -1.204   2.839   0.023  0.00  0.00    -0.530 OA
ATOM     17  C   LIG    1       -1.187   1.624   0.017  0.00  0.00    +0.570 C 
ATOM     18  N   LIG    1       -0.011   0.966   0.007  0.00  0.00    -0.720 N 
ATOM     19  H   LIG    1        0.002  -0.004   0.002  0.00  0.00    +0.410 HD
BRANCH  17  20
ATOM     20  C   LIG    1       -2.457   0.868   0.018  0.00  0.00    -0.150 A 
ATOM     21  C   LIG    1       -2.440  -0.528   0.005  0.00  0.00    +0.090 A 
ATOM     22  C   LIG    1       -3.628  -1.229   0.012  0.00  0.00    -0.020 A 
ATOM     23  C   LIG    1       -4.836  -0.549   0.022  0.00  0.00    +0.130 A 
ATOM     24  C   LIG    1       -4.858   0.837   0.030  0.00  0.00    -0.010 A 
ATOM     25  F   LIG    1       -5.997  -1.241   0.024  0.00  0.00    -0.130 F 
ATOM     26  C   LIG    1       -3.677   1.547   0.028  0.00  0.00    +0.120 A 
ENDBRANCH  17  20
ENDBRANCH  15  18
ENDBRANCH   1  15
TORSDOF 4
