REMARK  Name = ZINCrH000004rRHB.0
REMARK                            x       y       z     vdW  Elec       q    Type
REMARK                         _______ _______ _______ _____ _____    ______ ____
ROOT
ATOM      1  N   LIG    1        5.953   3.088   0.250  0.00  0.00    -0.510 NA
ATOM      2  C   LIG    1        6.125   2.359  -1.014  0.00  0.00    +0.210 C 
ENDROOT
BRANCH   1   3
ATOM      3  C   LIG    1        4.820   4.020   0.169  0.00  0.00    +0.220 C 
BRANCH   3   6
ATOM      4  N   LIG    1        2.361   3.891  -0.064  0.00  0.00    -0.670 N 
ATOM      5  H   LIG    1        2.343   4.860  -0.096  0.00  0.00    +0.410 HD
ATOM      6  C   LIG    1        3.538   3.241   0.028  0.00  0.00    +0.510 C 
ATOM      7  O   LIG    1        3.565   2.029  -0.003  0.00  0.00    -0.490 OA
BRANCH   4  13
ATOM      8  C   LIG    1       -2.407   3.514   1.074  0.00  0.00    +0.090 C 
ATOM      9  C   LIG    1       -1.162   2.961   0.429  0.00  0.00    -0.070 A 
ATOM     10  C   LIG    1       -1.203   1.739  -0.216  0.00  0.00    -0.010 A 
ATOM     11  C   LIG    1       -0.062   1.226  -0.804  0.00  0.00    +0.030 A 
ATOM     12  C   LIG    1        1.121   1.937  -0.757  0.00  0.00    +0.020 A 
ATOM     13  C   LIG    1        1.164   3.168  -0.114  0.00  0.00    +0.150 A 
ATOM     14  C   LIG    1        0.018   3.678   0.480  0.00  0.00    -0.110 A 
ATOM     15  C   LIG    1        0.060   5.012   1.179  0.00  0.00    +0.090 C 
ENDBRANCH   4  13
ENDBRANCH   3   6
ENDBRANCH   1   3
BRANCH   1  16
ATOM     16  C   LIG    1        7.187   3.792   0.624  0.00  0.00    +0.190 C 
BRANCH  16  17
ATOM     17  C   LIG    1        8.264   2.785   0.935  0.00  0.00    +0.520 C 
ATOM     18  N   LIG    1        9.470   3.201   1.372  0.00  0.00    -0.610 N 
ATOM     19  O   LIG    1        8.047   1.600   0.793  0.00  0.00    -0.510 OA
BRANCH  18  20
ATOM     20  C   LIG    1       10.479   2.221   1.779  0.00  0.00    +0.240 C 
ATOM     21  C   LIG    1       10.809   1.307   0.597  0.00  0.00    +0.010 C 
ATOM     22  C   LIG    1       11.864   0.283   1.022  0.00  0.00    +0.010 C 
ATOM     23  C   LIG    1       11.321  -0.557   2.180  0.00  0.00    +0.010 C 
ATOM     24  C   LIG    1       10.991   0.357   3.362  0.00  0.00    +0.010 C 
ATOM     25  C   LIG    1        9.937   1.381   2.937  0.00  0.00    +0.010 C 
ENDBRANCH  18  20
BRANCH  18  26
ATOM     26  C   LIG    1        9.770   4.633   1.439  0.00  0.00    +0.220 C 
ATOM     27  C   LIG    1       10.892   4.966   0.453  0.00  0.00    +0.030 C 
ATOM     28  C   LIG    1       10.214   4.995   2.858  0.00  0.00    +0.030 C 
ENDBRANCH  18  26
ENDBRANCH  16  17
ENDBRANCH   1  16
TORSDOF 7
