REMARK  Name = ZINCpk00000e9MBO.0
REMARK                            x       y       z     vdW  Elec       q    Type
REMARK                         _______ _______ _______ _____ _____    ______ ____
ROOT
ATOM      1  N   LIG    1        1.040   2.982  -4.282  0.00  0.00    -0.510 NA
ATOM      2  C   LIG    1        1.260   3.428  -5.675  0.00  0.00    +0.180 C 
ATOM      3  C   LIG    1        0.090   4.399  -5.968  0.00  0.00    +0.180 C 
ATOM      4  C   LIG    1       -1.081   3.718  -5.212  0.00  0.00    +0.010 C 
ATOM      5  F   LIG    1       -0.172   4.468  -7.341  0.00  0.00    -0.200 F 
ATOM      6  C   LIG    1       -0.391   3.129  -3.963  0.00  0.00    +0.150 C 
ENDROOT
BRANCH   1   7
ATOM      7  C   LIG    1        1.480   1.592  -4.099  0.00  0.00    +0.260 C 
BRANCH   7  11
ATOM      8  C   LIG    1        6.425   1.582  -3.284  0.00  0.00    +0.360 C 
ATOM      9  N   LIG    1        5.122   1.501  -3.949  0.00  0.00    -0.380 N 
ATOM     10  C   LIG    1        3.919   1.649  -3.357  0.00  0.00    +0.250 A 
ATOM     11  C   LIG    1        2.970   1.504  -4.311  0.00  0.00    -0.240 A 
ATOM     12  C   LIG    1        3.615   1.252  -5.526  0.00  0.00    +0.230 A 
ATOM     13  N   LIG    1        4.906   1.256  -5.311  0.00  0.00    -0.300 NA
ENDBRANCH   7  11
ENDBRANCH   1   7
BRANCH   6  14
ATOM     14  C   LIG    1       -0.994   1.763  -3.631  0.00  0.00    +0.280 C 
BRANCH  14  15
ATOM     15  N   LIG    1       -2.396   1.930  -3.239  0.00  0.00    -0.620 N 
ATOM     16  C   LIG    1       -3.375   1.764  -4.151  0.00  0.00    +0.510 C 
ATOM     17  O   LIG    1       -3.095   1.476  -5.295  0.00  0.00    -0.520 OA
ATOM     18  C   LIG    1       -2.734   2.277  -1.857  0.00  0.00    +0.280 C 
BRANCH  16  19
ATOM     19  C   LIG    1       -4.817   1.935  -3.748  0.00  0.00    +0.120 C 
BRANCH  19  20
ATOM     20  C   LIG    1       -5.704   1.697  -4.943  0.00  0.00    -0.120 A 
ATOM     21  C   LIG    1       -6.178   0.425  -5.222  0.00  0.00    +0.070 A 
ATOM     22  C   LIG    1       -6.992   0.253  -6.332  0.00  0.00    -0.030 A 
ATOM     23  C   LIG    1       -7.301   1.347  -7.117  0.00  0.00    +0.260 A 
ATOM     24  N   LIG    1       -6.831   2.544  -6.821  0.00  0.00    -0.480 NA
ATOM     25  C   LIG    1       -6.060   2.745  -5.770  0.00  0.00    +0.260 A 
ENDBRANCH  19  20
ENDBRANCH  16  19
ENDBRANCH  14  15
ENDBRANCH   6  14
TORSDOF 6
