REMARK  Name = ZINCqH0000007DEe.0
REMARK                            x       y       z     vdW  Elec       q    Type
REMARK                         _______ _______ _______ _____ _____    ______ ____
ROOT
ATOM      1  C   LIG    1        2.876   4.195  -1.425  0.00  0.00    +0.520 C 
ATOM      2  N   LIG    1        4.014   4.871  -1.679  0.00  0.00    -0.620 N 
ATOM      3  C   LIG    1        4.853   5.364  -0.579  0.00  0.00    +0.290 C 
ATOM      4  C   LIG    1        6.286   4.851  -0.790  0.00  0.00    +0.040 C 
ATOM      5  C   LIG    1        6.769   5.263  -2.182  0.00  0.00    +0.120 C 
ATOM      6  C   LIG    1        5.870   4.629  -3.245  0.00  0.00    +0.040 C 
ATOM      7  C   LIG    1        4.435   5.135  -3.062  0.00  0.00    +0.280 C 
ATOM      8  O   LIG    1        2.189   3.798  -2.342  0.00  0.00    -0.520 OA
ENDROOT
BRANCH   5   9
ATOM      9  C   LIG    1        8.188   4.794  -2.380  0.00  0.00    +0.250 A 
ATOM     10  N   LIG    1        8.574   3.555  -2.328  0.00  0.00    -0.470 NA
ATOM     11  C   LIG    1        9.914   3.503  -2.557  0.00  0.00    +0.020 A 
ATOM     12  C   LIG    1       10.844   2.465  -2.620  0.00  0.00    +0.080 A 
ATOM     13  C   LIG    1       12.169   2.748  -2.869  0.00  0.00    +0.020 A 
ATOM     14  C   LIG    1       12.583   4.058  -3.057  0.00  0.00    +0.050 A 
ATOM     15  C   LIG    1       11.675   5.095  -2.997  0.00  0.00    +0.050 A 
ATOM     16  C   LIG    1       10.338   4.828  -2.747  0.00  0.00    +0.010 A 
ATOM     17  O   LIG    1        9.234   5.598  -2.629  0.00  0.00    -0.210 OA
ENDBRANCH   5   9
BRANCH   1  18
ATOM     18  C   LIG    1        2.457   3.933  -0.002  0.00  0.00    +0.120 C 
BRANCH  18  23
ATOM     19  C   LIG    1       -1.237   3.137   0.029  0.00  0.00    +0.130 A 
ATOM     20  C   LIG    1       -1.219   1.750   0.017  0.00  0.00    -0.080 A 
ATOM     21  C   LIG    1       -0.013   1.076   0.008  0.00  0.00    +0.050 A 
ATOM     22  C   LIG    1        1.175   1.783   0.000  0.00  0.00    -0.020 A 
ATOM     23  C   LIG    1        1.160   3.166   0.007  0.00  0.00    -0.030 A 
ATOM     24  C   LIG    1       -0.043   3.844   0.021  0.00  0.00    -0.010 A 
BRANCH  19  26
ATOM     25  C   LIG    1       -3.611   3.009   0.051  0.00  0.00    +0.250 C 
ATOM     26  O   LIG    1       -2.422   3.802   0.043  0.00  0.00    -0.320 OA
ENDBRANCH  19  26
ENDBRANCH  18  23
ENDBRANCH   1  18
TORSDOF 4
