REMARK  Name = ZINCvU0000000Jr9.0
REMARK                            x       y       z     vdW  Elec       q    Type
REMARK                         _______ _______ _______ _____ _____    ______ ____
ROOT
ATOM      1  N   LIG    1        1.425   2.076  -0.353  0.00  0.00    -0.520 NA
ATOM      2  C   LIG    1        2.049   1.941  -1.676  0.00  0.00    +0.210 C 
ENDROOT
BRANCH   1   3
ATOM      3  C   LIG    1        0.065   1.521  -0.353  0.00  0.00    +0.360 C 
BRANCH   3   7
ATOM      4  C   LIG    1        0.185  -1.921  -1.482  0.00  0.00    +0.250 A 
ATOM      5  N   LIG    1        0.258  -2.045  -0.174  0.00  0.00    -0.270 NA
ATOM      6  N   LIG    1        0.230  -0.876   0.363  0.00  0.00    -0.260 NA
ATOM      7  C   LIG    1        0.131   0.031  -0.567  0.00  0.00    +0.170 A 
ATOM      8  O   LIG    1        0.103  -0.603  -1.754  0.00  0.00    -0.220 OA
BRANCH   4  12
ATOM      9  C   LIG    1        0.175  -4.559  -4.443  0.00  0.00    -0.150 A 
ATOM     10  C   LIG    1        0.266  -5.176  -3.260  0.00  0.00    -0.110 A 
ATOM     11  C   LIG    1        0.282  -4.342  -2.164  0.00  0.00    +0.110 A 
ATOM     12  C   LIG    1        0.193  -3.016  -2.464  0.00  0.00    -0.160 A 
ATOM     13  C   LIG    1        0.350  -6.675  -3.136  0.00  0.00    +0.110 C 
ATOM     14  S   LIG    1        0.096  -2.819  -4.209  0.00  0.00    +0.170 S 
BRANCH   9  16
ATOM     15  C   LIG    1       -1.306  -5.563  -6.161  0.00  0.00    +0.040 C 
ATOM     16  C   LIG    1        0.144  -5.254  -5.780  0.00  0.00    +0.110 C 
ENDBRANCH   9  16
ENDBRANCH   4  12
ENDBRANCH   3   7
ENDBRANCH   1   3
BRANCH   1  17
ATOM     17  C   LIG    1        1.422   3.478   0.086  0.00  0.00    +0.240 C 
BRANCH  17  18
ATOM     18  C   LIG    1        2.839   3.938   0.309  0.00  0.00    +0.520 C 
ATOM     19  N   LIG    1        3.082   5.199   0.718  0.00  0.00    -0.670 N 
ATOM     20  H   LIG    1        2.352   5.833   0.795  0.00  0.00    +0.420 HD
ATOM     21  O   LIG    1        3.762   3.174   0.121  0.00  0.00    -0.490 OA
BRANCH  19  22
ATOM     22  C   LIG    1        4.388   5.595   1.031  0.00  0.00    +0.150 A 
ATOM     23  C   LIG    1        5.274   4.684   1.591  0.00  0.00    +0.080 A 
ATOM     24  C   LIG    1        6.562   5.077   1.899  0.00  0.00    +0.060 A 
ATOM     25  C   LIG    1        6.969   6.375   1.650  0.00  0.00    -0.010 A 
ATOM     26  C   LIG    1        6.088   7.285   1.092  0.00  0.00    -0.160 A 
ATOM     27 CL   LIG    1        8.589   6.865   2.038  0.00  0.00    -0.040 Cl
ATOM     28  C   LIG    1        4.801   6.896   0.777  0.00  0.00    +0.060 A 
BRANCH  26  29
ATOM     29  C   LIG    1        6.535   8.698   0.821  0.00  0.00    +0.510 C 
ATOM     30  F   LIG    1        7.614   8.684  -0.069  0.00  0.00    -0.170 F 
ATOM     31  F   LIG    1        6.928   9.301   2.021  0.00  0.00    -0.170 F 
ATOM     32  F   LIG    1        5.477   9.422   0.260  0.00  0.00    -0.170 F 
ENDBRANCH  26  29
ENDBRANCH  19  22
ENDBRANCH  17  18
ENDBRANCH   1  17
TORSDOF 8
