REMARK  Name = ZINCrD000000Amev.0
REMARK                            x       y       z     vdW  Elec       q    Type
REMARK                         _______ _______ _______ _____ _____    ______ ____
ROOT
ATOM      1  N   LIG    1        2.435   7.945   0.337  0.00  0.00    -0.520 NA
ATOM      2  C   LIG    1        3.080   7.508   1.582  0.00  0.00    +0.210 C 
ATOM      3  C   LIG    1        4.532   7.990   1.599  0.00  0.00    +0.220 C 
ATOM      4  N   LIG    1        4.560   9.455   1.481  0.00  0.00    -0.450 N 
ATOM      5  C   LIG    1        3.916   9.893   0.235  0.00  0.00    +0.240 C 
ATOM      6  C   LIG    1        2.463   9.410   0.218  0.00  0.00    +0.200 C 
ENDROOT
BRANCH   4   7
ATOM      7  C   LIG    1        5.852   9.933   1.563  0.00  0.00    +0.300 A 
ATOM      8  N   LIG    1        6.426  10.662   0.668  0.00  0.00    -0.510 NA
ATOM      9  C   LIG    1        7.695  11.055   0.894  0.00  0.00    +0.100 A 
ATOM     10  C   LIG    1        8.531  11.849   0.082  0.00  0.00    +0.060 A 
ATOM     11  C   LIG    1        9.811  12.144   0.479  0.00  0.00    +0.040 A 
ATOM     12  C   LIG    1       10.303  11.667   1.685  0.00  0.00    +0.030 A 
ATOM     13  C   LIG    1        9.504  10.890   2.496  0.00  0.00    +0.060 A 
ATOM     14  C   LIG    1        8.204  10.581   2.107  0.00  0.00    -0.180 A 
ATOM     15  S   LIG    1        6.952   9.629   2.901  0.00  0.00    +0.070 S 
ENDBRANCH   4   7
BRANCH   1  16
ATOM     16  C   LIG    1        1.060   7.436   0.248  0.00  0.00    +0.230 C 
BRANCH  16  18
ATOM     17  O   LIG    1        2.147   5.346   0.114  0.00  0.00    -0.490 OA
ATOM     18  C   LIG    1        1.087   5.935   0.126  0.00  0.00    +0.520 C 
ATOM     19  N   LIG    1       -0.067   5.245   0.031  0.00  0.00    -0.670 N 
ATOM     20  H   LIG    1       -0.912   5.719  -0.024  0.00  0.00    +0.420 HD
BRANCH  19  21
ATOM     21  C   LIG    1       -0.047   3.845   0.011  0.00  0.00    +0.150 A 
ATOM     22  C   LIG    1        0.998   3.174  -0.607  0.00  0.00    +0.030 A 
ATOM     23  C   LIG    1        1.015   1.790  -0.624  0.00  0.00    +0.110 A 
ATOM     24  C   LIG    1       -0.009   1.076  -0.025  0.00  0.00    +0.010 A 
ATOM     25  C   LIG    1       -1.055   1.743   0.587  0.00  0.00    +0.050 A 
ATOM     26  F   LIG    1        2.032   1.135  -1.225  0.00  0.00    -0.130 F 
ATOM     27  C   LIG    1       -1.075   3.125   0.611  0.00  0.00    +0.060 A 
ATOM     28  F   LIG    1       -2.094   3.776   1.214  0.00  0.00    -0.130 F 
ENDBRANCH  19  21
ENDBRANCH  16  18
ENDBRANCH   1  16
TORSDOF 4
