REMARK  Name = ZINCnE000001T8uq.0
REMARK                            x       y       z     vdW  Elec       q    Type
REMARK                         _______ _______ _______ _____ _____    ______ ____
ROOT
ATOM      1  S   LIG    1        0.842   6.137   0.531  0.00  0.00    +2.570 S 
ATOM      2  O   LIG    1        1.460   6.677  -0.628  0.00  0.00    -1.010 OA
ATOM      3  O   LIG    1        1.435   6.286   1.814  0.00  0.00    -1.010 OA
ENDROOT
BRANCH   1   6
ATOM      4  O   LIG    1        0.457   8.886   0.968  0.00  0.00    -0.590 OA
ATOM      5  C   LIG    1       -0.596   8.286   0.861  0.00  0.00    +0.580 C 
ATOM      6  N   LIG    1       -0.594   6.955   0.647  0.00  0.00    -1.130 NA
BRANCH   5   7
ATOM      7  C   LIG    1       -1.865   9.009   0.963  0.00  0.00    -0.150 A 
ATOM      8  C   LIG    1       -1.998  10.353   1.177  0.00  0.00    -0.090 A 
ATOM      9  C   LIG    1       -3.308  10.768   1.230  0.00  0.00    +0.020 A 
ATOM     10  C   LIG    1       -4.217   9.800   1.065  0.00  0.00    -0.120 A 
ATOM     11 BR   LIG    1       -0.527  11.524   1.381  0.00  0.00    -0.020 Br
ATOM     12  S   LIG    1       -3.463   8.289   0.824  0.00  0.00    +0.270 S 
ENDBRANCH   5   7
ENDBRANCH   1   6
BRANCH   1  13
ATOM     13  C   LIG    1        0.359   4.412   0.250  0.00  0.00    -0.320 C 
BRANCH  13  14
ATOM     14  C   LIG    1        1.613   3.545   0.124  0.00  0.00    -0.030 C 
ATOM     15  C   LIG    1        1.859   2.849  -1.216  0.00  0.00    +0.030 C 
ATOM     16  C   LIG    1        1.417   2.032  -0.001  0.00  0.00    -0.020 C 
BRANCH  16  17
ATOM     17  C   LIG    1       -0.018   1.503   0.010  0.00  0.00    +0.110 C 
BRANCH  17  18
ATOM     18  C   LIG    1        0.002  -0.004   0.002  0.00  0.00    -0.070 A 
ATOM     19  C   LIG    1       -0.006  -0.689  -1.199  0.00  0.00    +0.010 A 
ATOM     20  C   LIG    1        0.018  -2.071  -1.206  0.00  0.00    +0.000 A 
ATOM     21  C   LIG    1        0.039  -2.768  -0.013  0.00  0.00    -0.010 A 
ATOM     22  C   LIG    1        0.041  -2.084   1.188  0.00  0.00    +0.000 A 
ATOM     23  C   LIG    1        0.023  -0.702   1.195  0.00  0.00    +0.000 A 
ENDBRANCH  17  18
ENDBRANCH  16  17
ENDBRANCH  13  14
ENDBRANCH   1  13
TORSDOF 6
