REMARK  Name = ZINCpe000000YvBU.0
REMARK                            x       y       z     vdW  Elec       q    Type
REMARK                         _______ _______ _______ _____ _____    ______ ____
ROOT
ATOM      1  C   LIG    1       -2.699   8.286   0.069  0.00  0.00    +0.510 C 
ATOM      2  N   LIG    1       -2.963   9.607   0.079  0.00  0.00    -0.730 N 
ATOM      3  H   LIG    1       -2.234  10.248   0.075  0.00  0.00    +0.400 HD
ATOM      4  O   LIG    1       -3.610   7.485   0.074  0.00  0.00    -0.530 OA
ENDROOT
BRANCH   1   5
ATOM      5  C   LIG    1       -1.271   7.803   0.054  0.00  0.00    +0.300 C 
BRANCH   5   7
ATOM      6  C   LIG    1       -0.075   5.680   0.032  0.00  0.00    +0.560 C 
ATOM      7  N   LIG    1       -1.251   6.338   0.046  0.00  0.00    -0.710 N 
ATOM      8  H   LIG    1       -2.085   5.842   0.051  0.00  0.00    +0.410 HD
ATOM      9  O   LIG    1        0.969   6.302   0.025  0.00  0.00    -0.530 OA
BRANCH   6  13
ATOM     10  C   LIG    1       -0.017   1.428   0.010  0.00  0.00    +0.000 A 
ATOM     11  C   LIG    1       -1.236   2.110   0.019  0.00  0.00    +0.060 A 
ATOM     12  C   LIG    1       -1.255   3.487   0.031  0.00  0.00    +0.050 A 
ATOM     13  C   LIG    1       -0.055   4.201   0.024  0.00  0.00    -0.110 A 
ATOM     14  C   LIG    1        1.164   3.520   0.009  0.00  0.00    +0.090 A 
ATOM     15  C   LIG    1        1.183   2.143   0.002  0.00  0.00    +0.060 A 
BRANCH  10  17
ATOM     16  N   LIG    1        0.018  -1.140  -0.004  0.00  0.00    -0.400 NA
ATOM     17  C   LIG    1        0.002  -0.004   0.002  0.00  0.00    +0.250 C 
ENDBRANCH  10  17
ENDBRANCH   6  13
ENDBRANCH   5   7
ENDBRANCH   1   5
BRANCH   2  18
ATOM     18  C   LIG    1       -4.350  10.077   0.094  0.00  0.00    +0.290 C 
BRANCH  18  19
ATOM     19  C   LIG    1       -4.371  11.607   0.102  0.00  0.00    +0.050 C 
BRANCH  19  20
ATOM     20  C   LIG    1       -5.799  12.090   0.117  0.00  0.00    +0.520 C 
ATOM     21  N   LIG    1       -6.063  13.411   0.127  0.00  0.00    -0.610 N 
ATOM     22  C   LIG    1       -4.970  14.393   0.128  0.00  0.00    +0.260 C 
ATOM     23  C   LIG    1       -5.189  15.369  -1.038  0.00  0.00    +0.010 C 
ATOM     24  C   LIG    1       -6.586  15.984  -0.926  0.00  0.00    +0.020 C 
ATOM     25  C   LIG    1       -7.641  14.879  -1.019  0.00  0.00    +0.010 C 
ATOM     26  C   LIG    1       -7.449  13.898   0.142  0.00  0.00    +0.270 C 
ATOM     27  O   LIG    1       -6.710  11.289   0.122  0.00  0.00    -0.530 OA
ENDBRANCH  19  20
ENDBRANCH  18  19
ENDBRANCH   2  18
TORSDOF 7
