REMARK  Name = ZINCrH000004ltXu.0
REMARK                            x       y       z     vdW  Elec       q    Type
REMARK                         _______ _______ _______ _____ _____    ______ ____
ROOT
ATOM      1  N   LIG    1        1.893   2.012   3.940  0.00  0.00    -0.600 N 
ATOM      2  C   LIG    1        1.286   1.866   2.746  0.00  0.00    +0.600 C 
ATOM      3  O   LIG    1        1.946   1.612   1.755  0.00  0.00    -0.530 OA
ATOM      4  C   LIG    1        1.090   2.201   5.151  0.00  0.00    +0.310 C 
ENDROOT
BRANCH   2   5
ATOM      5  C   LIG    1       -0.164   2.014   2.639  0.00  0.00    -0.340 A 
ATOM      6  C   LIG    1       -0.876   2.008   1.472  0.00  0.00    +0.010 A 
ATOM      7  C   LIG    1       -2.226   2.170   1.653  0.00  0.00    -0.070 A 
ATOM      8  C   LIG    1       -2.613   2.298   2.949  0.00  0.00    -0.000 A 
ATOM      9  C   LIG    1       -0.239   1.845   0.116  0.00  0.00    +0.120 C 
ATOM     10  S   LIG    1       -1.266   2.228   3.993  0.00  0.00    +0.330 S 
BRANCH   8  11
ATOM     11  N   LIG    1       -3.927   2.468   3.366  0.00  0.00    -0.630 N 
ATOM     12  H   LIG    1       -4.644   2.499   2.713  0.00  0.00    +0.420 HD
ATOM     13  C   LIG    1       -4.207   2.591   4.679  0.00  0.00    +0.540 C 
ATOM     14  O   LIG    1       -3.311   2.552   5.496  0.00  0.00    -0.500 OA
BRANCH  13  15
ATOM     15  C   LIG    1       -5.632   2.775   5.133  0.00  0.00    -0.070 C 
ATOM     16  C   LIG    1       -6.014   4.132   5.727  0.00  0.00    +0.060 C 
ATOM     17  C   LIG    1       -5.884   2.908   6.636  0.00  0.00    +0.080 C 
ENDBRANCH  13  15
ENDBRANCH   8  11
ENDBRANCH   2   5
BRANCH   1  18
ATOM     18  C   LIG    1        3.355   1.980   4.028  0.00  0.00    +0.270 C 
BRANCH  18  19
ATOM     19  C   LIG    1        3.869   3.352   4.467  0.00  0.00    +0.170 C 
BRANCH  19  21
ATOM     20  C   LIG    1        3.853   4.890   6.306  0.00  0.00    +0.200 C 
ATOM     21  O   LIG    1        3.425   3.625   5.798  0.00  0.00    -0.390 OA
ENDBRANCH  19  21
ENDBRANCH  18  19
BRANCH  18  22
ATOM     22  C   LIG    1        3.781   0.925   5.051  0.00  0.00    +0.090 C 
BRANCH  22  23
ATOM     23  C   LIG    1        3.382  -0.443   4.559  0.00  0.00    -0.080 A 
ATOM     24  C   LIG    1        2.145  -0.963   4.891  0.00  0.00    +0.010 A 
ATOM     25  C   LIG    1        1.776  -2.215   4.435  0.00  0.00    +0.000 A 
ATOM     26  C   LIG    1        2.649  -2.951   3.656  0.00  0.00    +0.000 A 
ATOM     27  C   LIG    1        3.888  -2.433   3.328  0.00  0.00    +0.000 A 
ATOM     28  C   LIG    1        4.254  -1.179   3.780  0.00  0.00    +0.010 A 
ENDBRANCH  22  23
ENDBRANCH  18  22
ENDBRANCH   1  18
TORSDOF 8
