REMARK  Name = ZINCrD000000CS91.0
REMARK                            x       y       z     vdW  Elec       q    Type
REMARK                         _______ _______ _______ _____ _____    ______ ____
ROOT
ATOM      1  O   LIG    1        5.471   1.775 -12.104  0.00  0.00    -0.530 OA
ATOM      2  C   LIG    1        4.325   1.494 -11.822  0.00  0.00    +0.520 C 
ATOM      3  C   LIG    1        3.759   1.464 -10.415  0.00  0.00    +0.080 C 
ATOM      4  C   LIG    1        2.440   0.706 -10.569  0.00  0.00    -0.090 C 
ATOM      5  C   LIG    1        2.088   0.888 -12.044  0.00  0.00    +0.290 C 
ATOM      6  C   LIG    1        2.569  -0.772 -10.178  0.00  0.00    +0.060 C 
ATOM      7  C   LIG    1        2.280  -0.748  -8.659  0.00  0.00    +0.240 C 
ATOM      8  N   LIG    1        1.548   0.496  -8.371  0.00  0.00    -0.630 N 
ATOM      9  C   LIG    1        1.127   0.895  -7.154  0.00  0.00    +0.720 C 
ATOM     10  N   LIG    1        1.372   0.130  -6.072  0.00  0.00    -0.680 N 
ATOM     11  H   LIG    1        1.915  -0.669  -6.156  0.00  0.00    +0.410 HD
ATOM     12  O   LIG    1        0.528   1.946  -7.033  0.00  0.00    -0.570 OA
ATOM     13  C   LIG    1        1.343   1.232  -9.636  0.00  0.00    +0.310 C 
ATOM     14  N   LIG    1        3.371   1.164 -12.713  0.00  0.00    -0.730 N 
ATOM     15  H   LIG    1        3.510   1.114 -13.671  0.00  0.00    +0.410 HD
ENDROOT
BRANCH  10  16
ATOM     16  C   LIG    1        0.840   0.488  -4.826  0.00  0.00    +0.130 A 
ATOM     17  C   LIG    1       -0.395   1.118  -4.753  0.00  0.00    +0.060 A 
ATOM     18  C   LIG    1       -0.918   1.472  -3.525  0.00  0.00    +0.000 A 
ATOM     19  C   LIG    1       -0.210   1.197  -2.364  0.00  0.00    +0.120 A 
ATOM     20  C   LIG    1        1.026   0.572  -2.436  0.00  0.00    -0.060 A 
ATOM     21  C   LIG    1        1.548   0.213  -3.664  0.00  0.00    +0.020 A 
BRANCH  19  22
ATOM     22  O   LIG    1       -0.726   1.545  -1.155  0.00  0.00    -0.310 OA
BRANCH  22  23
ATOM     23  C   LIG    1        0.057   1.232  -0.001  0.00  0.00    +0.180 C 
BRANCH  23  24
ATOM     24  C   LIG    1       -0.680   1.696   1.257  0.00  0.00    +0.000 C 
ATOM     25  C   LIG    1       -0.794   3.221   1.247  0.00  0.00    +0.020 C 
ATOM     26  C   LIG    1       -1.532   3.686   2.505  0.00  0.00    +0.000 C 
ATOM     27  C   LIG    1       -0.754   3.240   3.745  0.00  0.00    +0.000 C 
ATOM     28  C   LIG    1       -0.640   1.714   3.755  0.00  0.00    +0.000 C 
ATOM     29  C   LIG    1        0.097   1.250   2.497  0.00  0.00    +0.020 C 
ENDBRANCH  23  24
ENDBRANCH  22  23
ENDBRANCH  19  22
ENDBRANCH  10  16
TORSDOF 4
