REMARK  Name = ZINCrD000003EB8u.0
REMARK                            x       y       z     vdW  Elec       q    Type
REMARK                         _______ _______ _______ _____ _____    ______ ____
ROOT
ATOM      1  C   LIG    1        4.766   0.856   7.687  0.00  0.00    +0.030 C 
ATOM      2  C   LIG    1        4.574  -0.653   7.525  0.00  0.00    +0.230 C 
ATOM      3  C   LIG    1        3.082  -0.976   7.444  0.00  0.00    +0.290 C 
ATOM      4  N   LIG    1        2.561  -0.492   6.157  0.00  0.00    -0.610 N 
ATOM      5  C   LIG    1        3.208  -0.942   4.917  0.00  0.00    +0.270 C 
ATOM      6  C   LIG    1        4.704  -0.615   4.999  0.00  0.00    +0.270 C 
ATOM      7  C   LIG    1        1.511   0.352   6.117  0.00  0.00    +0.570 C 
ATOM      8  O   LIG    1        1.052   0.801   7.149  0.00  0.00    -0.530 OA
ATOM      9  N   LIG    1        5.222  -1.103   6.285  0.00  0.00    -0.610 N 
ATOM     10  C   LIG    1        6.272  -1.947   6.325  0.00  0.00    +0.520 C 
ATOM     11  O   LIG    1        6.690  -2.343   7.393  0.00  0.00    -0.530 OA
ENDROOT
BRANCH   7  12
ATOM     12  C   LIG    1        0.920   0.733   4.819  0.00  0.00    -0.160 A 
ATOM     13  C   LIG    1        0.555   2.060   4.577  0.00  0.00    +0.110 A 
ATOM     14  C   LIG    1        0.004   2.411   3.365  0.00  0.00    +0.000 A 
ATOM     15  C   LIG    1       -0.189   1.447   2.382  0.00  0.00    +0.130 A 
ATOM     16  C   LIG    1        0.168   0.125   2.620  0.00  0.00    -0.060 A 
ATOM     17  C   LIG    1        0.724  -0.233   3.828  0.00  0.00    +0.090 A 
BRANCH  15  18
ATOM     18  O   LIG    1       -0.732   1.797   1.188  0.00  0.00    -0.320 OA
BRANCH  18  19
ATOM     19  C   LIG    1       -0.902   0.756   0.224  0.00  0.00    +0.600 C 
ATOM     20  F   LIG    1        0.342   0.194  -0.080  0.00  0.00    -0.200 F 
ATOM     21  F   LIG    1       -1.746  -0.230   0.746  0.00  0.00    -0.200 F 
ENDBRANCH  18  19
ENDBRANCH  15  18
ENDBRANCH   7  12
BRANCH  10  22
ATOM     22  C   LIG    1        6.926  -2.398   5.045  0.00  0.00    +0.080 C 
BRANCH  22  23
ATOM     23  C   LIG    1        8.083  -3.345   5.370  0.00  0.00    -0.010 C 
ATOM     24  C   LIG    1        7.974  -4.789   4.877  0.00  0.00    +0.010 C 
ATOM     25  C   LIG    1        8.952  -3.823   4.205  0.00  0.00    -0.130 C 
ATOM     26  C   LIG    1       10.444  -4.027   4.474  0.00  0.00    +0.060 C 
ATOM     27  C   LIG    1        8.597  -3.319   2.805  0.00  0.00    +0.060 C 
ENDBRANCH  22  23
ENDBRANCH  10  22
TORSDOF 5
