REMARK  Name = ZINCue00000008zt.0
REMARK                            x       y       z     vdW  Elec       q    Type
REMARK                         _______ _______ _______ _____ _____    ______ ____
ROOT
ATOM      1  C   LIG    1        0.072  -6.271  -1.312  0.00  0.00    +0.170 A 
ATOM      2  C   LIG    1        1.177  -7.048  -1.222  0.00  0.00    -0.740 A 
ATOM      3  C   LIG    1        0.759  -8.371  -1.048  0.00  0.00    +0.320 A 
ATOM      4  N   LIG    1       -0.549  -8.388  -1.035  0.00  0.00    -0.300 NA
ATOM      5  N   LIG    1       -1.006  -7.074  -1.195  0.00  0.00    -0.360 N 
ATOM      6  C   LIG    1       -2.407  -6.646  -1.232  0.00  0.00    +0.350 C 
ENDROOT
BRANCH   2   7
ATOM      7  S   LIG    1        2.846  -6.490  -1.307  0.00  0.00    +2.660 S 
ATOM      8  O   LIG    1        3.662  -7.649  -1.200  0.00  0.00    -1.020 OA
ATOM      9  O   LIG    1        2.946  -5.385  -0.419  0.00  0.00    -1.010 OA
BRANCH   7  10
ATOM     10  N   LIG    1        3.085  -5.889  -2.831  0.00  0.00    -1.120 NA
ATOM     11  C   LIG    1        4.288  -5.389  -3.178  0.00  0.00    +0.530 C 
ATOM     12  O   LIG    1        5.195  -5.380  -2.373  0.00  0.00    -0.620 OA
BRANCH  11  13
ATOM     13  C   LIG    1        4.505  -4.842  -4.565  0.00  0.00    +0.150 C 
ATOM     14  C   LIG    1        3.934  -3.424  -4.649  0.00  0.00    +0.050 C 
ATOM     15  C   LIG    1        4.176  -2.865  -6.054  0.00  0.00    +0.000 C 
ATOM     16  C   LIG    1        5.677  -2.888  -6.353  0.00  0.00    +0.010 C 
ATOM     17  C   LIG    1        6.197  -4.321  -6.219  0.00  0.00    +0.160 C 
ATOM     18  N   LIG    1        5.944  -4.810  -4.858  0.00  0.00    -0.530 NA
ATOM     19  C   LIG    1        6.553  -6.130  -4.651  0.00  0.00    +0.190 C 
ENDBRANCH  11  13
ENDBRANCH   7  10
ENDBRANCH   2   7
BRANCH   1  20
ATOM     20  C   LIG    1        0.051  -4.776  -1.504  0.00  0.00    +0.390 C 
BRANCH  20  21
ATOM     21  N   LIG    1        0.055  -4.117  -0.195  0.00  0.00    -0.700 N 
ATOM     22  H   LIG    1        0.070  -4.648   0.616  0.00  0.00    +0.410 HD
BRANCH  21  27
ATOM     23  C   LIG    1       -0.018   1.503   0.010  0.00  0.00    +0.100 C 
ATOM     24  C   LIG    1        0.002  -0.004   0.002  0.00  0.00    -0.210 A 
ATOM     25  C   LIG    1       -0.006  -0.694  -1.196  0.00  0.00    +0.350 A 
ATOM     26  N   LIG    1        0.016  -2.013  -1.226  0.00  0.00    -0.530 NA
ATOM     27  C   LIG    1        0.037  -2.735  -0.117  0.00  0.00    +0.460 A 
ATOM     28  C   LIG    1        0.041  -2.106   1.140  0.00  0.00    -0.150 A 
ATOM     29  C   LIG    1        0.023  -0.708   1.194  0.00  0.00    +0.160 A 
BRANCH  28  30
ATOM     30  C   LIG    1        0.063  -2.881   2.344  0.00  0.00    +0.260 C 
ATOM     31  N   LIG    1        0.081  -3.497   3.299  0.00  0.00    -0.420 NA
ENDBRANCH  28  30
ENDBRANCH  21  27
ENDBRANCH  20  21
ENDBRANCH   1  20
TORSDOF 7
