REMARK  Name = ZINCvU00000004n1.0
REMARK                            x       y       z     vdW  Elec       q    Type
REMARK                         _______ _______ _______ _____ _____    ______ ____
ROOT
ATOM      1  O   LIG    1        2.398  -1.734  -4.221  0.00  0.00    -0.470 OA
ATOM      2  C   LIG    1        1.845  -1.938  -3.161  0.00  0.00    +0.500 C 
ATOM      3  N   LIG    1        1.995  -1.066  -2.144  0.00  0.00    -0.640 N 
ATOM      4  H   LIG    1        1.553  -1.229  -1.296  0.00  0.00    +0.410 HD
ENDROOT
BRANCH   3   5
ATOM      5  C   LIG    1        2.785   0.071  -2.312  0.00  0.00    +0.300 A 
ATOM      6  C   LIG    1        3.456   0.425  -3.442  0.00  0.00    -0.100 A 
ATOM      7  C   LIG    1        4.125   1.624  -3.184  0.00  0.00    +0.250 A 
ATOM      8  N   LIG    1        3.865   1.984  -1.953  0.00  0.00    -0.270 NA
ATOM      9  N   LIG    1        3.020   1.025  -1.382  0.00  0.00    -0.380 N 
BRANCH   9  10
ATOM     10  C   LIG    1        2.490   1.047  -0.016  0.00  0.00    +0.390 C 
BRANCH  10  11
ATOM     11  C   LIG    1        1.175   1.783   0.000  0.00  0.00    -0.110 A 
ATOM     12  C   LIG    1       -0.013   1.076   0.008  0.00  0.00    +0.060 A 
ATOM     13  C   LIG    1       -1.219   1.750   0.017  0.00  0.00    +0.030 A 
ATOM     14  C   LIG    1       -1.238   3.134   0.031  0.00  0.00    -0.010 A 
ATOM     15  C   LIG    1       -0.050   3.842   0.023  0.00  0.00    +0.050 A 
ATOM     16 CL   LIG    1       -2.754   3.981   0.050  0.00  0.00    -0.050 Cl
ATOM     17  C   LIG    1        1.157   3.166   0.008  0.00  0.00    +0.000 A 
ATOM     18 CL   LIG    1        2.648   4.054  -0.003  0.00  0.00    -0.030 Cl
ENDBRANCH  10  11
ENDBRANCH   9  10
ENDBRANCH   3   5
BRANCH   2  19
ATOM     19  C   LIG    1        0.992  -3.167  -2.980  0.00  0.00    +0.360 C 
BRANCH  19  20
ATOM     20  N   LIG    1        0.990  -3.947  -4.220  0.00  0.00    -0.450 N 
ATOM     21  C   LIG    1        0.096  -3.821  -5.264  0.00  0.00    +0.080 A 
ATOM     22  C   LIG    1       -0.994  -2.999  -5.510  0.00  0.00    +0.020 A 
ATOM     23  C   LIG    1       -1.692  -3.125  -6.692  0.00  0.00    +0.060 A 
ATOM     24  C   LIG    1       -1.308  -4.063  -7.639  0.00  0.00    +0.020 A 
ATOM     25  C   LIG    1       -0.233  -4.877  -7.417  0.00  0.00    +0.090 A 
ATOM     26  C   LIG    1        0.489  -4.768  -6.227  0.00  0.00    +0.040 A 
ATOM     27  N   LIG    1        1.573  -5.414  -5.726  0.00  0.00    -0.420 NA
ATOM     28  C   LIG    1        1.865  -4.934  -4.553  0.00  0.00    +0.190 A 
BRANCH  28  29
ATOM     29  C   LIG    1        3.007  -5.403  -3.688  0.00  0.00    +0.560 C 
ATOM     30  F   LIG    1        2.508  -6.182  -2.639  0.00  0.00    -0.160 F 
ATOM     31  F   LIG    1        3.683  -4.295  -3.166  0.00  0.00    -0.160 F 
ATOM     32  F   LIG    1        3.891  -6.168  -4.457  0.00  0.00    -0.140 F 
ENDBRANCH  28  29
ENDBRANCH  19  20
ENDBRANCH   2  19
TORSDOF 6
