REMARK  Name = ZINCqH0000002Y1P.0
REMARK                            x       y       z     vdW  Elec       q    Type
REMARK                         _______ _______ _______ _____ _____    ______ ____
ROOT
ATOM      1  N   LIG    1        7.092   5.027  -0.494  0.00  0.00    -0.540 N 
ATOM      2  C   LIG    1        5.857   4.734  -0.945  0.00  0.00    +0.600 C 
ATOM      3  O   LIG    1        5.291   5.495  -1.707  0.00  0.00    -0.520 OA
ENDROOT
BRANCH   1   4
ATOM      4  C   LIG    1        7.669   6.269  -0.789  0.00  0.00    +0.120 A 
ATOM      5  C   LIG    1        8.881   6.629  -0.202  0.00  0.00    +0.000 A 
ATOM      6  C   LIG    1        9.464   7.843  -0.486  0.00  0.00    +0.010 A 
ATOM      7  C   LIG    1        8.839   8.729  -1.357  0.00  0.00    +0.070 A 
ATOM      8  N   LIG    1        9.162   9.986  -1.823  0.00  0.00    -0.600 N 
ATOM      9  H   LIG    1        9.960  10.482  -1.580  0.00  0.00    +0.410 HD
ATOM     10  C   LIG    1        8.191  10.429  -2.678  0.00  0.00    +0.220 A 
ATOM     11  C   LIG    1        7.227   9.502  -2.796  0.00  0.00    -0.050 A 
ATOM     12  C   LIG    1        7.613   8.372  -1.947  0.00  0.00    -0.090 A 
ATOM     13  C   LIG    1        7.032   7.136  -1.657  0.00  0.00    +0.070 A 
ENDBRANCH   1   4
BRANCH   2  14
ATOM     14  C   LIG    1        5.191   3.491  -0.516  0.00  0.00    -0.290 A 
ATOM     15  C   LIG    1        3.832   3.247  -0.516  0.00  0.00    +0.170 A 
ATOM     16  N   LIG    1        3.648   1.998  -0.051  0.00  0.00    -0.320 N 
ATOM     17  N   LIG    1        4.899   1.448   0.251  0.00  0.00    -0.280 NA
ATOM     18  C   LIG    1        2.754   4.204  -0.956  0.00  0.00    +0.170 C 
ATOM     19  C   LIG    1        5.824   2.326  -0.026  0.00  0.00    +0.280 A 
BRANCH  16  20
ATOM     20  C   LIG    1        2.414   1.358   0.110  0.00  0.00    +0.190 A 
ATOM     21  C   LIG    1        1.283   2.074   0.495  0.00  0.00    -0.030 A 
ATOM     22  C   LIG    1        0.084   1.407   0.643  0.00  0.00    +0.300 A 
ATOM     23  N   LIG    1        0.002   0.108   0.424  0.00  0.00    -0.480 NA
ATOM     24  C   LIG    1        1.050  -0.605   0.058  0.00  0.00    +0.290 A 
ATOM     25  C   LIG    1        2.285  -0.011  -0.112  0.00  0.00    -0.010 A 
ENDBRANCH  16  20
ENDBRANCH   2  14
BRANCH   1  27
ATOM     26  C   LIG    1        8.668   3.161  -0.619  0.00  0.00    +0.030 C 
ATOM     27  C   LIG    1        7.831   4.047   0.306  0.00  0.00    +0.260 C 
ENDBRANCH   1  27
TORSDOF 4
