REMARK  Name = ZINCrH000004oLIz.0
REMARK                            x       y       z     vdW  Elec       q    Type
REMARK                         _______ _______ _______ _____ _____    ______ ____
ROOT
ATOM      1  C   LIG    1        3.059  -1.838  -1.283  0.00  0.00    +0.020 C 
ATOM      2  C   LIG    1        3.920  -0.573  -1.288  0.00  0.00    +0.000 C 
ATOM      3  C   LIG    1        4.942  -0.647  -0.153  0.00  0.00    +0.020 C 
ATOM      4  C   LIG    1        4.213  -0.770   1.187  0.00  0.00    -0.010 C 
ATOM      5  C   LIG    1        3.320   0.457   1.395  0.00  0.00    +0.050 C 
ATOM      6  C   LIG    1        2.312   0.552   0.254  0.00  0.00    +0.130 C 
ATOM      7  N   LIG    1        1.407  -0.604   0.270  0.00  0.00    -0.720 N 
ATOM      8  H   LIG    1        1.654  -1.536   0.166  0.00  0.00    +0.440 HD
ATOM      9  C   LIG    1        0.167  -0.114   0.456  0.00  0.00    +0.700 C 
ATOM     10  N   LIG    1        0.155   1.220   0.563  0.00  0.00    -0.580 N 
ATOM     11  O   LIG    1       -0.831  -0.806   0.518  0.00  0.00    -0.530 OA
ATOM     12  C   LIG    1        1.397   1.738   0.457  0.00  0.00    +0.530 C 
ATOM     13  O   LIG    1        1.712   2.907   0.512  0.00  0.00    -0.440 OA
ATOM     14  C   LIG    1        5.237  -0.853   2.320  0.00  0.00    +0.030 C 
ATOM     15  C   LIG    1        3.026   0.654  -1.089  0.00  0.00    +0.060 C 
ENDROOT
BRANCH  10  16
ATOM     16  C   LIG    1       -1.056   2.020   0.765  0.00  0.00    +0.490 C 
BRANCH  16  17
ATOM     17  C   LIG    1       -1.310   2.182   2.241  0.00  0.00    +0.160 A 
ATOM     18  N   LIG    1       -0.853   3.150   2.986  0.00  0.00    -0.450 NA
ATOM     19  C   LIG    1       -1.282   2.969   4.244  0.00  0.00    +0.170 A 
ATOM     20  C   LIG    1       -2.034   1.839   4.261  0.00  0.00    +0.010 A 
ATOM     21  O   LIG    1       -2.048   1.359   2.998  0.00  0.00    -0.180 OA
BRANCH  20  22
ATOM     22  C   LIG    1       -2.712   1.250   5.436  0.00  0.00    -0.030 A 
ATOM     23  C   LIG    1       -2.606   1.861   6.686  0.00  0.00    +0.080 A 
ATOM     24  C   LIG    1       -3.244   1.310   7.777  0.00  0.00    +0.000 A 
ATOM     25  C   LIG    1       -3.980   0.145   7.636  0.00  0.00    +0.110 A 
ATOM     26  C   LIG    1       -4.084  -0.470   6.398  0.00  0.00    -0.010 A 
ATOM     27  F   LIG    1       -4.599  -0.394   8.709  0.00  0.00    -0.130 F 
ATOM     28  C   LIG    1       -3.455   0.076   5.299  0.00  0.00    +0.070 A 
ENDBRANCH  20  22
ENDBRANCH  16  17
ENDBRANCH  10  16
TORSDOF 3
