REMARK  Name = ZINCrH000004v5eB.0
REMARK                            x       y       z     vdW  Elec       q    Type
REMARK                         _______ _______ _______ _____ _____    ______ ____
ROOT
ATOM      1  C   LIG    1        2.294   5.646   0.223  0.00  0.00    -0.080 A 
ATOM      2  C   LIG    1        1.077   6.329   0.232  0.00  0.00    +0.030 A 
ATOM      3  C   LIG    1        1.063   7.704   0.349  0.00  0.00    +0.120 A 
ATOM      4  C   LIG    1        2.251   8.405   0.446  0.00  0.00    -0.650 A 
ATOM      5  C   LIG    1        3.461   7.734   0.431  0.00  0.00    +0.130 A 
ATOM      6  C   LIG    1        3.490   6.360   0.321  0.00  0.00    +0.070 A 
ENDROOT
BRANCH   1   8
ATOM      7  O   LIG    1        3.379   3.580   0.091  0.00  0.00    -0.500 OA
ATOM      8  C   LIG    1        2.317   4.172   0.104  0.00  0.00    +0.560 C 
ATOM      9  N   LIG    1        1.161   3.486   0.009  0.00  0.00    -0.670 N 
ATOM     10  H   LIG    1        0.319   3.962  -0.058  0.00  0.00    +0.420 HD
BRANCH   9  11
ATOM     11  C   LIG    1        1.177   2.087   0.008  0.00  0.00    +0.160 A 
ATOM     12  C   LIG    1        0.235   1.382  -0.730  0.00  0.00    +0.010 A 
ATOM     13  C   LIG    1        0.252   0.000  -0.729  0.00  0.00    +0.070 A 
ATOM     14  C   LIG    1        1.205  -0.681   0.006  0.00  0.00    -0.050 A 
ATOM     15  C   LIG    1        2.146   0.019   0.743  0.00  0.00    -0.010 A 
ATOM     16 CL   LIG    1        3.341  -0.839   1.665  0.00  0.00    -0.040 Cl
ATOM     17 CL   LIG    1        1.223  -2.417   0.004  0.00  0.00    -0.040 Cl
ATOM     18  C   LIG    1        2.133   1.401   0.746  0.00  0.00    +0.050 A 
ENDBRANCH   9  11
ENDBRANCH   1   8
BRANCH   4  19
ATOM     19  S   LIG    1        2.224  10.162   0.588  0.00  0.00    +2.690 S 
ATOM     20  O   LIG    1        3.448  10.533   1.206  0.00  0.00    -0.950 OA
ATOM     21  O   LIG    1        0.951  10.501   1.120  0.00  0.00    -0.950 OA
BRANCH  19  22
ATOM     22  N   LIG    1        2.269  10.779  -0.948  0.00  0.00    -1.110 NA
ATOM     23  H   LIG    1        3.034  11.299  -1.239  0.00  0.00    +0.430 HD
BRANCH  22  24
ATOM     24  C   LIG    1        1.153  10.539  -1.867  0.00  0.00    +0.300 C 
BRANCH  24  25
ATOM     25  C   LIG    1        1.255  11.499  -3.054  0.00  0.00    +0.150 C 
ATOM     26  C   LIG    1        0.041  11.324  -3.993  0.00  0.00    +0.010 C 
ATOM     27  C   LIG    1        0.633  11.502  -5.409  0.00  0.00    +0.000 C 
ATOM     28  C   LIG    1        2.135  11.764  -5.158  0.00  0.00    +0.190 C 
ATOM     29  O   LIG    1        2.404  11.173  -3.867  0.00  0.00    -0.370 OA
ENDBRANCH  24  25
ENDBRANCH  22  24
ENDBRANCH  19  22
ENDBRANCH   4  19
TORSDOF 6
