REMARK  Name = ZINCqH0000037x48.0
REMARK                            x       y       z     vdW  Elec       q    Type
REMARK                         _______ _______ _______ _____ _____    ______ ____
ROOT
ATOM      1  C   LIG    1       -4.121   5.155   0.739  0.00  0.00    -0.230 A 
ATOM      2  C   LIG    1       -3.323   6.126   1.269  0.00  0.00    +0.280 A 
ATOM      3  N   LIG    1       -3.978   7.311   1.264  0.00  0.00    -0.460 N 
ATOM      4  C   LIG    1       -5.244   7.160   0.735  0.00  0.00    +0.090 A 
ATOM      5  C   LIG    1       -6.296   8.042   0.516  0.00  0.00    -0.010 A 
ATOM      6  C   LIG    1       -7.470   7.587  -0.043  0.00  0.00    +0.030 A 
ATOM      7  C   LIG    1       -7.617   6.252  -0.390  0.00  0.00    -0.010 A 
ATOM      8  C   LIG    1       -6.586   5.362  -0.180  0.00  0.00    +0.070 A 
ATOM      9  C   LIG    1       -5.394   5.809   0.383  0.00  0.00    -0.060 A 
ENDROOT
BRANCH   1  12
ATOM     10  N   LIG    1       -2.569   3.282   0.940  0.00  0.00    -0.720 N 
ATOM     11  H   LIG    1       -1.921   3.892   1.326  0.00  0.00    +0.390 HD
ATOM     12  C   LIG    1       -3.781   3.736   0.564  0.00  0.00    +0.600 C 
ATOM     13  O   LIG    1       -4.594   2.972   0.080  0.00  0.00    -0.530 OA
BRANCH  10  15
ATOM     14  C   LIG    1       -3.206   0.994   1.557  0.00  0.00    +0.060 C 
ATOM     15  C   LIG    1       -2.231   1.867   0.765  0.00  0.00    +0.180 C 
ATOM     16  C   LIG    1       -2.281   1.493  -0.731  0.00  0.00    +0.040 C 
ATOM     17  C   LIG    1       -0.812   1.624  -1.205  0.00  0.00    +0.020 C 
ATOM     18  C   LIG    1       -0.013   1.086   0.008  0.00  0.00    -0.010 C 
ATOM     19  C   LIG    1       -0.786   1.609   1.236  0.00  0.00    +0.160 C 
BRANCH  19  20
ATOM     20  O   LIG    1       -0.775   0.627   2.275  0.00  0.00    -0.550 OA
ATOM     21  H   LIG    1        0.109   0.405   2.597  0.00  0.00    +0.380 HD
ENDBRANCH  19  20
ENDBRANCH  10  15
ENDBRANCH   1  12
BRANCH   3  22
ATOM     22  C   LIG    1       -3.424   8.575   1.755  0.00  0.00    +0.350 C 
BRANCH  22  23
ATOM     23  C   LIG    1       -3.845   8.786   3.187  0.00  0.00    -0.120 A 
ATOM     24  C   LIG    1       -5.016   9.463   3.470  0.00  0.00    +0.020 A 
ATOM     25  C   LIG    1       -5.405   9.651   4.783  0.00  0.00    +0.010 A 
ATOM     26  C   LIG    1       -4.617   9.172   5.813  0.00  0.00    +0.020 A 
ATOM     27  C   LIG    1       -3.443   8.500   5.529  0.00  0.00    +0.010 A 
ATOM     28  C   LIG    1       -3.057   8.306   4.216  0.00  0.00    +0.020 A 
ENDBRANCH  22  23
ENDBRANCH   3  22
TORSDOF 5
