REMARK  Name = ZINCqH0000004Tlf.0
REMARK                            x       y       z     vdW  Elec       q    Type
REMARK                         _______ _______ _______ _____ _____    ______ ____
ROOT
ATOM      1  C   LIG    1       -1.303   3.965  -2.448  0.00  0.00    -0.190 A 
ATOM      2  C   LIG    1       -1.352   5.311  -2.258  0.00  0.00    +0.050 A 
ATOM      3  S   LIG    1       -1.230   5.687  -0.605  0.00  0.00    +0.230 S 
ATOM      4  C   LIG    1       -1.105   3.990  -0.141  0.00  0.00    -0.200 A 
ATOM      5  C   LIG    1       -0.950   3.559   1.310  0.00  0.00    +0.210 C 
ATOM      6  S   LIG    1       -1.372   1.799   1.450  0.00  0.00    -0.220 S 
ATOM      7  C   LIG    1       -0.488   1.108   0.018  0.00  0.00    +0.120 C 
ATOM      8  C   LIG    1       -1.105   1.683  -1.250  0.00  0.00    +0.130 C 
ATOM      9  C   LIG    1       -1.164   3.199  -1.210  0.00  0.00    -0.030 A 
ENDROOT
BRANCH   2  10
ATOM     10  N   LIG    1       -1.483   6.250  -3.276  0.00  0.00    -0.380 N 
ATOM     11  C   LIG    1       -1.576   5.972  -4.611  0.00  0.00    +0.160 A 
ATOM     12  C   LIG    1       -1.694   7.138  -5.277  0.00  0.00    -0.030 A 
ATOM     13  C   LIG    1       -1.664   8.176  -4.323  0.00  0.00    -0.020 A 
ATOM     14  C   LIG    1       -1.534   7.606  -3.108  0.00  0.00    +0.150 A 
ENDBRANCH   2  10
BRANCH   1  17
ATOM     15  N   LIG    1       -0.256   3.108  -4.477  0.00  0.00    -0.660 N 
ATOM     16  H   LIG    1        0.599   3.420  -4.142  0.00  0.00    +0.410 HD
ATOM     17  C   LIG    1       -1.382   3.340  -3.773  0.00  0.00    +0.590 C 
ATOM     18  O   LIG    1       -2.464   3.030  -4.236  0.00  0.00    -0.500 OA
BRANCH  15  21
ATOM     19  N   LIG    1        0.108   2.322  -8.016  0.00  0.00    -0.490 N 
ATOM     20  C   LIG    1        0.161   2.987  -6.831  0.00  0.00    +0.290 A 
ATOM     21  C   LIG    1       -0.321   2.415  -5.696  0.00  0.00    +0.030 A 
ATOM     22  C   LIG    1       -0.891   1.130  -5.747  0.00  0.00    +0.130 A 
ATOM     23  C   LIG    1       -0.945   0.473  -6.940  0.00  0.00    -0.060 A 
ATOM     24  C   LIG    1       -0.432   1.091  -8.093  0.00  0.00    +0.510 A 
ATOM     25  O   LIG    1       -0.475   0.511  -9.166  0.00  0.00    -0.540 OA
BRANCH  19  27
ATOM     26  C   LIG    1       -0.468   3.760  -9.909  0.00  0.00    +0.040 C 
ATOM     27  C   LIG    1        0.640   2.956  -9.225  0.00  0.00    +0.280 C 
ENDBRANCH  19  27
ENDBRANCH  15  21
ENDBRANCH   1  17
TORSDOF 4
