REMARK  Name = ZINCpk00000eaooV.0
REMARK                            x       y       z     vdW  Elec       q    Type
REMARK                         _______ _______ _______ _____ _____    ______ ____
ROOT
ATOM      1  C   LIG    1       -0.069   0.785   4.740  0.00  0.00    -0.050 A 
ATOM      2  C   LIG    1        1.004  -0.082   4.580  0.00  0.00    -0.040 A 
ATOM      3  C   LIG    1        1.462  -0.364   3.309  0.00  0.00    +0.290 A 
ATOM      4  N   LIG    1        0.894   0.179   2.249  0.00  0.00    -0.510 NA
ATOM      5  C   LIG    1       -0.131   1.010   2.360  0.00  0.00    +0.310 A 
ATOM      6  C   LIG    1       -0.641   1.342   3.611  0.00  0.00    -0.020 A 
ENDROOT
BRANCH   5   7
ATOM      7  N   LIG    1       -0.700   1.559   1.216  0.00  0.00    -0.470 N 
ATOM      8  C   LIG    1       -0.705   3.026   1.284  0.00  0.00    +0.200 C 
ATOM      9  C   LIG    1       -1.465   3.591   0.082  0.00  0.00    +0.040 C 
ATOM     10  C   LIG    1       -0.788   3.123  -1.209  0.00  0.00    -0.020 C 
ATOM     11  C   LIG    1       -0.752   1.593  -1.232  0.00  0.00    +0.170 C 
ATOM     12  C   LIG    1       -0.013   1.086   0.008  0.00  0.00    +0.230 C 
BRANCH  11  13
ATOM     13  O   LIG    1       -0.072   1.149  -2.408  0.00  0.00    -0.570 OA
ATOM     14  H   LIG    1       -0.487   1.434  -3.234  0.00  0.00    +0.380 HD
ENDBRANCH  11  13
ENDBRANCH   5   7
BRANCH   1  15
ATOM     15  C   LIG    1       -0.595   1.115   6.113  0.00  0.00    +0.340 C 
BRANCH  15  16
ATOM     16  N   LIG    1        0.108   2.289   6.636  0.00  0.00    -0.690 N 
ATOM     17  H   LIG    1        0.795   2.721   6.104  0.00  0.00    +0.420 HD
BRANCH  16  22
ATOM     18  C   LIG    1       -1.475   2.627   9.811  0.00  0.00    +0.430 A 
ATOM     19  C   LIG    1       -0.818   3.740  10.323  0.00  0.00    -0.160 A 
ATOM     20  C   LIG    1        0.163   4.346   9.546  0.00  0.00    +0.430 A 
ATOM     21  N   LIG    1        0.440   3.845   8.347  0.00  0.00    -0.640 NA
ATOM     22  C   LIG    1       -0.206   2.783   7.890  0.00  0.00    +0.630 A 
ATOM     23  N   LIG    1       -1.150   2.183   8.601  0.00  0.00    -0.640 NA
BRANCH  18  25
ATOM     24  C   LIG    1       -3.066   0.869   9.938  0.00  0.00    +0.260 C 
ATOM     25  O   LIG    1       -2.438   2.006  10.534  0.00  0.00    -0.290 OA
ENDBRANCH  18  25
BRANCH  20  26
ATOM     26  O   LIG    1        0.829   5.434  10.006  0.00  0.00    -0.290 OA
ATOM     27  C   LIG    1        1.821   5.998   9.147  0.00  0.00    +0.260 C 
ENDBRANCH  20  26
ENDBRANCH  16  22
ENDBRANCH  15  16
ENDBRANCH   1  15
TORSDOF 7
