REMARK  Name = ZINCrD000000C4K6.0
REMARK                            x       y       z     vdW  Elec       q    Type
REMARK                         _______ _______ _______ _____ _____    ______ ____
ROOT
ATOM      1  N   LIG    1       -1.247   2.052   0.026  0.00  0.00    -0.670 N 
ATOM      2  H   LIG    1       -1.262   3.019   0.105  0.00  0.00    +0.410 HD
ATOM      3  C   LIG    1       -2.402   1.367  -0.086  0.00  0.00    +0.560 C 
ATOM      4  O   LIG    1       -2.389   0.151  -0.105  0.00  0.00    -0.500 OA
ENDROOT
BRANCH   1  14
ATOM      5  O   LIG    1        0.513  -2.429   1.797  0.00  0.00    -0.470 OA
ATOM      6  C   LIG    1        1.452  -1.870   1.256  0.00  0.00    +0.530 A 
ATOM      7  N   LIG    1        2.668  -2.445   1.212  0.00  0.00    -0.600 NA
ATOM      8  C   LIG    1        3.683  -1.861   0.639  0.00  0.00    +0.640 A 
ATOM      9  N   LIG    1        3.609  -0.654   0.051  0.00  0.00    -0.630 N 
ATOM     10  H   LIG    1        4.398  -0.270  -0.360  0.00  0.00    +0.420 HD
ATOM     11  C   LIG    1        2.415   0.042   0.028  0.00  0.00    +0.160 A 
ATOM     12  C   LIG    1        2.305   1.290  -0.571  0.00  0.00    +0.000 A 
ATOM     13  C   LIG    1        1.093   1.946  -0.569  0.00  0.00    +0.060 A 
ATOM     14  C   LIG    1       -0.025   1.369   0.029  0.00  0.00    +0.110 A 
ATOM     15  C   LIG    1        0.067   0.125   0.631  0.00  0.00    +0.130 A 
ATOM     16  C   LIG    1        1.288  -0.544   0.633  0.00  0.00    -0.190 A 
ENDBRANCH   1  14
BRANCH   3  17
ATOM     17  C   LIG    1       -3.683   2.092  -0.186  0.00  0.00    -0.130 A 
ATOM     18  C   LIG    1       -3.701   3.489  -0.158  0.00  0.00    +0.070 A 
ATOM     19  C   LIG    1       -4.898   4.163  -0.259  0.00  0.00    +0.010 A 
ATOM     20  C   LIG    1       -6.089   3.454  -0.374  0.00  0.00    +0.110 A 
ATOM     21  C   LIG    1       -6.076   2.064  -0.395  0.00  0.00    +0.000 A 
ATOM     22  C   LIG    1       -4.882   1.384  -0.302  0.00  0.00    +0.110 A 
BRANCH  20  23
ATOM     23  O   LIG    1       -7.267   4.121  -0.466  0.00  0.00    -0.250 OA
BRANCH  23  24
ATOM     24  C   LIG    1       -8.069   4.155   0.631  0.00  0.00    +0.070 A 
ATOM     25  C   LIG    1       -9.240   4.906   0.626  0.00  0.00    +0.050 A 
ATOM     26  C   LIG    1      -10.025   4.909   1.768  0.00  0.00    +0.020 A 
ATOM     27  C   LIG    1       -9.622   4.172   2.865  0.00  0.00    +0.230 A 
ATOM     28  N   LIG    1       -8.506   3.470   2.837  0.00  0.00    -0.450 NA
ATOM     29  C   LIG    1       -7.734   3.436   1.769  0.00  0.00    +0.190 A 
ENDBRANCH  23  24
ENDBRANCH  20  23
ENDBRANCH   3  17
TORSDOF 4
