REMARK  Name = ZINCkj000005jqKp.1
REMARK                            x       y       z     vdW  Elec       q    Type
REMARK                         _______ _______ _______ _____ _____    ______ ____
ROOT
ATOM      1  N   LIG    1       -1.115  -2.176   0.002  0.00  0.00    -0.730 N 
ATOM      2  H   LIG    1       -0.242  -2.598  -0.009  0.00  0.00    +0.400 HD
ATOM      3  C   LIG    1       -1.215  -0.832   0.010  0.00  0.00    +0.590 C 
ATOM      4  O   LIG    1       -2.310  -0.304   0.024  0.00  0.00    -0.520 OA
ENDROOT
BRANCH   1   8
ATOM      5  C   LIG    1       -2.963  -6.619  -1.138  0.00  0.00    +0.100 C 
ATOM      6  C   LIG    1       -3.266  -5.251  -0.523  0.00  0.00    +0.170 C 
ATOM      7  C   LIG    1       -2.019  -4.368  -0.607  0.00  0.00    +0.060 C 
ATOM      8  C   LIG    1       -2.326  -3.001   0.010  0.00  0.00    +0.250 C 
ATOM      9  C   LIG    1       -2.803  -3.196   1.452  0.00  0.00    +0.050 C 
ATOM     10  C   LIG    1       -4.020  -4.124   1.459  0.00  0.00    +0.270 C 
ATOM     11  N   LIG    1       -3.655  -5.423   0.881  0.00  0.00    -0.380 N 
ATOM     12  C   LIG    1       -4.805  -6.333   0.962  0.00  0.00    +0.330 C 
ATOM     13  H   LIG    1       -2.882  -5.814   1.398  0.00  0.00    +0.420 HD
ENDBRANCH   1   8
BRANCH   3  14
ATOM     14  C   LIG    1        0.002  -0.004   0.002  0.00  0.00    -0.190 A 
ATOM     15  C   LIG    1        1.260  -0.520  -0.013  0.00  0.00    -0.010 A 
ATOM     16  S   LIG    1        2.425   0.724  -0.017  0.00  0.00    +0.340 S 
ATOM     17  C   LIG    1        1.197   1.977   0.001  0.00  0.00    -0.800 A 
ATOM     18  C   LIG    1       -0.018   1.440   0.010  0.00  0.00    +0.220 A 
BRANCH  17  19
ATOM     19  S   LIG    1        1.528   3.708   0.007  0.00  0.00    +2.520 S 
ATOM     20  O   LIG    1        0.374   4.288  -0.585  0.00  0.00    -0.920 OA
ATOM     21  O   LIG    1        2.804   3.822  -0.610  0.00  0.00    -0.920 OA
ATOM     22  C   LIG    1        1.630   4.143   1.765  0.00  0.00    -0.250 C 
ENDBRANCH  17  19
ENDBRANCH   3  14
TORSDOF 3
