REMARK  Name = ZINCkj000005jqKp.0
REMARK                            x       y       z     vdW  Elec       q    Type
REMARK                         _______ _______ _______ _____ _____    ______ ____
ROOT
ATOM      1  N   LIG    1       -0.629   1.599   3.712  0.00  0.00    -0.730 N 
ATOM      2  H   LIG    1       -1.141   2.422   3.669  0.00  0.00    +0.400 HD
ATOM      3  C   LIG    1       -0.504   0.944   4.883  0.00  0.00    +0.590 C 
ATOM      4  O   LIG    1        0.139  -0.088   4.937  0.00  0.00    -0.520 OA
ENDROOT
BRANCH   1   8
ATOM      5  C   LIG    1       -0.751   1.592  -1.232  0.00  0.00    +0.100 C 
ATOM      6  C   LIG    1       -0.013   1.086   0.008  0.00  0.00    +0.170 C 
ATOM      7  C   LIG    1       -0.732   1.579   1.265  0.00  0.00    +0.070 C 
ATOM      8  C   LIG    1        0.010   1.070   2.504  0.00  0.00    +0.250 C 
ATOM      9  C   LIG    1        1.465   1.543   2.445  0.00  0.00    +0.050 C 
ATOM     10  C   LIG    1        2.104   1.052   1.144  0.00  0.00    +0.270 C 
ATOM     11  N   LIG    1        1.365   1.593  -0.002  0.00  0.00    -0.380 N 
ATOM     12  C   LIG    1        1.345   3.060   0.078  0.00  0.00    +0.320 C 
ATOM     13  H   LIG    1        1.820   1.310  -0.857  0.00  0.00    +0.430 HD
ENDBRANCH   1   8
BRANCH   3  14
ATOM     14  C   LIG    1       -1.146   1.475   6.096  0.00  0.00    -0.190 A 
ATOM     15  C   LIG    1       -1.875   2.623   6.117  0.00  0.00    -0.010 A 
ATOM     16  S   LIG    1       -2.471   2.934   7.683  0.00  0.00    +0.340 S 
ATOM     17  C   LIG    1       -1.717   1.491   8.338  0.00  0.00    -0.800 A 
ATOM     18  C   LIG    1       -1.062   0.835   7.388  0.00  0.00    +0.220 A 
BRANCH  17  19
ATOM     19  S   LIG    1       -1.815   0.983  10.022  0.00  0.00    +2.520 S 
ATOM     20  O   LIG    1       -1.639  -0.426   9.974  0.00  0.00    -0.920 OA
ATOM     21  O   LIG    1       -3.029   1.555  10.490  0.00  0.00    -0.920 OA
ATOM     22  C   LIG    1       -0.390   1.776  10.818  0.00  0.00    -0.250 C 
ENDBRANCH  17  19
ENDBRANCH   3  14
TORSDOF 3
