REMARK  Name = ZINCvU00000007Ry.0
REMARK                            x       y       z     vdW  Elec       q    Type
REMARK                         _______ _______ _______ _____ _____    ______ ____
ROOT
ATOM      1  O   LIG    1        3.022  -1.455   0.055  0.00  0.00    -0.480 OA
ATOM      2  C   LIG    1        1.984  -2.081   0.009  0.00  0.00    +0.540 C 
ATOM      3  N   LIG    1        0.810  -1.431  -0.115  0.00  0.00    -0.670 N 
ATOM      4  H   LIG    1       -0.024  -1.925  -0.080  0.00  0.00    +0.420 HD
ENDROOT
BRANCH   3   5
ATOM      5  C   LIG    1        0.794  -0.043  -0.294  0.00  0.00    +0.150 A 
ATOM      6  C   LIG    1       -0.230   0.717   0.256  0.00  0.00    +0.020 A 
ATOM      7  C   LIG    1       -0.249   2.089   0.083  0.00  0.00    +0.050 A 
ATOM      8  C   LIG    1        0.749   2.711  -0.639  0.00  0.00    +0.010 A 
ATOM      9  C   LIG    1        1.782   1.956  -1.195  0.00  0.00    -0.020 A 
ATOM     10  C   LIG    1        1.802   0.574  -1.020  0.00  0.00    +0.080 A 
BRANCH   9  11
ATOM     11  C   LIG    1        2.857   2.623  -1.964  0.00  0.00    +0.290 A 
ATOM     12  N   LIG    1        4.056   2.140  -2.212  0.00  0.00    -0.310 NA
ATOM     13  N   LIG    1        4.743   2.974  -2.906  0.00  0.00    -0.040 NA
ATOM     14  N   LIG    1        4.049   4.033  -3.150  0.00  0.00    -0.080 NA
ATOM     15  N   LIG    1        2.792   3.844  -2.550  0.00  0.00    -0.350 N 
BRANCH  15  16
ATOM     16  C   LIG    1        1.655   4.768  -2.555  0.00  0.00    +0.210 C 
ATOM     17  C   LIG    1        1.720   5.963  -3.509  0.00  0.00    +0.080 C 
ATOM     18  C   LIG    1        1.887   6.176  -2.003  0.00  0.00    +0.060 C 
ENDBRANCH  15  16
ENDBRANCH   9  11
ENDBRANCH   3   5
BRANCH   2  19
ATOM     19  C   LIG    1        2.007  -3.586   0.090  0.00  0.00    +0.050 C 
BRANCH  19  20
ATOM     20  C   LIG    1        1.662  -4.019   1.491  0.00  0.00    -0.090 A 
ATOM     21  C   LIG    1        2.404  -3.553   2.561  0.00  0.00    +0.040 A 
ATOM     22  C   LIG    1        2.085  -3.946   3.847  0.00  0.00    +0.010 A 
ATOM     23  C   LIG    1        1.030  -4.814   4.063  0.00  0.00    +0.010 A 
ATOM     24  C   LIG    1        0.292  -5.284   2.993  0.00  0.00    +0.010 A 
ATOM     25  C   LIG    1        0.608  -4.887   1.707  0.00  0.00    +0.020 A 
ENDBRANCH  19  20
BRANCH  19  26
ATOM     26  S   LIG    1        3.663  -4.189  -0.340  0.00  0.00    -0.060 S 
BRANCH  26  27
ATOM     27  C   LIG    1        3.454  -5.938  -0.364  0.00  0.00    -0.140 A 
ATOM     28  C   LIG    1        3.567  -6.670   0.812  0.00  0.00    +0.070 A 
ATOM     29  C   LIG    1        3.397  -8.040   0.790  0.00  0.00    +0.000 A 
ATOM     30  C   LIG    1        3.125  -8.686  -0.402  0.00  0.00    +0.040 A 
ATOM     31  C   LIG    1        3.017  -7.962  -1.576  0.00  0.00    +0.000 A 
ATOM     32  C   LIG    1        3.180  -6.590  -1.560  0.00  0.00    +0.060 A 
ENDBRANCH  26  27
ENDBRANCH  19  26
ENDBRANCH   2  19
TORSDOF 7
