REMARK  Name = ZINCbw0000000HgR.0
REMARK                            x       y       z     vdW  Elec       q    Type
REMARK                         _______ _______ _______ _____ _____    ______ ____
ROOT
ATOM      1  C   LIG    1        0.731  -0.503   1.223  0.00  0.00    -0.020 A 
ATOM      2  C   LIG    1        2.054  -0.157   1.427  0.00  0.00    -0.040 A 
ATOM      3  C   LIG    1        2.725  -0.608   2.549  0.00  0.00    +0.050 A 
ATOM      4  C   LIG    1        2.078  -1.416   3.464  0.00  0.00    -0.070 A 
ATOM      5  C   LIG    1        0.751  -1.771   3.259  0.00  0.00    +0.220 A 
ATOM      6  C   LIG    1        0.079  -1.311   2.134  0.00  0.00    -0.060 A 
ENDROOT
BRANCH   5   7
ATOM      7  N   LIG    1        0.094  -2.588   4.181  0.00  0.00    -0.880 N 
ATOM      8  H   LIG    1        0.565  -2.909   4.966  0.00  0.00    +0.400 HD
ATOM      9  H   LIG    1       -0.832  -2.836   4.037  0.00  0.00    +0.400 HD
ENDBRANCH   5   7
BRANCH   1  10
ATOM     10  C   LIG    1        0.002  -0.004   0.002  0.00  0.00    +0.070 C 
ATOM     11  C   LIG    1       -0.019   1.526   0.010  0.00  0.00    +0.060 C 
BRANCH  10  13
ATOM     12  C   LIG    1       -0.240  -0.028  -2.827  0.00  0.00    +0.130 C 
ATOM     13  S   LIG    1        0.851  -0.589  -1.490  0.00  0.00    -0.250 S 
ENDBRANCH  10  13
ENDBRANCH   1  10
TORSDOF 3
