REMARK  Name = ZINCqH000000434K.0
REMARK                            x       y       z     vdW  Elec       q    Type
REMARK                         _______ _______ _______ _____ _____    ______ ____
ROOT
ATOM      1  N   LIG    1       -0.112  -0.273  -0.263  0.00  0.00    -0.490 N 
ATOM      2  C   LIG    1        0.622   0.985  -0.457  0.00  0.00    +0.240 C 
ENDROOT
BRANCH   1   3
ATOM      3  C   LIG    1        0.549  -1.338  -0.880  0.00  0.00    +0.220 A 
ATOM      4  C   LIG    1        0.637  -1.394  -2.265  0.00  0.00    -0.020 A 
ATOM      5  C   LIG    1        1.297  -2.445  -2.872  0.00  0.00    +0.190 A 
ATOM      6  C   LIG    1        1.857  -3.448  -2.102  0.00  0.00    -0.670 A 
ATOM      7  C   LIG    1        1.765  -3.399  -0.723  0.00  0.00    +0.210 A 
ATOM      8  C   LIG    1        1.113  -2.347  -0.110  0.00  0.00    -0.040 A 
BRANCH   6   9
ATOM      9  S   LIG    1        2.691  -4.791  -2.881  0.00  0.00    +2.500 S 
ATOM     10  O   LIG    1        3.619  -5.241  -1.903  0.00  0.00    -0.920 OA
ATOM     11  O   LIG    1        3.134  -4.257  -4.120  0.00  0.00    -0.930 OA
ATOM     12  C   LIG    1        1.396  -6.033  -3.149  0.00  0.00    -0.250 C 
ENDBRANCH   6   9
BRANCH   8  13
ATOM     13  N   LIG    1        1.016  -2.296   1.366  0.00  0.00    +0.030 N 
ATOM     14  O   LIG    1        0.440  -1.368   1.906  0.00  0.00    -0.080 OA
ATOM     15  O   LIG    1        1.511  -3.181   2.041  0.00  0.00    -0.200 OA
ENDBRANCH   8  13
ENDBRANCH   1   3
BRANCH   1  16
ATOM     16  C   LIG    1       -1.493  -0.158  -0.749  0.00  0.00    +0.200 C 
BRANCH  16  18
ATOM     17  C   LIG    1       -2.105   1.935  -1.970  0.00  0.00    +0.030 C 
ATOM     18  C   LIG    1       -1.497   0.538  -2.112  0.00  0.00    -0.020 C 
ENDBRANCH  16  18
BRANCH  16  19
ATOM     19  C   LIG    1       -2.104  -1.554  -0.887  0.00  0.00    +0.070 C 
BRANCH  19  20
ATOM     20  C   LIG    1       -2.256  -2.172   0.479  0.00  0.00    -0.070 A 
ATOM     21  C   LIG    1       -1.489  -3.267   0.831  0.00  0.00    -0.040 A 
ATOM     22  C   LIG    1       -1.625  -3.831   2.086  0.00  0.00    +0.010 A 
ATOM     23  C   LIG    1       -2.536  -3.307   2.984  0.00  0.00    -0.080 A 
ATOM     24  C   LIG    1       -3.307  -2.216   2.630  0.00  0.00    +0.010 A 
ATOM     25  C   LIG    1       -2.688  -3.926   4.350  0.00  0.00    +0.090 C 
ATOM     26  C   LIG    1       -3.167  -1.648   1.377  0.00  0.00    +0.010 A 
ENDBRANCH  19  20
ENDBRANCH  16  19
ENDBRANCH   1  16
TORSDOF 7
