REMARK  Name = ZINCpk000000nyo2.0
REMARK                            x       y       z     vdW  Elec       q    Type
REMARK                         _______ _______ _______ _____ _____    ______ ____
ROOT
ATOM      1  C   LIG    1        2.064   1.114   1.238  0.00  0.00    +0.210 C 
ENDROOT
BRANCH   1   4
ATOM      2  N   LIG    1        0.110   1.019   2.752  0.00  0.00    -0.630 N 
ATOM      3  H   LIG    1       -0.285   0.368   2.151  0.00  0.00    +0.410 HD
ATOM      4  C   LIG    1        1.321   1.542   2.478  0.00  0.00    +0.490 C 
ATOM      5  O   LIG    1        1.815   2.357   3.229  0.00  0.00    -0.510 OA
BRANCH   2   8
ATOM      6  N   LIG    1       -2.113   1.604   5.467  0.00  0.00    -0.370 N 
ATOM      7  C   LIG    1       -1.804   0.975   4.304  0.00  0.00    +0.200 A 
ATOM      8  C   LIG    1       -0.583   1.419   3.910  0.00  0.00    -0.000 A 
ATOM      9  C   LIG    1       -0.133   2.342   4.865  0.00  0.00    +0.250 A 
ATOM     10  N   LIG    1       -1.050   2.457   5.791  0.00  0.00    -0.280 NA
BRANCH   6  11
ATOM     11  C   LIG    1       -3.341   1.423   6.246  0.00  0.00    +0.330 C 
BRANCH  11  13
ATOM     12  C   LIG    1       -2.244   2.197   8.353  0.00  0.00    +0.030 C 
ATOM     13  C   LIG    1       -2.982   1.037   7.682  0.00  0.00    -0.040 C 
ATOM     14  C   LIG    1       -4.261   0.727   8.462  0.00  0.00    +0.030 C 
ENDBRANCH  11  13
ENDBRANCH   6  11
ENDBRANCH   2   8
ENDBRANCH   1   4
BRANCH   1  15
ATOM     15  O   LIG    1        3.361   1.713   1.228  0.00  0.00    -0.500 OA
ATOM     16  H   LIG    1        3.348   2.680   1.234  0.00  0.00    +0.390 HD
ENDBRANCH   1  15
BRANCH   1  17
ATOM     17  C   LIG    1        1.286   1.562  -0.002  0.00  0.00    +0.310 C 
BRANCH  17  18
ATOM     18  C   LIG    1        2.028   1.134  -1.242  0.00  0.00    +0.240 A 
ATOM     19  N   LIG    1        3.268   1.428  -1.507  0.00  0.00    -0.450 NA
ATOM     20  C   LIG    1        3.620   0.886  -2.702  0.00  0.00    +0.040 A 
ATOM     21  C   LIG    1        4.799   0.888  -3.450  0.00  0.00    +0.070 A 
ATOM     22  C   LIG    1        4.845   0.234  -4.650  0.00  0.00    +0.000 A 
ATOM     23  C   LIG    1        3.730  -0.434  -5.135  0.00  0.00    +0.040 A 
ATOM     24  C   LIG    1        2.555  -0.449  -4.413  0.00  0.00    +0.000 A 
ATOM     25  C   LIG    1        2.490   0.209  -3.193  0.00  0.00    +0.050 A 
ATOM     26  N   LIG    1        1.502   0.380  -2.244  0.00  0.00    -0.590 N 
ATOM     27  H   LIG    1        0.598   0.029  -2.285  0.00  0.00    +0.420 HD
ENDBRANCH  17  18
BRANCH  17  28
ATOM     28  O   LIG    1       -0.011   0.963   0.007  0.00  0.00    -0.540 OA
ATOM     29  H   LIG    1        0.002  -0.004   0.002  0.00  0.00    +0.380 HD
ENDBRANCH  17  28
ENDBRANCH   1  17
TORSDOF 8
