REMARK  Name = ZINCtV000002NThc.0
REMARK                            x       y       z     vdW  Elec       q    Type
REMARK                         _______ _______ _______ _____ _____    ______ ____
ROOT
ATOM      1  O   LIG    1        1.272   5.831  -0.081  0.00  0.00    -0.490 OA
ATOM      2  C   LIG    1        2.334   5.235  -0.093  0.00  0.00    +0.610 C 
ATOM      3  N   LIG    1        2.354   3.891   0.001  0.00  0.00    -0.660 N 
ATOM      4  H   LIG    1        3.201   3.421   0.057  0.00  0.00    +0.420 HD
ENDROOT
BRANCH   3   5
ATOM      5  C   LIG    1        1.154   3.173   0.019  0.00  0.00    +0.150 A 
ATOM      6  C   LIG    1        0.032   3.708   0.637  0.00  0.00    +0.100 A 
ATOM      7  C   LIG    1       -1.152   2.997   0.654  0.00  0.00    -0.160 A 
ATOM      8  C   LIG    1       -1.222   1.755   0.050  0.00  0.00    +0.080 A 
ATOM      9  C   LIG    1       -0.105   1.215  -0.562  0.00  0.00    +0.060 A 
ATOM     10  C   LIG    1        1.082   1.922  -0.582  0.00  0.00    -0.030 A 
ATOM     11 CL   LIG    1        2.481   1.248  -1.358  0.00  0.00    -0.040 Cl
BRANCH   7  12
ATOM     12  C   LIG    1       -2.369   3.577   1.325  0.00  0.00    +0.510 C 
ATOM     13  F   LIG    1       -1.970   4.406   2.379  0.00  0.00    -0.170 F 
ATOM     14  F   LIG    1       -3.166   2.541   1.823  0.00  0.00    -0.170 F 
ATOM     15  F   LIG    1       -3.103   4.323   0.396  0.00  0.00    -0.170 F 
ENDBRANCH   7  12
ENDBRANCH   3   5
BRANCH   2  16
ATOM     16  C   LIG    1        3.590   5.980  -0.211  0.00  0.00    -0.070 A 
ATOM     17  C   LIG    1        3.712   7.349  -0.315  0.00  0.00    +0.070 A 
ATOM     18  C   LIG    1        5.080   7.626  -0.405  0.00  0.00    +0.010 A 
ATOM     19  C   LIG    1        5.736   6.430  -0.354  0.00  0.00    +0.040 A 
ATOM     20  O   LIG    1        4.829   5.446  -0.232  0.00  0.00    -0.150 OA
BRANCH  19  21
ATOM     21  C   LIG    1        7.200   6.248  -0.416  0.00  0.00    +0.030 A 
ATOM     22  C   LIG    1        7.850   5.459   0.534  0.00  0.00    +0.080 A 
ATOM     23  C   LIG    1        9.218   5.293   0.470  0.00  0.00    +0.120 A 
ATOM     24  C   LIG    1        9.947   5.906  -0.534  0.00  0.00    -0.020 A 
ATOM     25  C   LIG    1        9.311   6.690  -1.479  0.00  0.00    +0.130 A 
ATOM     26  C   LIG    1        7.941   6.861  -1.431  0.00  0.00    -0.020 A 
ATOM     27 CL   LIG    1        7.144   7.839  -2.622  0.00  0.00    -0.020 Cl
BRANCH  24  28
ATOM     28  N   LIG    1       11.414   5.722  -0.596  0.00  0.00    +0.020 N 
ATOM     29  O   LIG    1       12.059   6.261  -1.478  0.00  0.00    -0.140 OA
ATOM     30  O   LIG    1       11.977   5.033   0.236  0.00  0.00    -0.140 OA
ENDBRANCH  24  28
ENDBRANCH  19  21
ENDBRANCH   2  16
TORSDOF 5
