REMARK  Name = ZINCpk00000y6vUE.0
REMARK                            x       y       z     vdW  Elec       q    Type
REMARK                         _______ _______ _______ _____ _____    ______ ____
ROOT
ATOM      1  C   LIG    1       -1.589   3.272  -0.701  0.00  0.00    -0.010 C 
ATOM      2  C   LIG    1       -0.815   2.039  -1.198  0.00  0.00    +0.050 C 
ATOM      3  C   LIG    1       -0.018   1.503   0.010  0.00  0.00    +0.110 C 
ATOM      4  C   LIG    1       -0.794   2.028   1.244  0.00  0.00    +0.020 C 
ATOM      5  C   LIG    1       -1.236   3.443   0.791  0.00  0.00    +0.170 C 
ENDROOT
BRANCH   3   6
ATOM      6  C   LIG    1        0.002  -0.004   0.002  0.00  0.00    +0.320 A 
ATOM      7  N   LIG    1        0.961  -0.756  -0.476  0.00  0.00    -0.560 NA
ATOM      8  C   LIG    1        0.647  -2.045  -0.315  0.00  0.00    +0.480 A 
ATOM      9  N   LIG    1       -0.527  -2.125   0.264  0.00  0.00    -0.370 NA
ATOM     10  N   LIG    1       -0.963  -0.807   0.479  0.00  0.00    -0.480 N 
ATOM     11  H   LIG    1       -1.797  -0.532   0.890  0.00  0.00    +0.440 HD
BRANCH   8  12
ATOM     12  N   LIG    1        1.437  -3.128  -0.705  0.00  0.00    -0.600 N 
ATOM     13  C   LIG    1        2.734  -2.897  -1.345  0.00  0.00    +0.310 C 
ATOM     14  C   LIG    1        0.969  -4.497  -0.473  0.00  0.00    +0.300 C 
ENDBRANCH   8  12
ENDBRANCH   3   6
BRANCH   5  15
ATOM     15  O   LIG    1       -0.163   4.373   0.948  0.00  0.00    -0.550 OA
ATOM     16  H   LIG    1        0.100   4.519   1.867  0.00  0.00    +0.380 HD
ENDBRANCH   5  15
BRANCH   1  17
ATOM     17  C   LIG    1       -1.158   4.512  -1.487  0.00  0.00    +0.290 C 
BRANCH  17  19
ATOM     18  C   LIG    1       -1.784   6.861  -1.653  0.00  0.00    +0.560 C 
ATOM     19  N   LIG    1       -1.985   5.654  -1.089  0.00  0.00    -0.720 N 
ATOM     20  H   LIG    1       -2.678   5.541  -0.419  0.00  0.00    +0.400 HD
ATOM     21  O   LIG    1       -0.917   7.003  -2.493  0.00  0.00    -0.540 OA
BRANCH  18  26
ATOM     22  C   LIG    1       -5.035  11.346  -0.091  0.00  0.00    +0.100 C 
ATOM     23  C   LIG    1       -4.184  10.171  -0.500  0.00  0.00    -0.060 A 
ATOM     24  C   LIG    1       -3.196  10.336  -1.456  0.00  0.00    +0.000 A 
ATOM     25  C   LIG    1       -2.413   9.265  -1.835  0.00  0.00    +0.090 A 
ATOM     26  C   LIG    1       -2.619   8.014  -1.252  0.00  0.00    -0.140 A 
ATOM     27  C   LIG    1       -3.620   7.853  -0.292  0.00  0.00    +0.040 A 
ATOM     28  C   LIG    1       -4.393   8.934   0.081  0.00  0.00    +0.000 A 
ENDBRANCH  18  26
ENDBRANCH  17  19
ENDBRANCH   1  17
TORSDOF 6
