REMARK  Name = ZINCah0000002BsR.0
REMARK                            x       y       z     vdW  Elec       q    Type
REMARK                         _______ _______ _______ _____ _____    ______ ____
ROOT
ATOM      1  C   LIG    1        1.218  -0.686  -0.013  0.00  0.00    +0.200 A 
ATOM      2  C   LIG    1        1.231  -2.073  -0.020  0.00  0.00    -0.060 A 
ATOM      3  C   LIG    1        0.039  -2.777  -0.013  0.00  0.00    +0.120 A 
ATOM      4  C   LIG    1       -1.168  -2.100   0.002  0.00  0.00    -0.050 A 
ATOM      5  C   LIG    1       -1.189  -0.716   0.015  0.00  0.00    +0.090 A 
ATOM      6  F   LIG    1       -2.369  -0.058   0.035  0.00  0.00    -0.130 F 
ATOM      7  F   LIG    1        0.054  -4.128  -0.021  0.00  0.00    -0.130 F 
ATOM      8  C   LIG    1        0.002  -0.004   0.002  0.00  0.00    +0.110 A 
ENDROOT
BRANCH   1   9
ATOM      9  N   LIG    1        2.422   0.027  -0.022  0.00  0.00    -0.870 N 
ATOM     10  H   LIG    1        3.268  -0.448  -0.033  0.00  0.00    +0.410 HD
ATOM     11  H   LIG    1        2.412   0.997  -0.017  0.00  0.00    +0.400 HD
ENDBRANCH   1   9
BRANCH   8  12
ATOM     12  N   LIG    1       -0.017   1.399   0.010  0.00  0.00    -0.880 N 
ATOM     13  H   LIG    1       -0.864   1.873   0.016  0.00  0.00    +0.400 HD
ATOM     14  H   LIG    1        0.816   1.896   0.004  0.00  0.00    +0.400 HD
ENDBRANCH   8  12
TORSDOF 2
