REMARK  Name = ZINCpk00000y6xHK.0
REMARK                            x       y       z     vdW  Elec       q    Type
REMARK                         _______ _______ _______ _____ _____    ______ ____
ROOT
ATOM      1  C   LIG    1        3.120  -2.684  -2.872  0.00  0.00    +0.600 C 
ATOM      2  N   LIG    1        2.738  -3.916  -3.263  0.00  0.00    -0.600 N 
ATOM      3  C   LIG    1        3.727  -4.945  -3.622  0.00  0.00    +0.300 C 
ATOM      4  C   LIG    1        3.599  -6.089  -2.608  0.00  0.00    +0.090 C 
ATOM      5  C   LIG    1        2.158  -6.473  -2.420  0.00  0.00    +0.020 A 
ATOM      6  C   LIG    1        1.869  -7.723  -1.876  0.00  0.00    -0.100 A 
ATOM      7  C   LIG    1        0.554  -8.089  -1.674  0.00  0.00    +0.310 A 
ATOM      8  N   LIG    1       -0.430  -7.269  -1.988  0.00  0.00    -0.540 NA
ATOM      9  C   LIG    1       -0.196  -6.077  -2.511  0.00  0.00    +0.420 A 
ATOM     10  C   LIG    1        1.110  -5.644  -2.746  0.00  0.00    -0.220 A 
ATOM     11  C   LIG    1        1.319  -4.281  -3.352  0.00  0.00    +0.330 C 
ATOM     12  O   LIG    1        4.296  -2.375  -2.899  0.00  0.00    -0.510 OA
ENDROOT
BRANCH   1  19
ATOM     13  C   LIG    1       -0.005   1.564   0.005  0.00  0.00    +0.070 C 
ATOM     14  C   LIG    1        0.028   0.035   0.034  0.00  0.00    +0.260 C 
ATOM     15  O   LIG    1        0.761  -0.414   1.182  0.00  0.00    -0.370 OA
ATOM     16  C   LIG    1        1.028  -1.817   1.213  0.00  0.00    +0.150 C 
ATOM     17  C   LIG    1        2.094  -2.170   0.164  0.00  0.00    +0.100 C 
ATOM     18  C   LIG    1        1.693  -1.508  -1.127  0.00  0.00    -0.150 A 
ATOM     19  C   LIG    1        2.115  -1.713  -2.412  0.00  0.00    -0.020 A 
ATOM     20  N   LIG    1        1.407  -0.828  -3.184  0.00  0.00    -0.290 N 
ATOM     21  N   LIG    1        0.616  -0.135  -2.438  0.00  0.00    -0.250 NA
ATOM     22  C   LIG    1        1.530  -0.691  -4.638  0.00  0.00    +0.360 C 
ATOM     23  C   LIG    1        1.536  -2.208   2.603  0.00  0.00    +0.060 C 
ATOM     24  C   LIG    1        0.732  -0.485  -1.195  0.00  0.00    +0.000 A 
ENDBRANCH   1  19
BRANCH   9  25
ATOM     25  N   LIG    1       -1.263  -5.245  -2.829  0.00  0.00    -0.850 N 
ATOM     26  H   LIG    1       -2.168  -5.507  -2.599  0.00  0.00    +0.410 HD
ATOM     27  H   LIG    1       -1.102  -4.402  -3.281  0.00  0.00    +0.400 HD
ENDBRANCH   9  25
TORSDOF 2
