REMARK  Name = ZINCnE000001L0ag.0
REMARK                            x       y       z     vdW  Elec       q    Type
REMARK                         _______ _______ _______ _____ _____    ______ ____
ROOT
ATOM      1  C   LIG    1       -0.017   1.383   0.010  0.00  0.00    +0.220 A 
ATOM      2  C   LIG    1        1.176   2.091   0.002  0.00  0.00    -0.110 A 
ATOM      3  C   LIG    1        2.380   1.413  -0.013  0.00  0.00    +0.080 A 
ATOM      4  C   LIG    1        2.396   0.030  -0.020  0.00  0.00    -0.140 A 
ATOM      5  C   LIG    1        1.208  -0.677  -0.013  0.00  0.00    +0.150 A 
ATOM      6  C   LIG    1        0.002  -0.004   0.002  0.00  0.00    -0.660 A 
ENDROOT
BRANCH   4   7
ATOM      7  C   LIG    1        3.711  -0.706  -0.036  0.00  0.00    -0.020 C 
ATOM      8  C   LIG    1        3.814  -1.591   1.208  0.00  0.00    +0.040 C 
ATOM      9  C   LIG    1        4.861   0.302  -0.041  0.00  0.00    +0.040 C 
ATOM     10  C   LIG    1        3.792  -1.579  -1.290  0.00  0.00    +0.040 C 
ENDBRANCH   4   7
BRANCH   6  11
ATOM     11  S   LIG    1       -1.511  -0.906   0.011  0.00  0.00    +2.640 S 
ATOM     12  O   LIG    1       -1.158  -2.283   0.035  0.00  0.00    -1.030 OA
ATOM     13  O   LIG    1       -2.328  -0.331  -1.000  0.00  0.00    -1.010 OA
BRANCH  11  14
ATOM     14  N   LIG    1       -2.261  -0.591   1.453  0.00  0.00    -1.070 NA
BRANCH  14  15
ATOM     15  C   LIG    1       -3.490  -1.175   1.740  0.00  0.00    +0.450 A 
ATOM     16  C   LIG    1       -4.114  -0.906   2.953  0.00  0.00    -0.110 A 
ATOM     17  C   LIG    1       -5.337  -1.494   3.226  0.00  0.00    +0.060 A 
ATOM     18  C   LIG    1       -5.895  -2.334   2.272  0.00  0.00    -0.180 A 
ATOM     19  C   LIG    1       -5.220  -2.557   1.089  0.00  0.00    +0.170 A 
ATOM     20  C   LIG    1       -5.821  -3.467   0.049  0.00  0.00    +0.100 C 
ATOM     21  N   LIG    1       -4.057  -1.979   0.854  0.00  0.00    -0.600 NA
ENDBRANCH  14  15
ENDBRANCH  11  14
ENDBRANCH   6  11
BRANCH   1  23
ATOM     22  C   LIG    1       -1.145   3.476   0.026  0.00  0.00    +0.230 C 
ATOM     23  O   LIG    1       -1.202   2.048   0.019  0.00  0.00    -0.290 OA
ENDBRANCH   1  23
TORSDOF 5
