REMARK  Name = ZINCpk000000mT9q.0
REMARK                            x       y       z     vdW  Elec       q    Type
REMARK                         _______ _______ _______ _____ _____    ______ ____
ROOT
ATOM      1  C   LIG    1        5.758   0.183   4.138  0.00  0.00    +0.510 C 
ATOM      2  N   LIG    1        5.260   1.372   3.746  0.00  0.00    -0.670 N 
ATOM      3  H   LIG    1        5.840   2.147   3.693  0.00  0.00    +0.410 HD
ATOM      4  O   LIG    1        5.052  -0.804   4.125  0.00  0.00    -0.500 OA
ENDROOT
BRANCH   1  11
ATOM      5  C   LIG    1        7.049  -2.767   7.216  0.00  0.00    +0.110 C 
ATOM      6  C   LIG    1        6.757  -1.460   6.525  0.00  0.00    +0.530 C 
ATOM      7  N   LIG    1        7.380  -1.155   5.370  0.00  0.00    -0.600 N 
ATOM      8  C   LIG    1        8.364  -2.004   4.674  0.00  0.00    +0.240 C 
ATOM      9  C   LIG    1        9.204  -1.021   3.821  0.00  0.00    +0.180 C 
ATOM     10  C   LIG    1        8.126  -0.002   3.368  0.00  0.00    +0.090 C 
ATOM     11  C   LIG    1        7.190   0.079   4.593  0.00  0.00    +0.240 C 
ATOM     12  O   LIG    1        5.961  -0.683   7.008  0.00  0.00    -0.530 OA
BRANCH   9  13
ATOM     13  O   LIG    1       10.210  -0.386   4.613  0.00  0.00    -0.550 OA
ATOM     14  H   LIG    1       10.851  -0.998   4.999  0.00  0.00    +0.390 HD
ENDBRANCH   9  13
ENDBRANCH   1  11
BRANCH   2  15
ATOM     15  C   LIG    1        3.904   1.489   3.416  0.00  0.00    +0.160 A 
ATOM     16  C   LIG    1        3.215   2.658   3.713  0.00  0.00    +0.010 A 
ATOM     17  C   LIG    1        1.879   2.773   3.387  0.00  0.00    +0.050 A 
ATOM     18  C   LIG    1        1.223   1.721   2.762  0.00  0.00    +0.100 A 
ATOM     19  C   LIG    1        1.911   0.550   2.469  0.00  0.00    +0.040 A 
ATOM     20  C   LIG    1        3.248   0.437   2.791  0.00  0.00    +0.050 A 
BRANCH  18  21
ATOM     21  N   LIG    1       -0.135   1.838   2.431  0.00  0.00    -0.410 N 
ATOM     22  C   LIG    1       -1.135   2.241   3.256  0.00  0.00    +0.400 A 
ATOM     23  N   LIG    1       -2.258   2.222   2.590  0.00  0.00    -0.480 NA
ATOM     24  C   LIG    1       -2.021   1.819   1.333  0.00  0.00    +0.000 A 
ATOM     25  C   LIG    1       -3.052   1.669   0.244  0.00  0.00    +0.140 C 
ATOM     26  C   LIG    1       -0.703   1.568   1.213  0.00  0.00    -0.020 A 
ATOM     27  C   LIG    1        0.011   1.089  -0.025  0.00  0.00    +0.140 C 
ENDBRANCH  18  21
ENDBRANCH   2  15
TORSDOF 4
