REMARK  Name = ZINCrD00000F5Lu5.0
REMARK                            x       y       z     vdW  Elec       q    Type
REMARK                         _______ _______ _______ _____ _____    ______ ____
ROOT
ATOM      1  N   LIG    1       -3.570   3.432   2.292  0.00  0.00    -0.580 NA
ATOM      2  C   LIG    1       -2.881   2.338   2.611  0.00  0.00    +0.370 A 
ATOM      3  S   LIG    1       -2.933   1.475   4.100  0.00  0.00    +0.170 S 
ATOM      4  C   LIG    1       -1.752   0.250   3.605  0.00  0.00    -0.090 A 
ATOM      5  C   LIG    1       -1.409   0.570   2.364  0.00  0.00    +0.240 A 
ATOM      6  N   LIG    1       -1.994   1.675   1.831  0.00  0.00    -0.470 N 
ENDROOT
BRANCH   1   7
ATOM      7  C   LIG    1       -4.412   3.973   3.176  0.00  0.00    +0.550 C 
ATOM      8  O   LIG    1       -4.550   3.465   4.277  0.00  0.00    -0.530 OA
BRANCH   7  14
ATOM      9  C   LIG    1       -7.893   7.447   4.164  0.00  0.00    +0.160 C 
ATOM     10  C   LIG    1       -6.833   6.856   3.271  0.00  0.00    +0.050 A 
ATOM     11  N   LIG    1       -6.559   7.425   2.128  0.00  0.00    -0.200 NA
ATOM     12  N   LIG    1       -5.669   6.976   1.321  0.00  0.00    -0.350 N 
ATOM     13  C   LIG    1       -4.943   5.877   1.601  0.00  0.00    +0.500 A 
ATOM     14  C   LIG    1       -5.177   5.187   2.822  0.00  0.00    -0.200 A 
ATOM     15  O   LIG    1       -4.100   5.477   0.816  0.00  0.00    -0.490 OA
ATOM     16  C   LIG    1       -5.431   7.684   0.060  0.00  0.00    +0.360 C 
ATOM     17  C   LIG    1       -6.149   5.702   3.674  0.00  0.00    +0.040 A 
ATOM     18  C   LIG    1       -6.458   5.038   4.991  0.00  0.00    +0.140 C 
ENDBRANCH   7  14
ENDBRANCH   1   7
BRANCH   6  19
ATOM     19  C   LIG    1       -1.685   2.124   0.471  0.00  0.00    +0.370 C 
BRANCH  19  20
ATOM     20  C   LIG    1       -0.527   3.087   0.511  0.00  0.00    -0.110 A 
ATOM     21  C   LIG    1       -0.759   4.449   0.455  0.00  0.00    +0.100 A 
ATOM     22  C   LIG    1        0.303   5.333   0.486  0.00  0.00    +0.030 A 
ATOM     23  C   LIG    1        1.598   4.856   0.579  0.00  0.00    -0.010 A 
ATOM     24  C   LIG    1        1.831   3.493   0.642  0.00  0.00    +0.040 A 
ATOM     25 CL   LIG    1        2.932   5.967   0.619  0.00  0.00    -0.050 Cl
ATOM     26  C   LIG    1        0.767   2.609   0.610  0.00  0.00    -0.010 A 
ATOM     27 CL   LIG    1        1.058   0.899   0.689  0.00  0.00    -0.060 Cl
ENDBRANCH  19  20
ENDBRANCH   6  19
TORSDOF 4
