REMARK  Name = ZINCqH0000000fNv.0
REMARK                            x       y       z     vdW  Elec       q    Type
REMARK                         _______ _______ _______ _____ _____    ______ ____
ROOT
ATOM      1  N   LIG    1        1.100   5.965   0.280  0.00  0.00    -0.620 N 
ATOM      2  C   LIG    1       -0.054   5.319   0.014  0.00  0.00    +0.580 C 
ATOM      3  C   LIG    1       -0.071   3.845   0.018  0.00  0.00    -0.200 A 
ATOM      4  C   LIG    1       -1.263   3.126   0.029  0.00  0.00    +0.110 A 
ATOM      5  C   LIG    1       -1.225   1.746   0.017  0.00  0.00    -0.050 A 
ATOM      6  C   LIG    1       -0.013   1.076   0.008  0.00  0.00    +0.070 A 
ATOM      7  C   LIG    1        1.178   1.777   0.000  0.00  0.00    -0.050 A 
ATOM      8  C   LIG    1        1.158   3.161   0.007  0.00  0.00    +0.240 A 
ATOM      9  N   LIG    1        2.326   3.915   0.006  0.00  0.00    -0.730 N 
ATOM     10  H   LIG    1        3.133   3.577  -0.413  0.00  0.00    +0.420 HD
ATOM     11  O   LIG    1       -1.068   5.945  -0.227  0.00  0.00    -0.530 OA
ATOM     12  C   LIG    1        2.310   5.233   0.651  0.00  0.00    +0.550 C 
ENDROOT
BRANCH  12  13
ATOM     13  C   LIG    1        2.348   5.057   2.147  0.00  0.00    -0.130 A 
ATOM     14  C   LIG    1        1.659   5.934   2.959  0.00  0.00    +0.060 A 
ATOM     15  C   LIG    1        1.687   5.779   4.343  0.00  0.00    +0.070 A 
ATOM     16  C   LIG    1        2.412   4.728   4.888  0.00  0.00    -0.120 A 
ATOM     17  C   LIG    1        2.246   4.807   6.394  0.00  0.00    +0.070 C 
ATOM     18  C   LIG    1        1.041   5.767   6.533  0.00  0.00    +0.200 C 
ATOM     19  C   LIG    1       -0.269   4.983   6.622  0.00  0.00    +0.040 C 
ATOM     20  C   LIG    1        3.103   3.852   4.080  0.00  0.00    -0.030 A 
ATOM     21  O   LIG    1        1.101   6.531   5.317  0.00  0.00    -0.300 OA
ATOM     22  C   LIG    1        3.070   4.010   2.701  0.00  0.00    +0.130 A 
BRANCH  22  23
ATOM     23  O   LIG    1        3.745   3.145   1.898  0.00  0.00    -0.300 OA
ATOM     24  C   LIG    1        4.466   2.092   2.541  0.00  0.00    +0.220 C 
ENDBRANCH  22  23
ENDBRANCH  12  13
BRANCH   1  25
ATOM     25  C   LIG    1        1.141   7.428   0.196  0.00  0.00    +0.330 C 
BRANCH  25  27
ATOM     26  C   LIG    1        0.750   8.656  -1.877  0.00  0.00    +0.040 C 
ATOM     27  C   LIG    1        1.521   7.840  -1.203  0.00  0.00    -0.070 C 
ENDBRANCH  25  27
ENDBRANCH   1  25
TORSDOF 4
