REMARK  Name = ZINCrH000004mxVZ.0
REMARK                            x       y       z     vdW  Elec       q    Type
REMARK                         _______ _______ _______ _____ _____    ______ ____
ROOT
ATOM      1  C   LIG    1        0.002  -0.004   0.002  0.00  0.00    +0.090 C 
ATOM      2  C   LIG    1        0.709  -0.500  -1.263  0.00  0.00    +0.050 C 
ATOM      3  C   LIG    1       -0.086  -0.051  -2.492  0.00  0.00    +0.210 C 
ATOM      4  O   LIG    1       -1.421  -0.554  -2.404  0.00  0.00    -0.370 OA
ATOM      5  C   LIG    1       -2.147  -0.086  -1.265  0.00  0.00    +0.220 C 
ATOM      6  C   LIG    1       -1.434  -0.536   0.013  0.00  0.00    +0.030 C 
ENDROOT
BRANCH   1  10
ATOM      7  C   LIG    1        2.079  -1.424   3.456  0.00  0.00    +0.140 A 
ATOM      8  C   LIG    1        2.730  -0.612   2.539  0.00  0.00    -0.020 A 
ATOM      9  C   LIG    1        2.056  -0.154   1.423  0.00  0.00    +0.090 A 
ATOM     10  C   LIG    1        0.734  -0.505   1.220  0.00  0.00    -0.130 A 
ATOM     11  C   LIG    1        0.082  -1.310   2.135  0.00  0.00    +0.070 A 
ATOM     12  C   LIG    1        0.752  -1.775   3.250  0.00  0.00    -0.080 A 
BRANCH   7  14
ATOM     13  C   LIG    1        2.006  -2.707   5.457  0.00  0.00    +0.250 C 
ATOM     14  O   LIG    1        2.739  -1.875   4.555  0.00  0.00    -0.320 OA
ENDBRANCH   7  14
ENDBRANCH   1  10
BRANCH   1  15
ATOM     15  C   LIG    1       -0.018   1.503   0.010  0.00  0.00    +0.200 A 
ATOM     16  N   LIG    1        1.024   2.298   0.005  0.00  0.00    -0.460 NA
ATOM     17  C   LIG    1        0.527   3.547   0.016  0.00  0.00    +0.170 A 
ATOM     18  N   LIG    1       -0.769   3.450   0.028  0.00  0.00    -0.360 NA
ATOM     19  O   LIG    1       -1.103   2.284   0.019  0.00  0.00    +0.090 OA
BRANCH  17  20
ATOM     20  C   LIG    1        1.325   4.825   0.016  0.00  0.00    +0.350 C 
BRANCH  20  21
ATOM     21  O   LIG    1        1.565   5.237  -1.331  0.00  0.00    -0.310 OA
BRANCH  21  22
ATOM     22  C   LIG    1        2.277   6.380  -1.510  0.00  0.00    +0.130 A 
ATOM     23  C   LIG    1        2.731   7.095  -0.411  0.00  0.00    -0.080 A 
ATOM     24  C   LIG    1        3.459   8.254  -0.595  0.00  0.00    +0.050 A 
ATOM     25  C   LIG    1        3.728   8.708  -1.873  0.00  0.00    -0.020 A 
ATOM     26  C   LIG    1        3.272   8.001  -2.970  0.00  0.00    +0.050 A 
ATOM     27  C   LIG    1        2.547   6.838  -2.791  0.00  0.00    -0.020 A 
ENDBRANCH  21  22
ENDBRANCH  20  21
ENDBRANCH  17  20
ENDBRANCH   1  15
TORSDOF 6
