REMARK  Name = ZINCpk000000pSJe.0
REMARK                            x       y       z     vdW  Elec       q    Type
REMARK                         _______ _______ _______ _____ _____    ______ ____
ROOT
ATOM      1  C   LIG    1       -0.839   3.533  -1.076  0.00  0.00    -0.010 C 
ATOM      2  C   LIG    1       -2.296   3.850  -1.505  0.00  0.00    +0.280 C 
ATOM      3  N   LIG    1       -3.081   2.767  -0.870  0.00  0.00    -0.610 N 
ATOM      4  C   LIG    1       -2.268   1.544  -1.005  0.00  0.00    +0.270 C 
ATOM      5  C   LIG    1       -4.292   2.876  -0.288  0.00  0.00    +0.620 C 
ATOM      6  O   LIG    1       -4.825   1.897   0.196  0.00  0.00    -0.530 OA
ATOM      7  C   LIG    1       -0.798   1.988  -1.120  0.00  0.00    +0.130 C 
ENDROOT
BRANCH   5   8
ATOM      8  C   LIG    1       -4.972   4.187  -0.239  0.00  0.00    -0.010 A 
ATOM      9  N   LIG    1       -4.515   5.332  -0.716  0.00  0.00    -0.270 NA
ATOM     10  N   LIG    1       -5.369   6.273  -0.505  0.00  0.00    -0.270 N 
ATOM     11  C   LIG    1       -6.442   5.785   0.139  0.00  0.00    +0.010 A 
ATOM     12  C   LIG    1       -7.683   6.509   0.595  0.00  0.00    +0.110 C 
ATOM     13  C   LIG    1       -8.768   5.467   0.892  0.00  0.00    +0.020 C 
ATOM     14  C   LIG    1       -8.198   4.376   1.804  0.00  0.00    +0.010 C 
ATOM     15  C   LIG    1       -7.186   3.530   1.019  0.00  0.00    +0.120 C 
ATOM     16  C   LIG    1       -5.192   7.672  -0.902  0.00  0.00    +0.370 C 
ATOM     17  C   LIG    1       -6.228   4.460   0.329  0.00  0.00    -0.140 A 
ENDBRANCH   5   8
BRANCH   7  18
ATOM     18  N   LIG    1       -0.018   1.466   0.010  0.00  0.00    -0.530 NA
ATOM     19  C   LIG    1        1.350   2.006  -0.000  0.00  0.00    +0.150 C 
ATOM     20  C   LIG    1        2.107   1.484   1.224  0.00  0.00    +0.220 C 
ATOM     21  O   LIG    1        2.090   0.054   1.216  0.00  0.00    -0.380 OA
ATOM     22  C   LIG    1        0.773  -0.505   1.226  0.00  0.00    +0.220 C 
ATOM     23  C   LIG    1        0.002  -0.004   0.002  0.00  0.00    +0.150 C 
ENDBRANCH   7  18
BRANCH   1  25
ATOM     24  C   LIG    1        0.188   5.652  -1.912  0.00  0.00    +0.020 C 
ATOM     25  C   LIG    1        0.162   4.130  -2.067  0.00  0.00    +0.020 C 
ENDBRANCH   1  25
TORSDOF 3
