REMARK  Name = ZINCpe000000TVn2.0
REMARK                            x       y       z     vdW  Elec       q    Type
REMARK                         _______ _______ _______ _____ _____    ______ ____
ROOT
ATOM      1  C   LIG    1       -0.764   3.110   1.262  0.00  0.00    +0.240 C 
ATOM      2  C   LIG    1       -0.729   1.579   1.267  0.00  0.00    +0.020 C 
ATOM      3  C   LIG    1       -0.013   1.086   0.008  0.00  0.00    +0.220 C 
ATOM      4  N   LIG    1       -0.723   1.572  -1.182  0.00  0.00    -0.470 N 
ATOM      5  C   LIG    1       -0.729   3.040  -1.234  0.00  0.00    +0.220 C 
ATOM      6  C   LIG    1       -1.466   3.591  -0.011  0.00  0.00    +0.060 C 
ENDROOT
BRANCH   4   7
ATOM      7  C   LIG    1       -0.176   1.035  -2.342  0.00  0.00    +0.270 A 
ATOM      8  C   LIG    1       -0.714   1.369  -3.587  0.00  0.00    +0.250 A 
ATOM      9  N   LIG    1       -0.193   0.864  -4.689  0.00  0.00    -0.420 NA
ATOM     10  C   LIG    1        0.832   0.032  -4.619  0.00  0.00    +0.260 A 
ATOM     11  C   LIG    1        1.370  -0.309  -3.380  0.00  0.00    +0.050 A 
ATOM     12  N   LIG    1        0.850   0.203  -2.267  0.00  0.00    -0.450 NA
BRANCH  11  13
ATOM     13  C   LIG    1        2.518  -1.242  -3.302  0.00  0.00    +0.580 C 
ATOM     14  O   LIG    1        2.992  -1.709  -4.319  0.00  0.00    -0.530 OA
ATOM     15  N   LIG    1        3.038  -1.572  -2.103  0.00  0.00    -0.830 N 
ATOM     16  H   LIG    1        3.790  -2.182  -2.052  0.00  0.00    +0.410 HD
ATOM     17  H   LIG    1        2.659  -1.199  -1.291  0.00  0.00    +0.410 HD
ENDBRANCH  11  13
ENDBRANCH   4   7
BRANCH   1  18
ATOM     18  N   LIG    1       -1.498   3.588   2.436  0.00  0.00    -0.700 N 
ATOM     19  H   LIG    1       -2.444   3.793   2.366  0.00  0.00    +0.410 HD
BRANCH  18  22
ATOM     20  C   LIG    1        1.127   3.633   4.992  0.00  0.00    +0.390 A 
ATOM     21  C   LIG    1        0.515   3.456   3.758  0.00  0.00    -0.180 A 
ATOM     22  C   LIG    1       -0.842   3.747   3.646  0.00  0.00    +0.460 A 
ATOM     23  N   LIG    1       -1.498   4.186   4.718  0.00  0.00    -0.600 NA
ATOM     24  C   LIG    1       -0.881   4.336   5.873  0.00  0.00    +0.580 A 
ATOM     25  N   LIG    1        0.401   4.071   6.017  0.00  0.00    -0.610 NA
BRANCH  20  26
ATOM     26  O   LIG    1        2.446   3.363   5.150  0.00  0.00    -0.300 OA
BRANCH  26  28
ATOM     27  C   LIG    1        4.488   3.216   6.435  0.00  0.00    +0.060 C 
ATOM     28  C   LIG    1        2.999   3.571   6.451  0.00  0.00    +0.210 C 
ENDBRANCH  26  28
ENDBRANCH  20  26
ENDBRANCH  18  22
ENDBRANCH   1  18
TORSDOF 6
