REMARK  Name = ZINCpk00000ebOr1.0
REMARK                            x       y       z     vdW  Elec       q    Type
REMARK                         _______ _______ _______ _____ _____    ______ ____
ROOT
ATOM      1  O   LIG    1        0.002  -0.004   0.002  0.00  0.00    -0.500 OA
ATOM      2  C   LIG    1       -0.015   1.215   0.009  0.00  0.00    +0.540 A 
ATOM      3  N   LIG    1        1.151   1.886   0.001  0.00  0.00    -0.630 N 
ATOM      4  H   LIG    1        1.986   1.393  -0.009  0.00  0.00    +0.420 HD
ATOM      5  C   LIG    1        1.175   3.265   0.007  0.00  0.00    +0.220 A 
ATOM      6  C   LIG    1        2.379   3.958  -0.001  0.00  0.00    -0.060 A 
ATOM      7  C   LIG    1        2.373   5.340   0.005  0.00  0.00    +0.170 A 
ATOM      8  C   LIG    1        1.174   6.043   0.020  0.00  0.00    -0.040 A 
ATOM      9  C   LIG    1       -0.020   5.381   0.028  0.00  0.00    +0.130 A 
ATOM     10  F   LIG    1        3.545   6.013  -0.003  0.00  0.00    -0.130 F 
ATOM     11  C   LIG    1       -0.037   3.982   0.022  0.00  0.00    -0.160 A 
ATOM     12  C   LIG    1       -1.300   3.241   0.032  0.00  0.00    +0.190 A 
ATOM     13  C   LIG    1       -1.255   1.885   0.018  0.00  0.00    -0.230 A 
ENDROOT
BRANCH  13  14
ATOM     14  C   LIG    1       -2.537   1.093   0.020  0.00  0.00    +0.450 C 
BRANCH  14  15
ATOM     15  N   LIG    1       -2.896   0.741  -1.356  0.00  0.00    -0.470 N 
ATOM     16  N   LIG    1       -3.695   1.496  -2.222  0.00  0.00    +0.030 NA
ATOM     17  N   LIG    1       -3.791   0.910  -3.307  0.00  0.00    +0.030 NA
ATOM     18  N   LIG    1       -3.071  -0.290  -3.249  0.00  0.00    -0.420 N 
ATOM     19  C   LIG    1       -2.520  -0.374  -2.019  0.00  0.00    +0.640 A 
ATOM     20  O   LIG    1       -1.822  -1.276  -1.593  0.00  0.00    -0.480 OA
BRANCH  18  21
ATOM     21  C   LIG    1       -2.947  -1.232  -4.279  0.00  0.00    +0.170 A 
ATOM     22  C   LIG    1       -2.193  -2.382  -4.083  0.00  0.00    +0.020 A 
ATOM     23  C   LIG    1       -2.077  -3.311  -5.099  0.00  0.00    +0.040 A 
ATOM     24  C   LIG    1       -2.700  -3.091  -6.314  0.00  0.00    +0.000 A 
ATOM     25  C   LIG    1       -3.447  -1.944  -6.514  0.00  0.00    +0.030 A 
ATOM     26  C   LIG    1       -3.572  -1.015  -5.500  0.00  0.00    +0.010 A 
ENDBRANCH  18  21
ENDBRANCH  14  15
ENDBRANCH  13  14
TORSDOF 3
