REMARK  Name = ZINCtV00000L6kyz.0
REMARK                            x       y       z     vdW  Elec       q    Type
REMARK                         _______ _______ _______ _____ _____    ______ ____
ROOT
ATOM      1  C   LIG    1        0.840  -2.691   7.492  0.00  0.00    +0.020 A 
ATOM      2  C   LIG    1        0.463  -1.812   6.487  0.00  0.00    -0.020 A 
ATOM      3  C   LIG    1       -0.433  -0.776   6.779  0.00  0.00    +0.220 A 
ATOM      4  N   LIG    1       -0.935  -0.597   7.985  0.00  0.00    -0.480 NA
ATOM      5  C   LIG    1       -0.632  -1.398   9.009  0.00  0.00    +0.140 A 
ATOM      6  C   LIG    1       -1.186  -1.188  10.284  0.00  0.00    +0.050 A 
ATOM      7  C   LIG    1       -0.853  -2.018  11.311  0.00  0.00    +0.030 A 
ATOM      8  C   LIG    1        0.031  -3.078  11.120  0.00  0.00    +0.010 A 
ATOM      9  C   LIG    1        0.587  -3.312   9.898  0.00  0.00    +0.030 A 
ATOM     10  C   LIG    1        0.267  -2.478   8.821  0.00  0.00    -0.100 A 
ENDROOT
BRANCH   1  14
ATOM     11  C   LIG    1        3.550  -5.876   6.739  0.00  0.00    +0.020 A 
ATOM     12  C   LIG    1        2.460  -5.689   5.908  0.00  0.00    +0.010 A 
ATOM     13  C   LIG    1        1.576  -4.656   6.148  0.00  0.00    +0.030 A 
ATOM     14  C   LIG    1        1.784  -3.801   7.230  0.00  0.00    -0.050 A 
ATOM     15  C   LIG    1        2.888  -3.992   8.060  0.00  0.00    +0.030 A 
ATOM     16  C   LIG    1        3.762  -5.031   7.813  0.00  0.00    +0.010 A 
ENDBRANCH   1  14
BRANCH   3  17
ATOM     17  C   LIG    1       -0.827   0.156   5.695  0.00  0.00    -0.080 A 
ATOM     18  C   LIG    1       -1.718   1.196   5.958  0.00  0.00    +0.090 A 
ATOM     19  C   LIG    1       -2.082   2.061   4.949  0.00  0.00    -0.030 A 
ATOM     20  C   LIG    1       -1.562   1.897   3.670  0.00  0.00    +0.190 A 
ATOM     21  C   LIG    1       -0.678   0.857   3.404  0.00  0.00    +0.020 A 
ATOM     22  C   LIG    1       -0.306  -0.007   4.411  0.00  0.00    +0.050 A 
BRANCH  20  23
ATOM     23  N   LIG    1       -1.932   2.775   2.648  0.00  0.00    -0.650 N 
ATOM     24  H   LIG    1       -2.829   3.143   2.628  0.00  0.00    +0.420 HD
BRANCH  23  25
ATOM     25  C   LIG    1       -1.024   3.116   1.671  0.00  0.00    +0.430 C 
ATOM     26  N   LIG    1        0.177   2.698   1.794  0.00  0.00    -0.600 NA
ATOM     27  C   LIG    1        1.313   2.943   0.931  0.00  0.00    +0.250 C 
ATOM     28  C   LIG    1        0.901   3.385  -0.468  0.00  0.00    +0.020 C 
ATOM     29  C   LIG    1        0.005   4.626  -0.357  0.00  0.00    +0.130 C 
ATOM     30  S   LIG    1       -1.589   4.102   0.328  0.00  0.00    -0.160 S 
ENDBRANCH  23  25
ENDBRANCH  20  23
ENDBRANCH   3  17
TORSDOF 4
