REMARK  Name = ZINCkj000005ll51.0
REMARK                            x       y       z     vdW  Elec       q    Type
REMARK                         _______ _______ _______ _____ _____    ______ ____
ROOT
ATOM      1  C   LIG    1       -4.382   5.994  -2.931  0.00  0.00    +0.240 C 
ATOM      2  C   LIG    1       -5.878   5.824  -3.218  0.00  0.00    +0.010 C 
ATOM      3  C   LIG    1       -6.686   6.494  -2.104  0.00  0.00    +0.030 C 
ATOM      4  C   LIG    1       -6.371   5.819  -0.767  0.00  0.00    +0.020 C 
ATOM      5  C   LIG    1       -4.885   5.984  -0.453  0.00  0.00    +0.270 C 
ATOM      6  N   LIG    1       -4.098   5.477  -1.585  0.00  0.00    -0.600 N 
ATOM      7  C   LIG    1       -3.136   4.552  -1.394  0.00  0.00    +0.520 C 
ATOM      8  O   LIG    1       -2.561   4.070  -2.346  0.00  0.00    -0.530 OA
ENDROOT
BRANCH   1   9
ATOM      9  C   LIG    1       -3.570   5.210  -3.964  0.00  0.00    +0.060 C 
BRANCH   9  10
ATOM     10  C   LIG    1       -3.846   5.769  -5.361  0.00  0.00    +0.240 C 
BRANCH  10  11
ATOM     11  N   LIG    1       -2.974   5.102  -6.336  0.00  0.00    -0.630 N 
ATOM     12  H   LIG    1       -2.009   5.267  -6.093  0.00  0.00    +0.440 HD
ATOM     13  H   LIG    1       -3.156   5.470  -7.258  0.00  0.00    +0.440 HD
ATOM     14  H   LIG    1       -3.157   4.110  -6.329  0.00  0.00    +0.440 HD
ENDBRANCH  10  11
ENDBRANCH   9  10
ENDBRANCH   1   9
BRANCH   7  15
ATOM     15  C   LIG    1       -2.777   4.117   0.003  0.00  0.00    +0.340 C 
BRANCH  15  16
ATOM     16  N   LIG    1       -1.713   3.112  -0.057  0.00  0.00    -0.480 N 
ATOM     17  C   LIG    1       -2.037   1.796  -0.147  0.00  0.00    +0.340 A 
ATOM     18  C   LIG    1       -1.071   0.849  -0.199  0.00  0.00    -0.200 A 
ATOM     19  C   LIG    1        0.280   1.224  -0.170  0.00  0.00    +0.150 A 
ATOM     20  C   LIG    1        0.603   2.547  -0.084  0.00  0.00    -0.060 A 
ATOM     21 BR   LIG    1       -1.543  -0.979  -0.317  0.00  0.00    -0.010 Br
ATOM     22  C   LIG    1       -0.425   3.504  -0.027  0.00  0.00    +0.520 A 
ATOM     23  O   LIG    1       -0.149   4.690   0.050  0.00  0.00    -0.540 OA
ENDBRANCH  15  16
ENDBRANCH   7  15
TORSDOF 5
