REMARK  Name = ZINCrH000004t7v9.0
REMARK                            x       y       z     vdW  Elec       q    Type
REMARK                         _______ _______ _______ _____ _____    ______ ____
ROOT
ATOM      1  N   LIG    1        1.758  -1.719  -0.024  0.00  0.00    -0.660 N 
ATOM      2  H   LIG    1        2.710  -1.903  -0.034  0.00  0.00    +0.410 HD
ATOM      3  C   LIG    1        0.876  -2.738  -0.021  0.00  0.00    +0.710 C 
ATOM      4  N   LIG    1        1.317  -4.012  -0.032  0.00  0.00    -0.730 N 
ATOM      5  H   LIG    1        2.270  -4.195  -0.042  0.00  0.00    +0.400 HD
ATOM      6  O   LIG    1       -0.318  -2.509  -0.007  0.00  0.00    -0.550 OA
ENDROOT
BRANCH   1  12
ATOM      7  C   LIG    1        3.541   0.746  -0.027  0.00  0.00    +0.360 C 
ATOM      8  N   LIG    1        2.076   0.715  -0.014  0.00  0.00    -0.380 N 
ATOM      9  N   LIG    1        1.230   1.831   0.000  0.00  0.00    -0.260 NA
ATOM     10  C   LIG    1       -0.017   1.405   0.010  0.00  0.00    +0.160 A 
ATOM     11  C   LIG    1        0.002  -0.004   0.002  0.00  0.00    -0.070 A 
ATOM     12  C   LIG    1        1.301  -0.401  -0.013  0.00  0.00    +0.330 A 
BRANCH  10  13
ATOM     13  C   LIG    1       -1.226   2.257   0.020  0.00  0.00    +0.050 A 
ATOM     14  C   LIG    1       -1.244   3.616   0.033  0.00  0.00    -0.020 A 
ATOM     15  C   LIG    1       -2.599   4.004   0.038  0.00  0.00    -0.070 A 
ATOM     16  C   LIG    1       -3.333   2.875   0.035  0.00  0.00    +0.190 A 
ATOM     17  O   LIG    1       -2.500   1.821   0.025  0.00  0.00    -0.160 OA
ENDBRANCH  10  13
ENDBRANCH   1  12
BRANCH   4  18
ATOM     18  C   LIG    1        0.358  -5.119  -0.028  0.00  0.00    +0.270 C 
ATOM     19  C   LIG    1       -0.046  -5.473   1.418  0.00  0.00    +0.030 C 
ATOM     20  C   LIG    1        0.402  -6.938   1.613  0.00  0.00    +0.190 C 
ATOM     21  N   LIG    1        1.488  -7.133   0.618  0.00  0.00    -0.460 N 
ATOM     22  C   LIG    1        1.016  -6.400  -0.586  0.00  0.00    +0.200 C 
BRANCH  21  23
ATOM     23  C   LIG    1        1.672  -8.489   0.337  0.00  0.00    +0.110 A 
ATOM     24  C   LIG    1        2.018  -9.369   1.355  0.00  0.00    +0.000 A 
ATOM     25  C   LIG    1        2.200 -10.709   1.075  0.00  0.00    +0.060 A 
ATOM     26  C   LIG    1        2.039 -11.176  -0.217  0.00  0.00    +0.000 A 
ATOM     27  C   LIG    1        1.695 -10.301  -1.234  0.00  0.00    -0.010 A 
ATOM     28 CL   LIG    1        1.494 -10.892  -2.854  0.00  0.00    -0.070 Cl
ATOM     29  C   LIG    1        1.506  -8.960  -0.959  0.00  0.00    -0.020 A 
ENDBRANCH  21  23
ENDBRANCH   4  18
TORSDOF 4
