REMARK  Name = ZINCqH0000007uSX.0
REMARK                            x       y       z     vdW  Elec       q    Type
REMARK                         _______ _______ _______ _____ _____    ______ ____
ROOT
ATOM      1  C   LIG    1        2.374   5.458   0.007  0.00  0.00    +0.210 C 
ENDROOT
BRANCH   1   2
ATOM      2  C   LIG    1        2.408   3.951  -0.001  0.00  0.00    +0.400 C 
ATOM      3  O   LIG    1        3.471   3.368  -0.014  0.00  0.00    -0.400 OA
BRANCH   2   4
ATOM      4  C   LIG    1        1.153   3.189   0.008  0.00  0.00    -0.180 A 
ATOM      5  C   LIG    1       -0.077   3.856   0.023  0.00  0.00    +0.090 A 
ATOM      6  C   LIG    1       -1.250   3.134   0.030  0.00  0.00    -0.120 A 
ATOM      7  C   LIG    1       -1.218   1.749   0.017  0.00  0.00    +0.100 A 
ATOM      8  C   LIG    1       -0.013   1.076   0.008  0.00  0.00    -0.060 A 
ATOM      9  C   LIG    1       -2.573   3.854   0.046  0.00  0.00    +0.100 C 
ATOM     10  C   LIG    1        1.179   1.784   0.000  0.00  0.00    +0.160 A 
BRANCH  10  11
ATOM     11  O   LIG    1        2.364   1.125  -0.014  0.00  0.00    -0.290 OA
BRANCH  11  12
ATOM     12  C   LIG    1        2.311  -0.303  -0.020  0.00  0.00    +0.600 C 
ATOM     13  F   LIG    1        1.625  -0.740  -1.158  0.00  0.00    -0.200 F 
ATOM     14  F   LIG    1        1.646  -0.751   1.127  0.00  0.00    -0.200 F 
ENDBRANCH  11  12
ENDBRANCH  10  11
ENDBRANCH   2   4
ENDBRANCH   1   2
BRANCH   1  15
ATOM     15  O   LIG    1        3.710   5.964  -0.003  0.00  0.00    -0.270 OA
BRANCH  15  21
ATOM     16  C   LIG    1        5.131   7.878  -0.007  0.00  0.00    +0.160 A 
ATOM     17  C   LIG    1        5.277   9.256  -0.002  0.00  0.00    -0.020 A 
ATOM     18  C   LIG    1        4.158  10.069   0.013  0.00  0.00    +0.120 A 
ATOM     19  C   LIG    1        2.894   9.511   0.022  0.00  0.00    -0.050 A 
ATOM     20  C   LIG    1        2.742   8.136   0.011  0.00  0.00    +0.040 A 
ATOM     21  C   LIG    1        3.858   7.316   0.002  0.00  0.00    +0.100 A 
BRANCH  19  22
ATOM     22  N   LIG    1        1.701  10.386   0.037  0.00  0.00    +0.030 N 
ATOM     23  O   LIG    1        0.586   9.895   0.045  0.00  0.00    -0.160 OA
ATOM     24  O   LIG    1        1.833  11.597   0.042  0.00  0.00    -0.160 OA
ENDBRANCH  19  22
BRANCH  16  26
ATOM     25  C   LIG    1        7.504   7.724  -0.032  0.00  0.00    +0.250 C 
ATOM     26  O   LIG    1        6.230   7.077  -0.023  0.00  0.00    -0.290 OA
ENDBRANCH  16  26
ENDBRANCH  15  21
ENDBRANCH   1  15
TORSDOF 8
