REMARK  Name = ZINCpk00000eaUVt.0
REMARK                            x       y       z     vdW  Elec       q    Type
REMARK                         _______ _______ _______ _____ _____    ______ ____
ROOT
ATOM      1  N   LIG    1       -7.548   1.086   2.651  0.00  0.00    -0.720 N 
ATOM      2  H   LIG    1       -7.080   1.224   3.489  0.00  0.00    +0.400 HD
ATOM      3  C   LIG    1       -6.909   1.290   1.482  0.00  0.00    +0.520 C 
ATOM      4  O   LIG    1       -7.493   1.117   0.433  0.00  0.00    -0.540 OA
ENDROOT
BRANCH   1   5
ATOM      5  C   LIG    1       -8.948   0.657   2.655  0.00  0.00    +0.350 C 
BRANCH   5  10
ATOM      6  C   LIG    1      -10.741   0.015   8.089  0.00  0.00    +0.140 C 
ATOM      7  C   LIG    1      -10.274   0.189   6.667  0.00  0.00    +0.180 A 
ATOM      8  C   LIG    1      -10.507   1.357   6.024  0.00  0.00    -0.090 A 
ATOM      9  C   LIG    1      -10.075   1.525   4.700  0.00  0.00    +0.050 A 
ATOM     10  C   LIG    1       -9.423   0.503   4.077  0.00  0.00    -0.260 A 
ATOM     11  C   LIG    1       -9.202  -0.698   4.772  0.00  0.00    +0.530 A 
ATOM     12  O   LIG    1       -8.623  -1.623   4.224  0.00  0.00    -0.540 OA
ATOM     13  C   LIG    1      -10.330   2.821   3.975  0.00  0.00    +0.120 C 
ATOM     14  N   LIG    1       -9.624  -0.827   6.045  0.00  0.00    -0.610 N 
ATOM     15  H   LIG    1       -9.465  -1.658   6.521  0.00  0.00    +0.420 HD
ENDBRANCH   5  10
ENDBRANCH   1   5
BRANCH   3  16
ATOM     16  C   LIG    1       -5.468   1.731   1.478  0.00  0.00    +0.040 C 
BRANCH  16  17
ATOM     17  C   LIG    1       -4.986   1.888   0.034  0.00  0.00    +0.330 C 
BRANCH  17  18
ATOM     18  N   LIG    1       -3.586   2.317   0.030  0.00  0.00    -0.530 N 
ATOM     19  C   LIG    1       -3.285   3.641   0.036  0.00  0.00    +0.600 A 
ATOM     20  N   LIG    1       -2.057   4.066   0.044  0.00  0.00    -0.500 NA
ATOM     21  C   LIG    1       -1.010   3.212   0.029  0.00  0.00    +0.070 A 
ATOM     22  C   LIG    1       -1.244   1.840   0.018  0.00  0.00    -0.230 A 
ATOM     23  C   LIG    1       -0.013   1.076   0.008  0.00  0.00    +0.080 A 
ATOM     24  C   LIG    1        1.090   1.802   0.001  0.00  0.00    -0.050 A 
ATOM     25  S   LIG    1        0.722   3.517   0.014  0.00  0.00    +0.200 S 
ATOM     26  C   LIG    1       -2.603   1.395   0.021  0.00  0.00    +0.560 A 
ATOM     27  O   LIG    1       -2.867   0.205   0.015  0.00  0.00    -0.520 OA
ENDBRANCH  17  18
ENDBRANCH  16  17
ENDBRANCH   3  16
TORSDOF 5
