REMARK  Name = ZINCqH0000008Aso.0
REMARK                            x       y       z     vdW  Elec       q    Type
REMARK                         _______ _______ _______ _____ _____    ______ ____
ROOT
ATOM      1  S   LIG    1        1.146  -2.805  -1.610  0.00  0.00    +2.440 S 
ATOM      2  O   LIG    1        2.382  -2.529  -2.254  0.00  0.00    -0.900 OA
ATOM      3  O   LIG    1       -0.063  -2.354  -2.205  0.00  0.00    -0.900 OA
ENDROOT
BRANCH   1   4
ATOM      4  C   LIG    1        1.023  -4.594  -1.336  0.00  0.00    -0.460 C 
ATOM      5  C   LIG    1        2.192  -5.058  -0.465  0.00  0.00    +0.120 C 
BRANCH   4   8
ATOM      6  N   LIG    1        0.511  -6.529  -2.789  0.00  0.00    -0.710 N 
ATOM      7  H   LIG    1        0.080  -6.947  -2.027  0.00  0.00    +0.400 HD
ATOM      8  C   LIG    1        1.069  -5.309  -2.662  0.00  0.00    +0.540 C 
ATOM      9  O   LIG    1        1.609  -4.786  -3.614  0.00  0.00    -0.520 OA
BRANCH   6  16
ATOM     10  C   LIG    1        1.622  -9.197  -2.976  0.00  0.00    +0.020 C 
ATOM     11  C   LIG    1        0.453  -8.733  -3.847  0.00  0.00    -0.020 C 
ATOM     12  C   LIG    1        0.500  -9.459  -5.193  0.00  0.00    +0.030 C 
ATOM     13  C   LIG    1       -0.669  -8.995  -6.064  0.00  0.00    +0.010 C 
ATOM     14  C   LIG    1       -0.566  -7.486  -6.295  0.00  0.00    +0.020 C 
ATOM     15  C   LIG    1       -0.613  -6.760  -4.949  0.00  0.00    +0.010 C 
ATOM     16  C   LIG    1        0.556  -7.224  -4.078  0.00  0.00    +0.240 C 
ENDBRANCH   6  16
ENDBRANCH   4   8
ENDBRANCH   1   4
BRANCH   1  17
ATOM     17  C   LIG    1        1.225  -2.171   0.088  0.00  0.00    -0.300 C 
BRANCH  17  18
ATOM     18  C   LIG    1        1.188  -0.664   0.064  0.00  0.00    -0.040 A 
ATOM     19  C   LIG    1        2.343   0.051  -0.188  0.00  0.00    +0.040 A 
ATOM     20  C   LIG    1        2.309   1.433  -0.210  0.00  0.00    +0.060 A 
ATOM     21  C   LIG    1        1.120   2.099   0.019  0.00  0.00    +0.030 A 
ATOM     22  C   LIG    1       -0.035   1.383   0.272  0.00  0.00    +0.080 A 
ATOM     23  C   LIG    1       -0.002   0.002   0.294  0.00  0.00    -0.170 A 
BRANCH  23  24
ATOM     24  C   LIG    1       -1.261  -0.779   0.568  0.00  0.00    +0.500 C 
ATOM     25  F   LIG    1       -1.106  -1.517   1.746  0.00  0.00    -0.180 F 
ATOM     26  F   LIG    1       -1.512  -1.649  -0.499  0.00  0.00    -0.160 F 
ATOM     27  F   LIG    1       -2.336   0.106   0.710  0.00  0.00    -0.170 F 
ENDBRANCH  23  24
ENDBRANCH  17  18
ENDBRANCH   1  17
TORSDOF 6
