REMARK  Name = ZINCpk000000nvXQ.0
REMARK                            x       y       z     vdW  Elec       q    Type
REMARK                         _______ _______ _______ _____ _____    ______ ____
ROOT
ATOM      1  C   LIG    1       -2.404   1.387  -0.250  0.00  0.00    +0.250 C 
ATOM      2  C   LIG    1       -2.757   2.224  -1.444  0.00  0.00    +0.520 C 
ATOM      3  N   LIG    1       -2.128   3.362  -1.746  0.00  0.00    -0.720 N 
ATOM      4  H   LIG    1       -2.459   3.873  -2.501  0.00  0.00    +0.400 HD
ATOM      5  C   LIG    1       -0.981   3.890  -1.021  0.00  0.00    +0.250 C 
ATOM      6  C   LIG    1       -0.920   3.311   0.394  0.00  0.00    +0.290 C 
ATOM      7  O   LIG    1       -3.652   1.848  -2.171  0.00  0.00    -0.530 OA
ATOM      8  N   LIG    1       -1.125   1.855   0.304  0.00  0.00    -0.620 N 
ATOM      9  C   LIG    1       -0.176   0.987   0.708  0.00  0.00    +0.540 C 
ATOM     10  O   LIG    1       -0.415  -0.201   0.739  0.00  0.00    -0.490 OA
ENDROOT
BRANCH   1  11
ATOM     11  C   LIG    1       -2.274  -0.078  -0.672  0.00  0.00    +0.060 C 
BRANCH  11  13
ATOM     12  C   LIG    1       -0.024   0.302  -1.690  0.00  0.00    +0.000 C 
ATOM     13  C   LIG    1       -1.455  -0.166  -1.962  0.00  0.00    -0.030 C 
ATOM     14  C   LIG    1       -1.433  -1.615  -2.454  0.00  0.00    +0.020 C 
ENDBRANCH  11  13
ENDBRANCH   1  11
BRANCH   9  15
ATOM     15  C   LIG    1        1.184   1.493   1.116  0.00  0.00    +0.130 C 
BRANCH  15  16
ATOM     16  C   LIG    1        2.054   0.329   1.516  0.00  0.00    +0.160 A 
ATOM     17  C   LIG    1        2.875  -0.208   0.600  0.00  0.00    -0.030 A 
ATOM     18  C   LIG    1        3.726  -1.340   0.973  0.00  0.00    +0.010 A 
ATOM     19  C   LIG    1        4.599  -1.939   0.064  0.00  0.00    +0.010 A 
ATOM     20  C   LIG    1        5.373  -2.993   0.464  0.00  0.00    +0.050 A 
ATOM     21  C   LIG    1        5.303  -3.476   1.764  0.00  0.00    -0.010 A 
ATOM     22  C   LIG    1        4.450  -2.904   2.683  0.00  0.00    +0.090 A 
ATOM     23  C   LIG    1        3.651  -1.828   2.298  0.00  0.00    -0.150 A 
ATOM     24  C   LIG    1        2.724  -1.176   3.228  0.00  0.00    +0.550 A 
ATOM     25  O   LIG    1        2.629  -1.565   4.378  0.00  0.00    -0.530 OA
ATOM     26  N   LIG    1        1.982  -0.136   2.798  0.00  0.00    -0.620 N 
ATOM     27  H   LIG    1        1.373   0.294   3.419  0.00  0.00    +0.410 HD
ENDBRANCH  15  16
ENDBRANCH   9  15
TORSDOF 4
