REMARK  Name = ZINCrD0000073Xfp.0
REMARK                            x       y       z     vdW  Elec       q    Type
REMARK                         _______ _______ _______ _____ _____    ______ ____
ROOT
ATOM      1  C   LIG    1        0.726   8.103  -1.492  0.00  0.00    +0.080 C 
ATOM      2  C   LIG    1        0.008   7.816  -0.172  0.00  0.00    +0.200 C 
ENDROOT
BRANCH   2   3
ATOM      3  C   LIG    1       -0.272   6.339  -0.063  0.00  0.00    +0.520 C 
ATOM      4  N   LIG    1        0.750   5.465   0.024  0.00  0.00    -0.660 N 
ATOM      5  H   LIG    1        1.661   5.789   0.094  0.00  0.00    +0.420 HD
ATOM      6  O   LIG    1       -1.417   5.938  -0.054  0.00  0.00    -0.490 OA
BRANCH   4   7
ATOM      7  C   LIG    1        0.495   4.087   0.014  0.00  0.00    +0.160 A 
ATOM      8  C   LIG    1        1.301   3.227   0.746  0.00  0.00    +0.010 A 
ATOM      9  C   LIG    1        1.048   1.868   0.741  0.00  0.00    +0.060 A 
ATOM     10  C   LIG    1       -0.004   1.360  -0.003  0.00  0.00    +0.020 A 
ATOM     11  O   LIG    1       -0.455   0.082  -0.176  0.00  0.00    -0.310 OA
ATOM     12  C   LIG    1       -1.293   0.125  -1.346  0.00  0.00    +0.430 C 
ATOM     13  O   LIG    1       -1.773   1.483  -1.373  0.00  0.00    -0.310 OA
ATOM     14  C   LIG    1       -0.815   2.221  -0.739  0.00  0.00    +0.060 A 
ATOM     15  C   LIG    1       -0.564   3.582  -0.729  0.00  0.00    +0.050 A 
ENDBRANCH   4   7
ENDBRANCH   2   3
BRANCH   2  16
ATOM     16  O   LIG    1       -1.245   8.550  -0.133  0.00  0.00    -0.320 OA
BRANCH  16  17
ATOM     17  C   LIG    1       -1.210   9.791   0.392  0.00  0.00    +0.520 C 
ATOM     18  O   LIG    1       -0.163  10.247   0.806  0.00  0.00    -0.480 OA
BRANCH  17  19
ATOM     19  C   LIG    1       -2.443  10.594   0.464  0.00  0.00    -0.170 A 
ATOM     20  C   LIG    1       -3.655  10.084  -0.015  0.00  0.00    +0.160 A 
ATOM     21  C   LIG    1       -4.785  10.876   0.081  0.00  0.00    -0.030 A 
ATOM     22  C   LIG    1       -4.686  12.142   0.630  0.00  0.00    +0.330 A 
ATOM     23  N   LIG    1       -3.534  12.608   1.071  0.00  0.00    -0.480 NA
ATOM     24  C   LIG    1       -2.422  11.891   1.009  0.00  0.00    +0.160 A 
BRANCH  24  25
ATOM     25  S   LIG    1       -0.910  12.563   1.614  0.00  0.00    +0.040 S 
BRANCH  25  26
ATOM     26  C   LIG    1       -1.488  14.187   2.168  0.00  0.00    +0.380 C 
ATOM     27  F   LIG    1       -2.470  14.022   3.150  0.00  0.00    -0.180 F 
ATOM     28  F   LIG    1       -2.026  14.885   1.082  0.00  0.00    -0.180 F 
ENDBRANCH  25  26
ENDBRANCH  24  25
ENDBRANCH  17  19
ENDBRANCH  16  17
ENDBRANCH   2  16
TORSDOF 7
