REMARK  Name = ZINCqH0000007mgF.2
REMARK                            x       y       z     vdW  Elec       q    Type
REMARK                         _______ _______ _______ _____ _____    ______ ____
ROOT
ATOM      1  C   LIG    1        7.460   1.460  -3.010  0.00  0.00    +0.150 C 
ENDROOT
BRANCH   1   2
ATOM      2  O   LIG    1        7.846   1.712  -4.363  0.00  0.00    -0.290 OA
BRANCH   2   6
ATOM      3  C   LIG    1       11.871   2.273  -5.087  0.00  0.00    +0.090 A 
ATOM      4  C   LIG    1       11.427   2.024  -3.797  0.00  0.00    -0.050 A 
ATOM      5  C   LIG    1       10.079   1.842  -3.554  0.00  0.00    -0.040 A 
ATOM      6  C   LIG    1        9.172   1.897  -4.601  0.00  0.00    +0.100 A 
ATOM      7  C   LIG    1        9.617   2.145  -5.891  0.00  0.00    -0.060 A 
ATOM      8  C   LIG    1       10.963   2.333  -6.134  0.00  0.00    +0.020 A 
BRANCH   7   9
ATOM      9  C   LIG    1        8.630   2.211  -7.029  0.00  0.00    -0.020 C 
ATOM     10  C   LIG    1        7.619   3.328  -6.764  0.00  0.00    +0.040 C 
ATOM     11  C   LIG    1        7.894   0.874  -7.143  0.00  0.00    +0.050 C 
ATOM     12  C   LIG    1        9.375   2.496  -8.335  0.00  0.00    +0.030 C 
ENDBRANCH   7   9
BRANCH   3  14
ATOM     13  C   LIG    1       14.076   2.382  -4.201  0.00  0.00    +0.230 C 
ATOM     14  O   LIG    1       13.197   2.458  -5.326  0.00  0.00    -0.320 OA
ENDBRANCH   3  14
ENDBRANCH   2   6
ENDBRANCH   1   2
BRANCH   1  15
ATOM     15  C   LIG    1        5.942   1.279  -2.939  0.00  0.00    +0.230 C 
BRANCH  15  16
ATOM     16  O   LIG    1        5.567   0.106  -3.664  0.00  0.00    -0.530 OA
ATOM     17  H   LIG    1        5.967  -0.708  -3.329  0.00  0.00    +0.370 HD
ENDBRANCH  15  16
BRANCH  15  18
ATOM     18  C   LIG    1        5.513   1.134  -1.477  0.00  0.00    +0.170 C 
BRANCH  18  19
ATOM     19  N   LIG    1        4.050   1.028  -1.404  0.00  0.00    -0.530 NA
ATOM     20  C   LIG    1        3.628   0.432  -0.129  0.00  0.00    +0.200 C 
BRANCH  19  21
ATOM     21  C   LIG    1        3.417   2.338  -1.608  0.00  0.00    +0.290 C 
BRANCH  21  22
ATOM     22  C   LIG    1        1.930   2.156  -1.772  0.00  0.00    -0.000 A 
ATOM     23  C   LIG    1        1.022   2.167  -0.779  0.00  0.00    -0.060 A 
ATOM     24  C   LIG    1       -0.242   1.962  -1.377  0.00  0.00    -0.070 A 
ATOM     25  C   LIG    1       -0.032   1.840  -2.700  0.00  0.00    -0.010 A 
ATOM     26  C   LIG    1       -1.093   1.603  -3.743  0.00  0.00    +0.170 C 
ATOM     27  O   LIG    1        1.286   1.958  -2.933  0.00  0.00    -0.160 OA
ENDBRANCH  21  22
ENDBRANCH  19  21
ENDBRANCH  18  19
ENDBRANCH  15  18
ENDBRANCH   1  15
TORSDOF 10
