REMARK  Name = ZINCqH0000050as7.0
REMARK                            x       y       z     vdW  Elec       q    Type
REMARK                         _______ _______ _______ _____ _____    ______ ____
ROOT
ATOM      1  C   LIG    1        2.490   1.045  -0.016  0.00  0.00    +0.290 C 
ENDROOT
BRANCH   1   5
ATOM      2  C   LIG    1       -1.236   3.138   0.030  0.00  0.00    +0.170 A 
ATOM      3  C   LIG    1       -1.218   1.749   0.017  0.00  0.00    +0.000 A 
ATOM      4  C   LIG    1       -0.013   1.076   0.008  0.00  0.00    +0.070 A 
ATOM      5  C   LIG    1        1.176   1.783   0.000  0.00  0.00    -0.100 A 
ATOM      6  C   LIG    1        1.161   3.165   0.008  0.00  0.00    +0.070 A 
ATOM      7  C   LIG    1       -0.042   3.845   0.023  0.00  0.00    +0.030 A 
BRANCH   2  14
ATOM      8  C   LIG    1       -3.778   2.191  -1.402  0.00  0.00    +0.150 C 
ATOM      9  C   LIG    1       -3.597   3.436  -0.574  0.00  0.00    +0.090 A 
ATOM     10  C   LIG    1       -4.544   4.368  -0.315  0.00  0.00    -0.110 A 
ATOM     11  C   LIG    1       -3.966   5.357   0.488  0.00  0.00    +0.080 A 
ATOM     12  N   LIG    1       -2.719   5.030   0.709  0.00  0.00    -0.290 NA
ATOM     13  C   LIG    1       -4.663   6.586   1.014  0.00  0.00    +0.160 C 
ATOM     14  N   LIG    1       -2.458   3.824   0.045  0.00  0.00    -0.330 N 
ENDBRANCH   2  14
ENDBRANCH   1   5
BRANCH   1  15
ATOM     15  O   LIG    1        2.899   0.815  -1.390  0.00  0.00    -0.340 OA
BRANCH  15  16
ATOM     16  C   LIG    1        4.062   0.162  -1.581  0.00  0.00    +0.560 C 
ATOM     17  O   LIG    1        4.716  -0.206  -0.626  0.00  0.00    -0.490 OA
BRANCH  16  18
ATOM     18  C   LIG    1        4.540  -0.106  -2.948  0.00  0.00    +0.010 A 
ATOM     19  N   LIG    1        3.940   0.224  -4.072  0.00  0.00    -0.170 NA
ATOM     20  N   LIG    1        4.611  -0.148  -5.102  0.00  0.00    -0.410 N 
ATOM     21  H   LIG    1        4.337   0.006  -6.019  0.00  0.00    +0.450 HD
ATOM     22  C   LIG    1        5.763  -0.795  -4.737  0.00  0.00    +0.060 A 
ATOM     23  C   LIG    1        6.815  -1.385  -5.429  0.00  0.00    +0.010 A 
ATOM     24  C   LIG    1        7.850  -1.966  -4.731  0.00  0.00    +0.060 A 
ATOM     25  C   LIG    1        7.856  -1.969  -3.343  0.00  0.00    +0.000 A 
ATOM     26  C   LIG    1        6.833  -1.394  -2.642  0.00  0.00    +0.090 A 
ATOM     27  C   LIG    1        5.777  -0.802  -3.328  0.00  0.00    -0.100 A 
ENDBRANCH  16  18
ENDBRANCH  15  16
ENDBRANCH   1  15
TORSDOF 5
