REMARK  Name = ZINCrD000007531t.0
REMARK                            x       y       z     vdW  Elec       q    Type
REMARK                         _______ _______ _______ _____ _____    ______ ____
ROOT
ATOM      1  C   LIG    1       -0.014   1.210   0.009  0.00  0.00    +0.540 C 
ATOM      2  O   LIG    1        0.002  -0.004   0.002  0.00  0.00    -0.490 OA
ENDROOT
BRANCH   1   3
ATOM      3  C   LIG    1       -1.304   1.932   0.019  0.00  0.00    -0.010 A 
ATOM      4  C   LIG    1       -2.502   1.219   0.015  0.00  0.00    +0.360 A 
ATOM      5  N   LIG    1       -3.654   1.865   0.029  0.00  0.00    -0.500 NA
ATOM      6  C   LIG    1       -3.671   3.191   0.037  0.00  0.00    +0.310 A 
ATOM      7  C   LIG    1       -2.471   3.905   0.035  0.00  0.00    +0.240 A 
ATOM      8  N   LIG    1       -1.323   3.264   0.026  0.00  0.00    -0.350 NA
BRANCH   6   9
ATOM      9  O   LIG    1       -4.853   3.853   0.046  0.00  0.00    -0.280 OA
BRANCH   9  10
ATOM     10  C   LIG    1       -6.041   3.059   0.048  0.00  0.00    +0.180 C 
ATOM     11  C   LIG    1       -6.477   2.786  -1.395  0.00  0.00    -0.010 C 
ATOM     12  C   LIG    1       -7.793   2.004  -1.384  0.00  0.00    +0.230 C 
ATOM     13  O   LIG    1       -8.781   2.746  -0.665  0.00  0.00    -0.380 OA
ATOM     14  C   LIG    1       -8.448   2.989   0.703  0.00  0.00    +0.240 C 
ATOM     15  C   LIG    1       -7.160   3.812   0.775  0.00  0.00    +0.020 C 
ENDBRANCH   9  10
ENDBRANCH   6   9
ENDBRANCH   1   3
BRANCH   1  16
ATOM     16  O   LIG    1        1.143   1.900   0.001  0.00  0.00    -0.330 OA
BRANCH  16  17
ATOM     17  C   LIG    1        2.371   1.126  -0.015  0.00  0.00    +0.290 C 
BRANCH  17  24
ATOM     18  C   LIG    1        8.248   5.784  -1.820  0.00  0.00    +0.180 C 
ATOM     19  C   LIG    1        7.107   4.880  -1.428  0.00  0.00    +0.100 A 
ATOM     20  N   LIG    1        6.785   4.611  -0.220  0.00  0.00    -0.470 NA
ATOM     21  C   LIG    1        5.741   3.785  -0.016  0.00  0.00    +0.100 A 
ATOM     22  C   LIG    1        5.179   3.326   1.192  0.00  0.00    +0.070 A 
ATOM     23  C   LIG    1        4.109   2.483   1.178  0.00  0.00    +0.060 A 
ATOM     24  C   LIG    1        3.554   2.060  -0.021  0.00  0.00    -0.080 A 
ATOM     25  C   LIG    1        4.086   2.488  -1.216  0.00  0.00    +0.090 A 
ATOM     26  C   LIG    1        5.176   3.355  -1.222  0.00  0.00    -0.190 A 
ATOM     27  S   LIG    1        6.084   4.088  -2.541  0.00  0.00    +0.110 S 
ENDBRANCH  17  24
ENDBRANCH  16  17
ENDBRANCH   1  16
TORSDOF 6
