REMARK  Name = ZINCvU0000000HD7.0
REMARK                            x       y       z     vdW  Elec       q    Type
REMARK                         _______ _______ _______ _____ _____    ______ ____
ROOT
ATOM      1  N   LIG    1        9.817  -4.898   0.113  0.00  0.00    -0.640 N 
ATOM      2  H   LIG    1       10.255  -4.192   0.614  0.00  0.00    +0.410 HD
ATOM      3  C   LIG    1        8.613  -4.677  -0.450  0.00  0.00    +0.530 C 
ATOM      4  O   LIG    1        8.029  -5.582  -1.008  0.00  0.00    -0.500 OA
ENDROOT
BRANCH   1   8
ATOM      5  N   LIG    1       11.947  -7.713  -0.343  0.00  0.00    -0.320 N 
ATOM      6  N   LIG    1       10.713  -8.333  -0.112  0.00  0.00    -0.280 NA
ATOM      7  C   LIG    1        9.814  -7.403   0.083  0.00  0.00    +0.110 A 
ATOM      8  C   LIG    1       10.440  -6.152  -0.027  0.00  0.00    -0.000 A 
ATOM      9  C   LIG    1        8.353  -7.635   0.372  0.00  0.00    +0.170 C 
ATOM     10  C   LIG    1       11.755  -6.367  -0.286  0.00  0.00    +0.080 A 
ATOM     11  C   LIG    1       12.810  -5.308  -0.476  0.00  0.00    +0.150 C 
BRANCH   5  16
ATOM     12  C   LIG    1       16.874 -10.346  -1.343  0.00  0.00    +0.090 C 
ATOM     13  C   LIG    1       15.566  -9.647  -1.077  0.00  0.00    -0.080 A 
ATOM     14  C   LIG    1       15.527  -8.556  -0.228  0.00  0.00    +0.030 A 
ATOM     15  C   LIG    1       14.329  -7.914   0.018  0.00  0.00    +0.010 A 
ATOM     16  C   LIG    1       13.164  -8.363  -0.590  0.00  0.00    +0.150 A 
ATOM     17  C   LIG    1       13.206  -9.462  -1.438  0.00  0.00    +0.030 A 
ATOM     18  C   LIG    1       14.408 -10.097  -1.684  0.00  0.00    +0.030 A 
ENDBRANCH   5  16
ENDBRANCH   1   8
BRANCH   3  19
ATOM     19  C   LIG    1        7.990  -3.307  -0.384  0.00  0.00    +0.080 C 
BRANCH  19  20
ATOM     20  S   LIG    1        6.383  -3.332  -1.225  0.00  0.00    +0.120 S 
BRANCH  20  21
ATOM     21  C   LIG    1        5.817  -1.673  -1.049  0.00  0.00    +0.190 A 
ATOM     22  N   LIG    1        6.465  -0.707  -0.438  0.00  0.00    -0.310 NA
ATOM     23  N   LIG    1        5.667   0.445  -0.532  0.00  0.00    -0.470 N 
ATOM     24  H   LIG    1        5.874   1.325  -0.181  0.00  0.00    +0.440 HD
ATOM     25  C   LIG    1        4.553   0.083  -1.207  0.00  0.00    +0.330 A 
ATOM     26  N   LIG    1        4.661  -1.195  -1.513  0.00  0.00    -0.470 NA
BRANCH  25  27
ATOM     27  C   LIG    1        3.416   0.966  -1.546  0.00  0.00    -0.020 A 
ATOM     28  C   LIG    1        3.373   2.272  -1.058  0.00  0.00    +0.040 A 
ATOM     29  C   LIG    1        2.309   3.091  -1.378  0.00  0.00    +0.040 A 
ATOM     30  C   LIG    1        1.287   2.620  -2.183  0.00  0.00    +0.050 A 
ATOM     31  C   LIG    1        1.323   1.326  -2.671  0.00  0.00    +0.050 A 
ATOM     32  C   LIG    1        2.381   0.497  -2.358  0.00  0.00    -0.050 A 
ATOM     33 BR   LIG    1        2.429  -1.272  -3.027  0.00  0.00    +0.000 Br
ENDBRANCH  25  27
ENDBRANCH  20  21
ENDBRANCH  19  20
ENDBRANCH   3  19
TORSDOF 6
