REMARK  Name = ZINCvU0000000HD7.1
REMARK                            x       y       z     vdW  Elec       q    Type
REMARK                         _______ _______ _______ _____ _____    ______ ____
ROOT
ATOM      1  N   LIG    1        5.879   3.925   0.250  0.00  0.00    -0.630 N 
ATOM      2  H   LIG    1        5.548   4.823   0.408  0.00  0.00    +0.410 HD
ATOM      3  C   LIG    1        5.012   2.905   0.090  0.00  0.00    +0.530 C 
ATOM      4  O   LIG    1        5.421   1.805  -0.214  0.00  0.00    -0.500 OA
ENDROOT
BRANCH   1   8
ATOM      5  N   LIG    1        9.416   3.947  -0.145  0.00  0.00    -0.320 N 
ATOM      6  N   LIG    1        9.201   2.658   0.359  0.00  0.00    -0.280 NA
ATOM      7  C   LIG    1        7.918   2.504   0.564  0.00  0.00    +0.100 A 
ATOM      8  C   LIG    1        7.265   3.688   0.187  0.00  0.00    +0.000 A 
ATOM      9  C   LIG    1        7.254   1.265   1.107  0.00  0.00    +0.160 C 
ATOM     10  C   LIG    1        8.207   4.564  -0.243  0.00  0.00    +0.070 A 
ATOM     11  C   LIG    1        7.960   5.965  -0.740  0.00  0.00    +0.150 C 
BRANCH   5  16
ATOM     12  C   LIG    1       14.438   6.195  -1.537  0.00  0.00    +0.090 C 
ATOM     13  C   LIG    1       13.105   5.598  -1.167  0.00  0.00    -0.080 A 
ATOM     14  C   LIG    1       12.173   6.359  -0.486  0.00  0.00    +0.030 A 
ATOM     15  C   LIG    1       10.950   5.815  -0.146  0.00  0.00    +0.010 A 
ATOM     16  C   LIG    1       10.656   4.502  -0.489  0.00  0.00    +0.150 A 
ATOM     17  C   LIG    1       11.596   3.739  -1.169  0.00  0.00    +0.030 A 
ATOM     18  C   LIG    1       12.815   4.290  -1.510  0.00  0.00    +0.030 A 
ENDBRANCH   5  16
ENDBRANCH   1   8
BRANCH   3  19
ATOM     19  C   LIG    1        3.536   3.133   0.290  0.00  0.00    +0.120 C 
BRANCH  19  20
ATOM     20  S   LIG    1        2.643   1.585   0.006  0.00  0.00    +0.100 S 
BRANCH  20  21
ATOM     21  C   LIG    1        0.992   2.126   0.298  0.00  0.00    +0.250 A 
ATOM     22  N   LIG    1        0.625   3.345   0.627  0.00  0.00    -0.530 NA
ATOM     23  C   LIG    1       -0.707   3.392   0.770  0.00  0.00    +0.260 A 
ATOM     24  N   LIG    1       -1.203   2.200   0.525  0.00  0.00    -0.260 NA
ATOM     25  N   LIG    1       -0.120   1.360   0.223  0.00  0.00    -0.460 N 
ATOM     26  H   LIG    1       -0.161   0.417   0.000  0.00  0.00    +0.450 HD
BRANCH  23  27
ATOM     27  C   LIG    1       -1.494   4.595   1.137  0.00  0.00    +0.010 A 
ATOM     28  C   LIG    1       -0.849   5.807   1.371  0.00  0.00    +0.070 A 
ATOM     29  C   LIG    1       -1.586   6.925   1.707  0.00  0.00    +0.030 A 
ATOM     30  C   LIG    1       -2.962   6.841   1.823  0.00  0.00    +0.040 A 
ATOM     31  C   LIG    1       -3.608   5.638   1.597  0.00  0.00    +0.050 A 
ATOM     32  C   LIG    1       -2.881   4.515   1.254  0.00  0.00    -0.070 A 
ATOM     33 BR   LIG    1       -3.765   2.872   0.946  0.00  0.00    -0.010 Br
ENDBRANCH  23  27
ENDBRANCH  20  21
ENDBRANCH  19  20
ENDBRANCH   3  19
TORSDOF 6
