REMARK  Name = ZINCvU00000008zj.0
REMARK                            x       y       z     vdW  Elec       q    Type
REMARK                         _______ _______ _______ _____ _____    ______ ____
ROOT
ATOM      1  C   LIG    1        1.207  -0.389   0.082  0.00  0.00    +0.150 A 
ATOM      2  N   LIG    1        2.018   0.645   0.077  0.00  0.00    -0.290 NA
ATOM      3  N   LIG    1        1.344   1.734  -0.034  0.00  0.00    -0.250 NA
ATOM      4  C   LIG    1        0.061   1.462  -0.106  0.00  0.00    +0.220 A 
ATOM      5  N   LIG    1       -0.066   0.093  -0.034  0.00  0.00    -0.450 N 
ENDROOT
BRANCH   4   6
ATOM      6  C   LIG    1       -1.038   2.440  -0.245  0.00  0.00    -0.060 A 
ATOM      7  C   LIG    1       -2.026   2.251  -1.212  0.00  0.00    +0.060 A 
ATOM      8  C   LIG    1       -3.053   3.165  -1.332  0.00  0.00    +0.010 A 
ATOM      9  C   LIG    1       -3.099   4.273  -0.505  0.00  0.00    +0.070 A 
ATOM     10  C   LIG    1       -2.121   4.471   0.452  0.00  0.00    +0.000 A 
ATOM     11  C   LIG    1       -1.090   3.561   0.589  0.00  0.00    +0.140 A 
ATOM     12  F   LIG    1       -0.134   3.755   1.524  0.00  0.00    -0.120 F 
ENDBRANCH   4   6
BRANCH   5  13
ATOM     13  C   LIG    1       -1.307  -0.684  -0.074  0.00  0.00    +0.240 C 
ATOM     14  C   LIG    1       -1.445  -1.492   1.218  0.00  0.00    +0.010 C 
ATOM     15  C   LIG    1       -2.741  -2.303   1.176  0.00  0.00    +0.040 C 
ATOM     16  C   LIG    1       -2.707  -3.256  -0.020  0.00  0.00    +0.010 C 
ATOM     17  C   LIG    1       -2.569  -2.449  -1.312  0.00  0.00    +0.040 C 
ATOM     18  C   LIG    1       -1.273  -1.637  -1.270  0.00  0.00    +0.010 C 
ENDBRANCH   5  13
BRANCH   1  19
ATOM     19  S   LIG    1        1.675  -2.083   0.214  0.00  0.00    +0.090 S 
BRANCH  19  20
ATOM     20  C   LIG    1        3.472  -1.905   0.327  0.00  0.00    +0.100 C 
BRANCH  20  22
ATOM     21  O   LIG    1        3.410  -4.260   0.462  0.00  0.00    -0.520 OA
ATOM     22  C   LIG    1        4.105  -3.267   0.451  0.00  0.00    +0.540 C 
ATOM     23  N   LIG    1        5.445  -3.381   0.550  0.00  0.00    -0.720 N 
ATOM     24  H   LIG    1        6.001  -2.586   0.542  0.00  0.00    +0.410 HD
BRANCH  23  25
ATOM     25  C   LIG    1        6.060  -4.705   0.671  0.00  0.00    +0.320 C 
BRANCH  25  26
ATOM     26  C   LIG    1        7.557  -4.556   0.765  0.00  0.00    -0.130 A 
ATOM     27  C   LIG    1        8.325  -4.564  -0.384  0.00  0.00    +0.070 A 
ATOM     28  C   LIG    1        9.697  -4.423  -0.299  0.00  0.00    -0.020 A 
ATOM     29  C   LIG    1       10.303  -4.285   0.938  0.00  0.00    +0.110 A 
ATOM     30  C   LIG    1        9.533  -4.282   2.089  0.00  0.00    -0.020 A 
ATOM     31  F   LIG    1       11.645  -4.153   1.023  0.00  0.00    -0.140 F 
ATOM     32  C   LIG    1        8.161  -4.418   2.001  0.00  0.00    +0.070 A 
ENDBRANCH  25  26
ENDBRANCH  23  25
ENDBRANCH  20  22
ENDBRANCH  19  20
ENDBRANCH   1  19
TORSDOF 7
