REMARK  Name = ZINCvU00000008zJ.1
REMARK                            x       y       z     vdW  Elec       q    Type
REMARK                         _______ _______ _______ _____ _____    ______ ____
ROOT
ATOM      1  C   LIG    1        1.207   3.448  -0.034  0.00  0.00    +0.080 C 
ENDROOT
BRANCH   1   2
ATOM      2  C   LIG    1        1.047   1.952  -0.128  0.00  0.00    -0.100 A 
ATOM      3  C   LIG    1       -0.214   1.388  -0.086  0.00  0.00    +0.070 A 
ATOM      4  C   LIG    1       -0.361   0.016  -0.172  0.00  0.00    +0.010 A 
ATOM      5  C   LIG    1        0.754  -0.791  -0.301  0.00  0.00    +0.020 A 
ATOM      6  C   LIG    1        2.015  -0.227  -0.344  0.00  0.00    +0.010 A 
ATOM      7  C   LIG    1        2.162   1.145  -0.259  0.00  0.00    +0.040 A 
ENDBRANCH   1   2
BRANCH   1   9
ATOM      8  O   LIG    1        3.088   4.122  -1.291  0.00  0.00    -0.490 OA
ATOM      9  C   LIG    1        1.886   3.959  -1.279  0.00  0.00    +0.550 C 
ATOM     10  N   LIG    1        1.158   4.236  -2.378  0.00  0.00    -0.660 N 
ATOM     11  H   LIG    1        0.209   4.034  -2.395  0.00  0.00    +0.420 HD
BRANCH  10  12
ATOM     12  C   LIG    1        1.770   4.814  -3.496  0.00  0.00    +0.160 A 
ATOM     13  C   LIG    1        2.821   5.707  -3.330  0.00  0.00    +0.100 A 
ATOM     14  C   LIG    1        3.426   6.273  -4.435  0.00  0.00    +0.070 A 
ATOM     15  C   LIG    1        2.980   5.959  -5.707  0.00  0.00    +0.000 A 
ATOM     16  C   LIG    1        1.929   5.074  -5.875  0.00  0.00    -0.020 A 
ATOM     17 CL   LIG    1        3.739   6.677  -7.093  0.00  0.00    +0.000 Cl
ATOM     18  C   LIG    1        1.324   4.501  -4.774  0.00  0.00    +0.100 A 
BRANCH  16  19
ATOM     19  N   LIG    1        1.454   4.740  -7.237  0.00  0.00    +0.030 N 
ATOM     20  O   LIG    1        1.988   5.245  -8.208  0.00  0.00    -0.130 OA
ATOM     21  O   LIG    1        0.530   3.961  -7.386  0.00  0.00    -0.160 OA
ENDBRANCH  16  19
ENDBRANCH  10  12
ENDBRANCH   1   9
BRANCH   1  22
ATOM     22  S   LIG    1        2.214   3.857   1.413  0.00  0.00    +0.100 S 
BRANCH  22  23
ATOM     23  C   LIG    1        1.145   3.297   2.697  0.00  0.00    +0.250 A 
ATOM     24  N   LIG    1       -0.041   2.753   2.532  0.00  0.00    -0.520 NA
ATOM     25  C   LIG    1       -0.567   2.446   3.729  0.00  0.00    +0.310 A 
ATOM     26  N   LIG    1        0.281   2.803   4.669  0.00  0.00    -0.280 NA
ATOM     27  N   LIG    1        1.398   3.357   4.024  0.00  0.00    -0.460 N 
ATOM     28  H   LIG    1        2.195   3.714   4.446  0.00  0.00    +0.450 HD
BRANCH  25  29
ATOM     29  C   LIG    1       -1.885   1.816   3.953  0.00  0.00    -0.130 A 
ATOM     30  C   LIG    1       -2.407   1.511   5.157  0.00  0.00    +0.060 A 
ATOM     31  C   LIG    1       -3.658   0.931   5.114  0.00  0.00    +0.010 A 
ATOM     32  C   LIG    1       -4.156   0.751   3.887  0.00  0.00    -0.040 A 
ATOM     33  S   LIG    1       -3.012   1.341   2.689  0.00  0.00    +0.170 S 
ENDBRANCH  25  29
ENDBRANCH  22  23
ENDBRANCH   1  22
TORSDOF 7
