REMARK  Name = ZINCrH000004pjGl.0
REMARK                            x       y       z     vdW  Elec       q    Type
REMARK                         _______ _______ _______ _____ _____    ______ ____
ROOT
ATOM      1  N   LIG    1       -1.976  -2.158  -4.457  0.00  0.00    -0.740 N 
ATOM      2  H   LIG    1       -2.789  -2.686  -4.419  0.00  0.00    +0.400 HD
ATOM      3  C   LIG    1       -1.652  -1.345  -3.433  0.00  0.00    +0.730 C 
ATOM      4  N   LIG    1       -2.457  -1.264  -2.355  0.00  0.00    -0.620 N 
ATOM      5  C   LIG    1       -3.717  -2.006  -2.167  0.00  0.00    +0.260 C 
ATOM      6  C   LIG    1       -4.533  -1.155  -1.162  0.00  0.00    +0.040 C 
ATOM      7  C   LIG    1       -3.417  -0.636  -0.216  0.00  0.00    +0.060 C 
ATOM      8  C   LIG    1       -2.225  -0.421  -1.173  0.00  0.00    +0.340 C 
ATOM      9  O   LIG    1       -0.633  -0.683  -3.481  0.00  0.00    -0.580 OA
ENDROOT
BRANCH   8  10
ATOM     10  C   LIG    1       -0.944  -0.832  -0.495  0.00  0.00    +0.170 A 
ATOM     11  N   LIG    1       -0.538  -2.055  -0.277  0.00  0.00    -0.280 NA
ATOM     12  N   LIG    1        0.604  -2.034   0.318  0.00  0.00    -0.290 NA
ATOM     13  C   LIG    1        0.977  -0.799   0.502  0.00  0.00    +0.180 A 
ATOM     14  C   LIG    1        2.257  -0.320   1.135  0.00  0.00    +0.150 C 
ATOM     15  C   LIG    1        1.932   0.787   2.143  0.00  0.00    +0.020 C 
ATOM     16  C   LIG    1        1.924   2.138   1.433  0.00  0.00    +0.020 C 
ATOM     17  C   LIG    1        1.420   1.986  -0.001  0.00  0.00    +0.030 C 
ATOM     18  C   LIG    1       -0.018   1.459   0.010  0.00  0.00    +0.280 C 
ATOM     19  N   LIG    1        0.002  -0.004   0.002  0.00  0.00    -0.460 N 
ENDBRANCH   8  10
BRANCH   1  21
ATOM     20  C   LIG    1        0.008  -3.265  -5.362  0.00  0.00    +0.040 C 
ATOM     21  C   LIG    1       -1.101  -2.245  -5.629  0.00  0.00    +0.310 C 
BRANCH  21  22
ATOM     22  C   LIG    1       -1.906  -2.680  -6.826  0.00  0.00    -0.100 A 
ATOM     23  C   LIG    1       -2.876  -3.656  -6.689  0.00  0.00    +0.050 A 
ATOM     24  C   LIG    1       -3.619  -4.051  -7.785  0.00  0.00    -0.010 A 
ATOM     25  C   LIG    1       -3.384  -3.478  -9.023  0.00  0.00    +0.100 A 
ATOM     26  C   LIG    1       -2.408  -2.505  -9.161  0.00  0.00    -0.010 A 
ATOM     27  F   LIG    1       -4.105  -3.868 -10.097  0.00  0.00    -0.140 F 
ATOM     28  C   LIG    1       -1.670  -2.107  -8.062  0.00  0.00    +0.060 A 
ENDBRANCH  21  22
ENDBRANCH   1  21
TORSDOF 3
