REMARK  Name = ZINC450000002E48.0
REMARK                            x       y       z     vdW  Elec       q    Type
REMARK                         _______ _______ _______ _____ _____    ______ ____
ROOT
ATOM      1  C   LIG    1       -0.018   1.468   0.010  0.00  0.00    +0.360 C 
ENDROOT
BRANCH   1   2
ATOM      2  N   LIG    1        1.360   1.976  -0.000  0.00  0.00    -0.850 NA
ATOM      3  H   LIG    1        1.373   2.985   0.005  0.00  0.00    +0.360 HD
ATOM      4  H   LIG    1        1.874   1.612  -0.789  0.00  0.00    +0.350 HD
ENDBRANCH   1   2
BRANCH   1   6
ATOM      5  N   LIG    1        0.018  -1.140  -0.004  0.00  0.00    -0.420 NA
ATOM      6  C   LIG    1        0.002  -0.004   0.002  0.00  0.00    +0.200 C 
ENDBRANCH   1   6
TORSDOF 2
