REMARK  Name = ZINCpe000027pGY7.0
REMARK                            x       y       z     vdW  Elec       q    Type
REMARK                         _______ _______ _______ _____ _____    ______ ____
ROOT
ATOM      1  C   LIG    1       -1.115   3.256  -2.947  0.00  0.00    +0.250 C 
ENDROOT
BRANCH   1   3
ATOM      2  C   LIG    1        0.049   5.396  -2.967  0.00  0.00    +0.550 C 
ATOM      3  N   LIG    1       -0.301   4.270  -3.621  0.00  0.00    -0.720 N 
ATOM      4  H   LIG    1       -0.014   4.132  -4.537  0.00  0.00    +0.410 HD
ATOM      5  O   LIG    1       -0.311   5.569  -1.819  0.00  0.00    -0.510 OA
BRANCH   2   7
ATOM      6  C   LIG    1        1.212   7.526  -3.000  0.00  0.00    +0.140 C 
ATOM      7  C   LIG    1        0.866   6.415  -3.644  0.00  0.00    -0.100 C 
ENDBRANCH   2   7
ENDBRANCH   1   3
BRANCH   1   8
ATOM      8  C   LIG    1       -0.386   2.756  -1.726  0.00  0.00    +0.500 C 
ATOM      9  N   LIG    1       -0.721   1.571  -1.179  0.00  0.00    -0.620 N 
ATOM     10  C   LIG    1       -1.794   0.768  -1.771  0.00  0.00    +0.290 C 
ATOM     11  O   LIG    1        0.502   3.421  -1.236  0.00  0.00    -0.500 OA
BRANCH   9  12
ATOM     12  C   LIG    1       -0.013   1.086   0.008  0.00  0.00    +0.370 C 
BRANCH  12  13
ATOM     13  C   LIG    1       -0.718   1.572   1.248  0.00  0.00    +0.140 A 
ATOM     14  C   LIG    1       -1.298   0.678   2.082  0.00  0.00    -0.070 A 
ATOM     15  C   LIG    1       -1.955   1.123   3.238  0.00  0.00    +0.120 A 
ATOM     16  C   LIG    1       -2.001   2.459   3.506  0.00  0.00    -0.090 A 
ATOM     17  C   LIG    1       -1.389   3.360   2.618  0.00  0.00    +0.510 A 
ATOM     18  O   LIG    1       -1.422   4.559   2.846  0.00  0.00    -0.550 OA
ATOM     19  N   LIG    1       -0.760   2.901   1.519  0.00  0.00    -0.600 N 
ATOM     20  H   LIG    1       -0.336   3.528   0.912  0.00  0.00    +0.420 HD
ENDBRANCH  12  13
ENDBRANCH   9  12
ENDBRANCH   1   8
BRANCH   1  21
ATOM     21  C   LIG    1       -2.452   3.870  -2.527  0.00  0.00    +0.040 C 
BRANCH  21  22
ATOM     22  C   LIG    1       -3.246   4.264  -3.774  0.00  0.00    -0.010 C 
ATOM     23  C   LIG    1       -2.509   5.380  -4.520  0.00  0.00    +0.000 C 
ATOM     24  C   LIG    1       -3.350   5.823  -5.720  0.00  0.00    +0.200 C 
ATOM     25  O   LIG    1       -4.637   6.250  -5.269  0.00  0.00    -0.380 OA
ATOM     26  C   LIG    1       -5.390   5.233  -4.607  0.00  0.00    +0.200 C 
ATOM     27  C   LIG    1       -4.632   4.768  -3.361  0.00  0.00    -0.010 C 
ENDBRANCH  21  22
ENDBRANCH   1  21
TORSDOF 7
