REMARK  Name = ZINCqH0000034Rit.0
REMARK                            x       y       z     vdW  Elec       q    Type
REMARK                         _______ _______ _______ _____ _____    ______ ____
ROOT
ATOM      1  N   LIG    1        4.663  -0.026   0.843  0.00  0.00    -0.700 N 
ATOM      2  H   LIG    1        5.285   0.622   0.477  0.00  0.00    +0.410 HD
ATOM      3  C   LIG    1        4.674  -0.300   2.163  0.00  0.00    +0.610 C 
ATOM      4  O   LIG    1        3.893  -1.113   2.622  0.00  0.00    -0.520 OA
ENDROOT
BRANCH   3   5
ATOM      5  C   LIG    1        5.630   0.384   3.049  0.00  0.00    +0.020 A 
ATOM      6  C   LIG    1        5.684   0.147   4.379  0.00  0.00    -0.020 A 
ATOM      7  S   LIG    1        6.908   1.118   5.074  0.00  0.00    +0.240 S 
ATOM      8  C   LIG    1        7.285   1.803   3.497  0.00  0.00    +0.110 A 
ATOM      9  N   LIG    1        6.505   1.274   2.600  0.00  0.00    -0.430 NA
BRANCH   8  10
ATOM     10  C   LIG    1        8.325   2.810   3.233  0.00  0.00    +0.040 A 
ATOM     11  C   LIG    1        9.148   3.372   4.162  0.00  0.00    +0.000 A 
ATOM     12  C   LIG    1        9.980   4.275   3.473  0.00  0.00    -0.050 A 
ATOM     13  C   LIG    1        9.624   4.228   2.173  0.00  0.00    +0.010 A 
ATOM     14  C   LIG    1       10.245   5.035   1.063  0.00  0.00    +0.180 C 
ATOM     15  O   LIG    1        8.624   3.343   2.032  0.00  0.00    -0.150 OA
ENDBRANCH   8  10
ENDBRANCH   3   5
BRANCH   1  16
ATOM     16  C   LIG    1        3.711  -0.707  -0.038  0.00  0.00    +0.310 C 
BRANCH  16  17
ATOM     17  C   LIG    1        2.396   0.029  -0.022  0.00  0.00    -0.100 A 
ATOM     18  C   LIG    1        1.208  -0.679  -0.013  0.00  0.00    +0.020 A 
ATOM     19  C   LIG    1        0.002  -0.004   0.002  0.00  0.00    +0.000 A 
ATOM     20  C   LIG    1       -0.017   1.378   0.010  0.00  0.00    +0.010 A 
ATOM     21  C   LIG    1        1.171   2.086   0.002  0.00  0.00    +0.000 A 
ATOM     22  C   LIG    1        2.377   1.411  -0.015  0.00  0.00    +0.020 A 
ENDBRANCH  16  17
BRANCH  16  23
ATOM     23  C   LIG    1        4.264  -0.731  -1.464  0.00  0.00    +0.130 C 
BRANCH  23  24
ATOM     24  C   LIG    1        5.516  -1.570  -1.504  0.00  0.00    +0.460 C 
ATOM     25  O   LIG    1        5.923  -2.095  -0.495  0.00  0.00    -0.490 OA
BRANCH  24  27
ATOM     26  C   LIG    1        7.374  -2.555  -2.624  0.00  0.00    +0.260 C 
ATOM     27  O   LIG    1        6.177  -1.734  -2.660  0.00  0.00    -0.360 OA
ENDBRANCH  24  27
ENDBRANCH  23  24
ENDBRANCH  16  23
ENDBRANCH   1  16
TORSDOF 7
