REMARK  Name = ZINCrD00000F5Lpq.0
REMARK                            x       y       z     vdW  Elec       q    Type
REMARK                         _______ _______ _______ _____ _____    ______ ____
ROOT
ATOM      1  O   LIG    1        9.496   1.377  -0.079  0.00  0.00    -0.430 OA
ATOM      2  C   LIG    1        9.675   0.178  -0.086  0.00  0.00    +0.510 C 
ATOM      3  N   LIG    1       10.928  -0.317  -0.100  0.00  0.00    -0.630 N 
ATOM      4  H   LIG    1       11.071  -1.276  -0.106  0.00  0.00    +0.430 HD
ENDROOT
BRANCH   3   5
ATOM      5  C   LIG    1       12.013   0.546  -0.106  0.00  0.00    +0.360 A 
ATOM      6  N   LIG    1       11.930   1.831  -0.104  0.00  0.00    -0.480 NA
ATOM      7  C   LIG    1       13.078   2.537  -0.107  0.00  0.00    +0.160 A 
ATOM      8  C   LIG    1       13.254   3.937  -0.104  0.00  0.00    +0.100 A 
ATOM      9  C   LIG    1       14.514   4.479  -0.113  0.00  0.00    +0.120 A 
ATOM     10  C   LIG    1       15.635   3.661  -0.127  0.00  0.00    -0.040 A 
ATOM     11  C   LIG    1       15.487   2.292  -0.131  0.00  0.00    +0.180 A 
ATOM     12  C   LIG    1       14.216   1.724  -0.121  0.00  0.00    -0.200 A 
ATOM     13  S   LIG    1       13.697   0.040  -0.123  0.00  0.00    +0.120 S 
BRANCH  10  14
ATOM     14  N   LIG    1       16.988   4.260  -0.138  0.00  0.00    +0.030 N 
ATOM     15  O   LIG    1       17.118   5.471  -0.135  0.00  0.00    -0.150 OA
ATOM     16  O   LIG    1       17.972   3.542  -0.151  0.00  0.00    -0.160 OA
ENDBRANCH  10  14
ENDBRANCH   3   5
BRANCH   2  17
ATOM     17  C   LIG    1        8.495  -0.760  -0.080  0.00  0.00    +0.280 C 
BRANCH  17  18
ATOM     18  O   LIG    1        7.284  -0.002  -0.065  0.00  0.00    -0.330 OA
BRANCH  18  19
ATOM     19  C   LIG    1        6.127  -0.696  -0.058  0.00  0.00    +0.510 C 
ATOM     20  O   LIG    1        6.147  -1.912  -0.064  0.00  0.00    -0.510 OA
BRANCH  19  21
ATOM     21  C   LIG    1        4.848   0.014  -0.043  0.00  0.00    -0.050 C 
ATOM     22  C   LIG    1        3.691  -0.680  -0.035  0.00  0.00    +0.150 C 
BRANCH  22  23
ATOM     23  C   LIG    1        2.405   0.035  -0.020  0.00  0.00    -0.090 A 
ATOM     24  C   LIG    1        1.203  -0.681  -0.013  0.00  0.00    +0.040 A 
ATOM     25  C   LIG    1        0.002  -0.004   0.002  0.00  0.00    +0.010 A 
ATOM     26  C   LIG    1       -0.017   1.380   0.010  0.00  0.00    +0.030 A 
ATOM     27  C   LIG    1        1.168   2.095   0.002  0.00  0.00    +0.010 A 
ATOM     28  C   LIG    1        2.377   1.433  -0.013  0.00  0.00    +0.040 A 
ENDBRANCH  22  23
ENDBRANCH  19  21
ENDBRANCH  18  19
ENDBRANCH  17  18
ENDBRANCH   2  17
TORSDOF 7
