REMARK  Name = ZINCrD000000ALMk.0
REMARK                            x       y       z     vdW  Elec       q    Type
REMARK                         _______ _______ _______ _____ _____    ______ ____
ROOT
ATOM      1  O   LIG    1        0.932  -1.637  -3.021  0.00  0.00    -0.590 OA
ATOM      2  C   LIG    1        0.294  -1.336  -2.031  0.00  0.00    +0.710 C 
ATOM      3  N   LIG    1        0.803  -0.460  -1.142  0.00  0.00    -0.630 N 
ATOM      4  C   LIG    1       -0.000   0.001  -0.001  0.00  0.00    +0.260 C 
ATOM      5  C   LIG    1       -0.017   1.532   0.004  0.00  0.00    +0.010 C 
ATOM      6  C   LIG    1        1.421   2.055  -0.004  0.00  0.00    +0.040 C 
ATOM      7  C   LIG    1        2.127   1.586  -1.282  0.00  0.00    -0.070 C 
ATOM      8  C   LIG    1        3.550   2.135  -1.307  0.00  0.00    +0.080 C 
ATOM      9  C   LIG    1        3.814   3.030  -2.534  0.00  0.00    -0.300 C 
ATOM     10  S   LIG    1        2.133   3.630  -2.972  0.00  0.00    +2.370 S 
ATOM     11  O   LIG    1        2.040   3.820  -4.377  0.00  0.00    -0.940 OA
ATOM     12  O   LIG    1        1.745   4.668  -2.082  0.00  0.00    -0.930 OA
ATOM     13  C   LIG    1        1.301   2.061  -2.498  0.00  0.00    -0.290 C 
ATOM     14  C   LIG    1        2.171   0.052  -1.296  0.00  0.00    +0.320 C 
ATOM     15  N   LIG    1       -0.921  -1.879  -1.821  0.00  0.00    -0.740 N 
ATOM     16  H   LIG    1       -1.461  -1.585  -1.070  0.00  0.00    +0.390 HD
ENDROOT
BRANCH  15  17
ATOM     17  C   LIG    1       -1.428  -2.912  -2.728  0.00  0.00    +0.250 C 
ATOM     18  C   LIG    1       -2.094  -2.248  -3.935  0.00  0.00    +0.000 C 
ATOM     19  C   LIG    1       -2.624  -3.327  -4.882  0.00  0.00    +0.030 C 
ATOM     20  C   LIG    1       -3.648  -4.194  -4.146  0.00  0.00    +0.030 C 
ATOM     21  C   LIG    1       -2.982  -4.857  -2.939  0.00  0.00    +0.030 C 
ATOM     22  C   LIG    1       -2.453  -3.778  -1.992  0.00  0.00    +0.010 C 
BRANCH  20  23
ATOM     23  C   LIG    1       -4.170  -5.256  -5.079  0.00  0.00    -0.080 A 
ATOM     24  C   LIG    1       -3.298  -6.168  -5.644  0.00  0.00    +0.010 A 
ATOM     25  C   LIG    1       -3.777  -7.146  -6.496  0.00  0.00    +0.000 A 
ATOM     26  C   LIG    1       -5.127  -7.205  -6.790  0.00  0.00    +0.000 A 
ATOM     27  C   LIG    1       -5.997  -6.289  -6.230  0.00  0.00    +0.000 A 
ATOM     28  C   LIG    1       -5.519  -5.315  -5.374  0.00  0.00    +0.000 A 
ENDBRANCH  20  23
ENDBRANCH  15  17
TORSDOF 2
