REMARK  Name = ZINCvU0000000C14.0
REMARK                            x       y       z     vdW  Elec       q    Type
REMARK                         _______ _______ _______ _____ _____    ______ ____
ROOT
ATOM      1  C   LIG    1        3.645  -0.962   0.478  0.00  0.00    -0.150 A 
ATOM      2  C   LIG    1        4.822  -0.217   0.588  0.00  0.00    +0.050 A 
ATOM      3  C   LIG    1        6.043  -0.831   0.409  0.00  0.00    +0.020 A 
ATOM      4  C   LIG    1        6.110  -2.185   0.121  0.00  0.00    +0.060 A 
ATOM      5  C   LIG    1        4.957  -2.934   0.009  0.00  0.00    +0.010 A 
ATOM      6  C   LIG    1        3.717  -2.334   0.192  0.00  0.00    +0.210 A 
ENDROOT
BRANCH   1   9
ATOM      7  N   LIG    1        2.267   1.020   0.863  0.00  0.00    -0.670 N 
ATOM      8  H   LIG    1        3.071   1.560   0.814  0.00  0.00    +0.410 HD
ATOM      9  C   LIG    1        2.336  -0.311   0.667  0.00  0.00    +0.560 C 
ATOM     10  O   LIG    1        1.318  -0.977   0.647  0.00  0.00    -0.490 OA
BRANCH   7  18
ATOM     11  O   LIG    1       -4.661   1.662  -0.241  0.00  0.00    -0.510 OA
ATOM     12  C   LIG    1       -3.622   2.059   0.242  0.00  0.00    +0.490 C 
ATOM     13  C   LIG    1       -3.555   3.425   0.876  0.00  0.00    +0.300 C 
ATOM     14  O   LIG    1       -2.604   3.413   1.944  0.00  0.00    -0.300 OA
ATOM     15  C   LIG    1       -1.402   2.830   1.686  0.00  0.00    +0.060 A 
ATOM     16  C   LIG    1       -0.248   3.299   2.288  0.00  0.00    +0.060 A 
ATOM     17  C   LIG    1        0.968   2.702   2.011  0.00  0.00    +0.010 A 
ATOM     18  C   LIG    1        1.034   1.625   1.137  0.00  0.00    +0.160 A 
ATOM     19  C   LIG    1       -0.123   1.146   0.535  0.00  0.00    +0.030 A 
ATOM     20  C   LIG    1       -1.339   1.748   0.809  0.00  0.00    +0.110 A 
ATOM     21  N   LIG    1       -2.519   1.279   0.213  0.00  0.00    -0.660 N 
ATOM     22  H   LIG    1       -2.543   0.408  -0.214  0.00  0.00    +0.420 HD
ENDBRANCH   7  18
ENDBRANCH   1   9
BRANCH   6  23
ATOM     23  N   LIG    1        2.554  -3.088   0.086  0.00  0.00    -0.690 N 
ATOM     24  H   LIG    1        2.285  -3.669   0.814  0.00  0.00    +0.410 HD
BRANCH  23  25
ATOM     25  C   LIG    1        1.774  -3.008  -1.071  0.00  0.00    +0.240 A 
ATOM     26  C   LIG    1        2.225  -2.285  -2.167  0.00  0.00    -0.040 A 
ATOM     27  C   LIG    1        1.453  -2.212  -3.310  0.00  0.00    +0.060 A 
ATOM     28  C   LIG    1        0.227  -2.850  -3.359  0.00  0.00    +0.000 A 
ATOM     29  C   LIG    1       -0.228  -3.567  -2.268  0.00  0.00    -0.140 A 
ATOM     30  C   LIG    1        0.541  -3.648  -1.124  0.00  0.00    +0.000 A 
BRANCH  29  31
ATOM     31  C   LIG    1       -1.565  -4.260  -2.326  0.00  0.00    +0.510 C 
ATOM     32  F   LIG    1       -1.536  -5.398  -1.513  0.00  0.00    -0.180 F 
ATOM     33  F   LIG    1       -1.837  -4.637  -3.646  0.00  0.00    -0.180 F 
ATOM     34  F   LIG    1       -2.562  -3.389  -1.875  0.00  0.00    -0.180 F 
ENDBRANCH  29  31
ENDBRANCH  23  25
ENDBRANCH   6  23
TORSDOF 5
