REMARK  Name = ZINCvU0000000HsK.0
REMARK                            x       y       z     vdW  Elec       q    Type
REMARK                         _______ _______ _______ _____ _____    ______ ____
ROOT
ATOM      1  C   LIG    1        0.595  -0.084   2.568  0.00  0.00    +0.280 C 
ATOM      2  N   LIG    1       -0.418   0.964   2.427  0.00  0.00    -0.600 N 
ATOM      3  C   LIG    1       -0.901   1.274   1.207  0.00  0.00    +0.540 C 
ATOM      4  O   LIG    1       -1.740   2.142   1.090  0.00  0.00    -0.510 OA
ENDROOT
BRANCH   2   5
ATOM      5  C   LIG    1       -0.908   1.675   3.611  0.00  0.00    +0.340 C 
BRANCH   5   6
ATOM      6  C   LIG    1       -0.532   3.131   3.513  0.00  0.00    -0.080 A 
ATOM      7  C   LIG    1        0.739   3.491   3.106  0.00  0.00    +0.010 A 
ATOM      8  C   LIG    1        1.082   4.827   3.011  0.00  0.00    +0.000 A 
ATOM      9  C   LIG    1        0.157   5.803   3.334  0.00  0.00    +0.000 A 
ATOM     10  C   LIG    1       -1.112   5.442   3.747  0.00  0.00    +0.000 A 
ATOM     11  C   LIG    1       -1.457   4.107   3.836  0.00  0.00    +0.020 A 
ENDBRANCH   5   6
BRANCH   5  12
ATOM     12  C   LIG    1       -0.287   1.078   4.847  0.00  0.00    -0.100 A 
ATOM     13  C   LIG    1        1.089   1.010   4.966  0.00  0.00    +0.030 A 
ATOM     14  C   LIG    1        1.658   0.467   6.103  0.00  0.00    +0.010 A 
ATOM     15  C   LIG    1        0.852  -0.018   7.115  0.00  0.00    +0.010 A 
ATOM     16  C   LIG    1       -0.524   0.045   6.994  0.00  0.00    +0.010 A 
ATOM     17  C   LIG    1       -1.093   0.593   5.860  0.00  0.00    +0.020 A 
ENDBRANCH   5  12
ENDBRANCH   2   5
BRANCH   3  18
ATOM     18  C   LIG    1       -0.398   0.543  -0.011  0.00  0.00    +0.110 C 
BRANCH  18  19
ATOM     19  S   LIG    1       -1.231   1.182  -1.485  0.00  0.00    +0.090 S 
BRANCH  19  20
ATOM     20  C   LIG    1       -0.475   0.180  -2.722  0.00  0.00    +0.150 A 
ATOM     21  N   LIG    1        0.438  -0.744  -2.528  0.00  0.00    -0.290 NA
ATOM     22  N   LIG    1        0.764  -1.279  -3.650  0.00  0.00    -0.280 NA
ATOM     23  C   LIG    1        0.092  -0.729  -4.622  0.00  0.00    +0.400 A 
ATOM     24  N   LIG    1       -0.723   0.222  -4.067  0.00  0.00    -0.420 N 
BRANCH  24  25
ATOM     25  C   LIG    1       -1.623   1.063  -4.737  0.00  0.00    +0.120 A 
ATOM     26  C   LIG    1       -2.935   1.168  -4.297  0.00  0.00    +0.040 A 
ATOM     27  C   LIG    1       -3.819   2.001  -4.955  0.00  0.00    +0.070 A 
ATOM     28  C   LIG    1       -3.401   2.722  -6.058  0.00  0.00    +0.050 A 
ATOM     29  C   LIG    1       -2.095   2.614  -6.503  0.00  0.00    -0.020 A 
ATOM     30 CL   LIG    1       -1.573   3.521  -7.889  0.00  0.00    -0.050 Cl
ATOM     31  C   LIG    1       -1.205   1.787  -5.845  0.00  0.00    +0.040 A 
ENDBRANCH  24  25
ENDBRANCH  19  20
ENDBRANCH  18  19
ENDBRANCH   3  18
TORSDOF 7
