REMARK  Name = ZINCrg000000tWXI.0
REMARK                            x       y       z     vdW  Elec       q    Type
REMARK                         _______ _______ _______ _____ _____    ______ ____
ROOT
ATOM      1  N   LIG    1        0.050   5.187   0.097  0.00  0.00    -0.480 N 
ATOM      2  C   LIG    1       -0.608   5.762  -1.085  0.00  0.00    +0.220 C 
ATOM      3  C   LIG    1       -0.625   7.288  -0.963  0.00  0.00    +0.200 C 
ATOM      4  N   LIG    1        0.753   7.782  -0.838  0.00  0.00    -0.540 NA
ATOM      5  C   LIG    1        1.411   7.207   0.344  0.00  0.00    +0.210 C 
ATOM      6  C   LIG    1        1.428   5.681   0.222  0.00  0.00    +0.210 C 
ENDROOT
BRANCH   1  12
ATOM      7  C   LIG    1       -0.591   3.090   1.085  0.00  0.00    -0.110 A 
ATOM      8  C   LIG    1       -0.617   1.708   1.028  0.00  0.00    +0.180 A 
ATOM      9  C   LIG    1       -0.018   1.078  -0.054  0.00  0.00    -0.020 A 
ATOM     10  C   LIG    1        0.572   1.842  -1.040  0.00  0.00    +0.350 A 
ATOM     11  N   LIG    1        0.577   3.160  -0.963  0.00  0.00    -0.500 NA
ATOM     12  C   LIG    1        0.021   3.797   0.055  0.00  0.00    +0.380 A 
BRANCH   7  14
ATOM     13  O   LIG    1       -1.608   3.118   3.068  0.00  0.00    -0.220 OA
ATOM     14  N   LIG    1       -1.160   3.745   2.125  0.00  0.00    +0.070 N 
ATOM     15  O   LIG    1       -1.222   4.962   2.118  0.00  0.00    -0.120 OA
ENDBRANCH   7  14
ENDBRANCH   1  12
BRANCH   4  16
ATOM     16  C   LIG    1        0.783   9.251  -0.794  0.00  0.00    +0.190 C 
BRANCH  16  17
ATOM     17  C   LIG    1       -0.117   9.812  -1.896  0.00  0.00    +0.270 C 
BRANCH  17  18
ATOM     18  N   LIG    1       -0.087  11.276  -1.853  0.00  0.00    -1.120 NA
ATOM     19  H   LIG    1        0.267  11.731  -1.072  0.00  0.00    +0.420 HD
BRANCH  18  20
ATOM     20  S   LIG    1       -0.657  12.155  -3.135  0.00  0.00    +2.700 S 
ATOM     21  O   LIG    1       -0.064  11.596  -4.300  0.00  0.00    -0.950 OA
ATOM     22  O   LIG    1       -0.523  13.523  -2.776  0.00  0.00    -0.960 OA
BRANCH  20  23
ATOM     23  C   LIG    1       -2.386  11.839  -3.257  0.00  0.00    -0.680 A 
ATOM     24  C   LIG    1       -2.845  10.795  -4.038  0.00  0.00    +0.120 A 
ATOM     25  C   LIG    1       -4.201  10.544  -4.130  0.00  0.00    -0.010 A 
ATOM     26  C   LIG    1       -5.099  11.344  -3.447  0.00  0.00    +0.070 A 
ATOM     27  C   LIG    1       -4.641  12.390  -2.670  0.00  0.00    -0.010 A 
ATOM     28  C   LIG    1       -3.284  12.638  -2.574  0.00  0.00    +0.120 A 
ENDBRANCH  20  23
ENDBRANCH  18  20
ENDBRANCH  17  18
ENDBRANCH  16  17
ENDBRANCH   4  16
TORSDOF 7
