REMARK  Name = ZINCrD00000hQ4WG.0
REMARK                            x       y       z     vdW  Elec       q    Type
REMARK                         _______ _______ _______ _____ _____    ______ ____
ROOT
ATOM      1  C   LIG    1       -0.304   1.293   6.316  0.00  0.00    +0.520 C 
ATOM      2  N   LIG    1        0.287   0.889   7.458  0.00  0.00    -0.610 N 
ATOM      3  C   LIG    1        1.494   0.052   7.420  0.00  0.00    +0.280 C 
ATOM      4  C   LIG    1        1.261  -1.197   8.268  0.00  0.00    +0.030 C 
ATOM      5  C   LIG    1        0.828  -0.781   9.676  0.00  0.00    +0.080 C 
ATOM      6  C   LIG    1       -0.484   0.004   9.597  0.00  0.00    +0.020 C 
ATOM      7  C   LIG    1       -0.267   1.271   8.764  0.00  0.00    +0.280 C 
ATOM      8  O   LIG    1       -1.303   1.980   6.361  0.00  0.00    -0.530 OA
ENDROOT
BRANCH   5   9
ATOM      9  C   LIG    1        0.627  -2.011  10.524  0.00  0.00    +0.100 A 
ATOM     10  C   LIG    1        1.541  -2.565  11.354  0.00  0.00    -0.110 A 
ATOM     11  C   LIG    1        0.956  -3.688  11.949  0.00  0.00    +0.080 A 
ATOM     12  N   LIG    1       -0.265  -3.803  11.493  0.00  0.00    -0.270 NA
ATOM     13  N   LIG    1       -0.498  -2.753  10.595  0.00  0.00    -0.470 N 
ATOM     14  H   LIG    1       -1.321  -2.589  10.109  0.00  0.00    +0.440 HD
BRANCH  11  15
ATOM     15  C   LIG    1        1.617  -4.606  12.944  0.00  0.00    +0.250 C 
ATOM     16  C   LIG    1        0.758  -4.704  14.219  0.00  0.00    +0.010 C 
ATOM     17  C   LIG    1        0.440  -6.213  14.348  0.00  0.00    +0.010 C 
ATOM     18  C   LIG    1        1.561  -6.855  13.492  0.00  0.00    +0.200 C 
ATOM     19  O   LIG    1        1.718  -5.931  12.394  0.00  0.00    -0.370 OA
ENDBRANCH  11  15
ENDBRANCH   5   9
BRANCH   1  20
ATOM     20  C   LIG    1        0.277   0.893   4.984  0.00  0.00    +0.050 C 
BRANCH  20  21
ATOM     21  C   LIG    1       -0.578   1.479   3.859  0.00  0.00    +0.130 C 
BRANCH  21  22
ATOM     22  C   LIG    1        0.011   1.072   2.506  0.00  0.00    +0.040 C 
ATOM     23  N   LIG    1        1.454   0.835   2.413  0.00  0.00    -0.120 NA
ATOM     24  N   LIG    1        0.751  -0.189   2.414  0.00  0.00    -0.120 NA
BRANCH  22  25
ATOM     25  C   LIG    1       -0.729   1.579   1.267  0.00  0.00    +0.120 C 
BRANCH  25  26
ATOM     26  C   LIG    1       -0.013   1.086   0.008  0.00  0.00    +0.160 C 
BRANCH  26  28
ATOM     27  C   LIG    1       -1.292   1.962  -2.136  0.00  0.00    +0.030 C 
ATOM     28  C   LIG    1       -0.725   1.573  -1.185  0.00  0.00    -0.190 C 
ENDBRANCH  26  28
ENDBRANCH  25  26
ENDBRANCH  22  25
ENDBRANCH  21  22
ENDBRANCH  20  21
ENDBRANCH   1  20
TORSDOF 8
