REMARK  Name = ZINCrH000004qAl1.0
REMARK                            x       y       z     vdW  Elec       q    Type
REMARK                         _______ _______ _______ _____ _____    ______ ____
ROOT
ATOM      1  C   LIG    1       -0.697   9.258   3.639  0.00  0.00    +0.170 A 
ATOM      2  C   LIG    1        0.293  10.213   3.435  0.00  0.00    +0.020 A 
ATOM      3  C   LIG    1        1.388   9.923   2.644  0.00  0.00    +0.060 A 
ATOM      4  C   LIG    1        1.506   8.682   2.049  0.00  0.00    -0.010 A 
ATOM      5  C   LIG    1        0.516   7.716   2.247  0.00  0.00    -0.100 A 
ATOM      6 CL   LIG    1        2.884   8.322   1.056  0.00  0.00    -0.040 Cl
ATOM      7  C   LIG    1       -0.591   8.012   3.042  0.00  0.00    +0.070 A 
ENDROOT
BRANCH   5   8
ATOM      8  C   LIG    1        0.639   6.387   1.611  0.00  0.00    +0.580 C 
ATOM      9  N   LIG    1       -0.419   5.842   0.980  0.00  0.00    -0.610 N 
ATOM     10  C   LIG    1       -1.778   6.402   0.945  0.00  0.00    +0.240 C 
ATOM     11  C   LIG    1       -2.643   5.454   0.087  0.00  0.00    +0.040 C 
ATOM     12  C   LIG    1       -1.591   4.713  -0.780  0.00  0.00    -0.010 C 
ATOM     13  C   LIG    1       -0.407   4.584   0.210  0.00  0.00    +0.260 C 
ATOM     14  O   LIG    1        1.694   5.786   1.659  0.00  0.00    -0.510 OA
BRANCH  12  15
ATOM     15  C   LIG    1       -2.103   3.336  -1.205  0.00  0.00    +0.040 C 
BRANCH  15  16
ATOM     16  C   LIG    1       -1.095   2.689  -2.158  0.00  0.00    +0.020 C 
BRANCH  16  17
ATOM     17  C   LIG    1       -1.607   1.311  -2.583  0.00  0.00    +0.160 C 
BRANCH  17  18
ATOM     18  O   LIG    1       -0.665   0.707  -3.473  0.00  0.00    -0.580 OA
ATOM     19  H   LIG    1       -0.926  -0.171  -3.784  0.00  0.00    +0.380 HD
ENDBRANCH  17  18
ENDBRANCH  16  17
ENDBRANCH  15  16
ENDBRANCH  12  15
ENDBRANCH   5   8
BRANCH   1  20
ATOM     20  N   LIG    1       -1.802   9.558   4.441  0.00  0.00    -0.640 N 
ATOM     21  H   LIG    1       -2.151  10.463   4.468  0.00  0.00    +0.430 HD
BRANCH  20  27
ATOM     22  C   LIG    1       -1.746   5.024   5.995  0.00  0.00    +0.140 C 
ATOM     23  C   LIG    1       -2.386   6.389   5.953  0.00  0.00    +0.220 A 
ATOM     24  C   LIG    1       -3.550   6.639   6.661  0.00  0.00    -0.130 A 
ATOM     25  C   LIG    1       -4.106   7.908   6.596  0.00  0.00    +0.220 A 
ATOM     26  N   LIG    1       -3.511   8.835   5.864  0.00  0.00    -0.560 NA
ATOM     27  C   LIG    1       -2.398   8.563   5.199  0.00  0.00    +0.560 A 
ATOM     28  C   LIG    1       -5.372   8.226   7.349  0.00  0.00    +0.140 C 
ATOM     29  N   LIG    1       -1.845   7.359   5.236  0.00  0.00    -0.560 NA
ENDBRANCH  20  27
ENDBRANCH   1  20
TORSDOF 7
