REMARK  Name = ZINCrg000000sgv4.0
REMARK                            x       y       z     vdW  Elec       q    Type
REMARK                         _______ _______ _______ _____ _____    ______ ____
ROOT
ATOM      1  N   LIG    1        0.139  -6.668   5.121  0.00  0.00    -0.510 N 
ATOM      2  H   LIG    1        0.138  -6.083   5.894  0.00  0.00    +0.430 HD
ATOM      3  C   LIG    1        0.158  -8.006   5.288  0.00  0.00    +0.560 C 
ATOM      4  O   LIG    1        0.159  -8.739   4.319  0.00  0.00    -0.520 OA
ENDROOT
BRANCH   3   5
ATOM      5  C   LIG    1        0.178  -8.580   6.650  0.00  0.00    -0.070 A 
ATOM      6  C   LIG    1        0.183  -7.740   7.765  0.00  0.00    +0.030 A 
ATOM      7  C   LIG    1        0.197  -8.283   9.033  0.00  0.00    +0.130 A 
ATOM      8  C   LIG    1        0.216  -9.656   9.201  0.00  0.00    -0.650 A 
ATOM      9  C   LIG    1        0.217 -10.494   8.101  0.00  0.00    +0.130 A 
ATOM     10  C   LIG    1        0.198  -9.964   6.827  0.00  0.00    +0.080 A 
BRANCH   8  11
ATOM     11  S   LIG    1        0.240 -10.340  10.825  0.00  0.00    +2.690 S 
ATOM     12  O   LIG    1       -0.288 -11.655  10.714  0.00  0.00    -0.950 OA
ATOM     13  O   LIG    1       -0.309  -9.352  11.685  0.00  0.00    -0.950 OA
BRANCH  11  14
ATOM     14  N   LIG    1        1.828 -10.510  11.262  0.00  0.00    -1.000 NA
ATOM     15  C   LIG    1        2.542 -11.754  10.962  0.00  0.00    +0.310 C 
ATOM     16  C   LIG    1        2.520  -9.416  11.948  0.00  0.00    +0.300 C 
ENDBRANCH  11  14
ENDBRANCH   8  11
ENDBRANCH   3   5
BRANCH   1  18
ATOM     17  C   LIG    1        0.100  -4.787   3.663  0.00  0.00    +0.520 C 
ATOM     18  N   LIG    1        0.119  -6.124   3.830  0.00  0.00    -0.520 N 
ATOM     19  H   LIG    1        0.120  -6.710   3.057  0.00  0.00    +0.440 HD
ATOM     20  O   LIG    1        0.099  -4.055   4.630  0.00  0.00    -0.510 OA
BRANCH  17  21
ATOM     21  C   LIG    1        0.079  -4.202   2.274  0.00  0.00    +0.250 C 
BRANCH  21  22
ATOM     22  O   LIG    1        0.061  -2.775   2.359  0.00  0.00    -0.290 OA
BRANCH  22  28
ATOM     23  C   LIG    1       -0.018   1.503   0.010  0.00  0.00    +0.100 C 
ATOM     24  C   LIG    1        0.002  -0.004   0.002  0.00  0.00    -0.040 A 
ATOM     25  C   LIG    1       -0.006  -0.688  -1.199  0.00  0.00    -0.030 A 
ATOM     26  C   LIG    1        0.018  -2.071  -1.210  0.00  0.00    +0.060 A 
ATOM     27  C   LIG    1        0.039  -2.772  -0.020  0.00  0.00    -0.090 A 
ATOM     28  C   LIG    1        0.041  -2.088   1.187  0.00  0.00    +0.130 A 
ATOM     29  C   LIG    1        0.023  -0.701   1.195  0.00  0.00    -0.020 A 
ENDBRANCH  22  28
ENDBRANCH  21  22
ENDBRANCH  17  21
ENDBRANCH   1  18
TORSDOF 7
