REMARK  Name = ZINCrH00000tj0Ve.0
REMARK                            x       y       z     vdW  Elec       q    Type
REMARK                         _______ _______ _______ _____ _____    ______ ____
ROOT
ATOM      1  O   LIG    1       -2.524  -0.214   0.311  0.00  0.00    -0.330 OA
ENDROOT
BRANCH   1   3
ATOM      2  C   LIG    1       -3.878  -1.074  -1.520  0.00  0.00    +0.070 C 
ATOM      3  C   LIG    1       -3.723  -0.970  -0.002  0.00  0.00    +0.190 C 
BRANCH   3   4
ATOM      4  C   LIG    1       -3.615  -2.352   0.589  0.00  0.00    +0.530 C 
ATOM      5  N   LIG    1       -4.697  -3.153   0.632  0.00  0.00    -0.550 N 
ATOM      6  C   LIG    1       -6.002  -2.835   0.045  0.00  0.00    +0.270 C 
ATOM      7  C   LIG    1       -6.891  -4.050   0.356  0.00  0.00    +0.090 C 
ATOM      8  C   LIG    1       -5.992  -4.995   1.121  0.00  0.00    -0.140 A 
ATOM      9  C   LIG    1       -6.237  -6.242   1.660  0.00  0.00    +0.050 A 
ATOM     10  C   LIG    1       -5.229  -6.928   2.313  0.00  0.00    -0.010 A 
ATOM     11  C   LIG    1       -3.977  -6.355   2.438  0.00  0.00    +0.040 A 
ATOM     12  C   LIG    1       -3.729  -5.107   1.906  0.00  0.00    +0.010 A 
ATOM     13  C   LIG    1       -4.739  -4.413   1.237  0.00  0.00    +0.140 A 
ATOM     14  O   LIG    1       -2.553  -2.743   1.025  0.00  0.00    -0.490 OA
ENDBRANCH   3   4
ENDBRANCH   1   3
BRANCH   1  15
ATOM     15  C   LIG    1       -2.657   1.121   0.438  0.00  0.00    +0.510 C 
ATOM     16  O   LIG    1       -3.746   1.639   0.292  0.00  0.00    -0.490 OA
BRANCH  15  17
ATOM     17  C   LIG    1       -1.482   1.952   0.756  0.00  0.00    -0.150 A 
ATOM     18  C   LIG    1       -0.231   1.358   0.924  0.00  0.00    +0.120 A 
ATOM     19  C   LIG    1        0.871   2.134   1.215  0.00  0.00    -0.020 A 
ATOM     20  C   LIG    1        0.736   3.508   1.343  0.00  0.00    +0.100 A 
ATOM     21  C   LIG    1       -0.494   4.104   1.180  0.00  0.00    -0.190 A 
ATOM     22  C   LIG    1       -0.938   5.553   1.240  0.00  0.00    +0.020 C 
ATOM     23  C   LIG    1        0.015   6.450   0.447  0.00  0.00    +0.060 C 
ATOM     24  C   LIG    1       -2.328   5.489   0.564  0.00  0.00    +0.160 C 
ATOM     25  C   LIG    1       -3.303   6.458   1.235  0.00  0.00    +0.070 C 
ATOM     26  O   LIG    1       -2.728   4.126   0.789  0.00  0.00    -0.280 OA
ATOM     27  C   LIG    1       -1.621   3.346   0.894  0.00  0.00    +0.180 A 
ENDBRANCH  15  17
ENDBRANCH   1  15
TORSDOF 4
