REMARK  Name = ZINCrD000000fCnU.2
REMARK                            x       y       z     vdW  Elec       q    Type
REMARK                         _______ _______ _______ _____ _____    ______ ____
ROOT
ATOM      1  N   LIG    1        3.584   2.163   0.003  0.00  0.00    -0.670 N 
ATOM      2  H   LIG    1        4.433   1.696   0.038  0.00  0.00    +0.410 HD
ATOM      3  C   LIG    1        3.556   3.507  -0.090  0.00  0.00    +0.520 C 
ATOM      4  O   LIG    1        2.496   4.096  -0.054  0.00  0.00    -0.500 OA
ENDROOT
BRANCH   1  12
ATOM      5  C   LIG    1       -0.684  -2.602  -0.948  0.00  0.00    +0.120 C 
ATOM      6  C   LIG    1       -1.658  -1.749  -0.175  0.00  0.00    +0.520 C 
ATOM      7  N   LIG    1       -1.272  -0.550   0.302  0.00  0.00    -0.550 N 
ATOM      8  C   LIG    1       -2.125   0.365   1.066  0.00  0.00    +0.270 C 
ATOM      9  C   LIG    1       -1.237   1.580   1.378  0.00  0.00    +0.100 C 
ATOM     10  C   LIG    1        0.097   1.250   0.746  0.00  0.00    -0.110 A 
ATOM     11  C   LIG    1        1.278   1.964   0.701  0.00  0.00    +0.070 A 
ATOM     12  C   LIG    1        2.385   1.439   0.049  0.00  0.00    +0.120 A 
ATOM     13  C   LIG    1        2.299   0.193  -0.558  0.00  0.00    +0.020 A 
ATOM     14  C   LIG    1        1.120  -0.519  -0.512  0.00  0.00    +0.000 A 
ATOM     15  C   LIG    1        0.004   0.005   0.143  0.00  0.00    +0.130 A 
ATOM     16  O   LIG    1       -2.789  -2.143   0.016  0.00  0.00    -0.520 OA
ENDBRANCH   1  12
BRANCH   3  17
ATOM     17  C   LIG    1        4.842   4.278  -0.238  0.00  0.00    +0.210 C 
BRANCH  17  18
ATOM     18  N   LIG    1        4.556   5.719  -0.204  0.00  0.00    -0.490 NA
ATOM     19  C   LIG    1        3.762   6.129  -1.382  0.00  0.00    +0.180 C 
ATOM     20  C   LIG    1        4.213   7.553  -1.758  0.00  0.00    +0.020 C 
ATOM     21  C   LIG    1        5.326   7.904  -0.744  0.00  0.00    +0.050 C 
ATOM     22  C   LIG    1        5.810   6.512  -0.264  0.00  0.00    +0.160 C 
BRANCH  22  23
ATOM     23  C   LIG    1        6.444   6.611   1.099  0.00  0.00    -0.080 A 
ATOM     24  C   LIG    1        5.653   6.802   2.217  0.00  0.00    +0.040 A 
ATOM     25  C   LIG    1        6.234   6.888   3.468  0.00  0.00    +0.000 A 
ATOM     26  C   LIG    1        7.606   6.791   3.601  0.00  0.00    +0.000 A 
ATOM     27  C   LIG    1        8.397   6.604   2.483  0.00  0.00    +0.000 A 
ATOM     28  C   LIG    1        7.816   6.514   1.232  0.00  0.00    +0.000 A 
ENDBRANCH  22  23
ENDBRANCH  17  18
ENDBRANCH   3  17
TORSDOF 4
