REMARK  Name = ZINCvU0000000ATR.0
REMARK                            x       y       z     vdW  Elec       q    Type
REMARK                         _______ _______ _______ _____ _____    ______ ____
ROOT
ATOM      1  C   LIG    1       -2.877  -0.666   3.405  0.00  0.00    -0.310 A 
ATOM      2  C   LIG    1       -3.760   0.055   4.155  0.00  0.00    +0.170 A 
ATOM      3  C   LIG    1       -4.000  -0.492   5.401  0.00  0.00    -0.130 A 
ATOM      4  C   LIG    1       -3.300  -1.646   5.653  0.00  0.00    -0.000 A 
ATOM      5  S   LIG    1       -2.330  -2.066   4.314  0.00  0.00    +0.220 S 
ENDROOT
BRANCH   4   6
ATOM      6  N   LIG    1       -3.372  -2.367   6.830  0.00  0.00    -0.440 N 
ATOM      7  C   LIG    1       -3.036  -1.524   7.986  0.00  0.00    +0.180 C 
ATOM      8  C   LIG    1       -3.186  -2.344   9.270  0.00  0.00    +0.230 C 
ATOM      9  O   LIG    1       -2.354  -3.505   9.187  0.00  0.00    -0.380 OA
ATOM     10  C   LIG    1       -2.654  -4.350   8.072  0.00  0.00    +0.250 C 
ATOM     11  C   LIG    1       -2.500  -3.549   6.777  0.00  0.00    +0.160 C 
ENDBRANCH   4   6
BRANCH   3  12
ATOM     12  C   LIG    1       -4.927   0.118   6.384  0.00  0.00    -0.020 A 
ATOM     13  C   LIG    1       -5.908  -0.661   6.997  0.00  0.00    +0.040 A 
ATOM     14  C   LIG    1       -6.765  -0.088   7.914  0.00  0.00    +0.000 A 
ATOM     15  C   LIG    1       -6.660   1.257   8.218  0.00  0.00    +0.000 A 
ATOM     16  C   LIG    1       -5.692   2.036   7.609  0.00  0.00    +0.000 A 
ATOM     17  C   LIG    1       -4.826   1.473   6.694  0.00  0.00    +0.010 A 
ENDBRANCH   3  12
BRANCH   1  20
ATOM     18  C   LIG    1       -1.350  -2.497   1.957  0.00  0.00    +0.310 C 
ATOM     19  N   LIG    1       -1.722  -1.204   1.377  0.00  0.00    -0.610 N 
ATOM     20  C   LIG    1       -2.459  -0.332   2.092  0.00  0.00    +0.600 C 
ATOM     21  O   LIG    1       -2.766   0.744   1.610  0.00  0.00    -0.520 OA
BRANCH  19  22
ATOM     22  C   LIG    1       -1.291  -0.860   0.020  0.00  0.00    +0.410 C 
BRANCH  22  23
ATOM     23  C   LIG    1        0.045  -0.166   0.077  0.00  0.00    +0.060 A 
ATOM     24  N   LIG    1        1.172  -0.768   0.022  0.00  0.00    -0.460 NA
ATOM     25  C   LIG    1        2.290  -0.020   0.085  0.00  0.00    +0.080 A 
ATOM     26  C   LIG    1        3.642  -0.416   0.047  0.00  0.00    +0.070 A 
ATOM     27  C   LIG    1        4.635   0.513   0.125  0.00  0.00    +0.030 A 
ATOM     28  C   LIG    1        4.337   1.863   0.243  0.00  0.00    +0.040 A 
ATOM     29  C   LIG    1        3.025   2.279   0.283  0.00  0.00    +0.060 A 
ATOM     30  C   LIG    1        1.996   1.343   0.204  0.00  0.00    -0.190 A 
ATOM     31  S   LIG    1        0.245   1.523   0.224  0.00  0.00    +0.140 S 
ENDBRANCH  22  23
ENDBRANCH  19  22
ENDBRANCH   1  20
TORSDOF 5
