REMARK  Name = ZINCqH00000393DO.0
REMARK                            x       y       z     vdW  Elec       q    Type
REMARK                         _______ _______ _______ _____ _____    ______ ____
ROOT
ATOM      1  N   LIG    1       -3.260   1.421   2.767  0.00  0.00    -0.520 NA
ENDROOT
BRANCH   1   2
ATOM      2  C   LIG    1       -2.817   0.588   1.641  0.00  0.00    +0.170 C 
ATOM      3  C   LIG    1       -3.813   0.720   0.487  0.00  0.00    +0.040 C 
ATOM      4  C   LIG    1       -3.352  -0.147  -0.686  0.00  0.00    -0.010 C 
ATOM      5  C   LIG    1       -1.969   0.316  -1.150  0.00  0.00    +0.160 C 
ATOM      6  C   LIG    1       -0.974   0.184   0.004  0.00  0.00    +0.030 C 
ATOM      7  C   LIG    1       -1.435   1.051   1.177  0.00  0.00    +0.000 C 
BRANCH   5   8
ATOM      8  O   LIG    1       -1.539  -0.494  -2.246  0.00  0.00    -0.570 OA
ATOM      9  H   LIG    1       -2.124  -0.460  -3.015  0.00  0.00    +0.380 HD
ENDBRANCH   5   8
ENDBRANCH   1   2
BRANCH   1  10
ATOM     10  C   LIG    1       -2.743   0.902   4.040  0.00  0.00    +0.230 C 
BRANCH  10  17
ATOM     11  C   LIG    1       -4.815   1.084   5.457  0.00  0.00    -0.040 A 
ATOM     12  C   LIG    1       -5.523   1.657   6.519  0.00  0.00    +0.140 A 
ATOM     13  C   LIG    1       -4.930   2.642   7.287  0.00  0.00    +0.000 A 
ATOM     14  C   LIG    1       -3.643   3.060   7.007  0.00  0.00    +0.080 A 
ATOM     15  C   LIG    1       -2.936   2.493   5.960  0.00  0.00    +0.010 A 
ATOM     16  F   LIG    1       -6.781   1.249   6.793  0.00  0.00    -0.130 F 
ATOM     17  C   LIG    1       -3.514   1.513   5.182  0.00  0.00    -0.010 A 
BRANCH  11  19
ATOM     18  N   LIG    1       -5.901  -0.748   4.021  0.00  0.00    -0.390 NA
ATOM     19  C   LIG    1       -5.420   0.062   4.657  0.00  0.00    +0.250 C 
ENDBRANCH  11  19
ENDBRANCH  10  17
ENDBRANCH   1  10
BRANCH   1  20
ATOM     20  C   LIG    1       -2.867   2.823   2.572  0.00  0.00    +0.230 C 
BRANCH  20  21
ATOM     21  C   LIG    1       -3.789   3.468   1.570  0.00  0.00    -0.060 A 
ATOM     22  C   LIG    1       -5.049   3.883   1.959  0.00  0.00    +0.020 A 
ATOM     23  C   LIG    1       -5.898   4.476   1.042  0.00  0.00    +0.030 A 
ATOM     24  C   LIG    1       -5.488   4.656  -0.265  0.00  0.00    -0.010 A 
ATOM     25  C   LIG    1       -4.224   4.240  -0.657  0.00  0.00    +0.100 A 
ATOM     26  C   LIG    1       -3.373   3.650   0.266  0.00  0.00    -0.010 A 
BRANCH  25  27
ATOM     27  O   LIG    1       -3.819   4.415  -1.942  0.00  0.00    -0.500 OA
ATOM     28  H   LIG    1       -3.375   5.259  -2.103  0.00  0.00    +0.390 HD
ENDBRANCH  25  27
ENDBRANCH  20  21
ENDBRANCH   1  20
TORSDOF 8
