REMARK  Name = ZINCah0000002tmb.0
REMARK                            x       y       z     vdW  Elec       q    Type
REMARK                         _______ _______ _______ _____ _____    ______ ____
ROOT
ATOM      1  C   LIG    1        0.002  -0.004   0.002  0.00  0.00    +0.150 C 
ATOM      2  C   LIG    1       -0.473  -0.619  -1.325  0.00  0.00    -0.020 C 
ATOM      3  C   LIG    1       -1.894  -0.589  -0.740  0.00  0.00    +0.180 C 
ATOM      4  C   LIG    1       -1.239  -0.640   0.650  0.00  0.00    -0.070 C 
ATOM      5  C   LIG    1       -1.920   0.259   1.683  0.00  0.00    +0.050 C 
ATOM      6  C   LIG    1       -1.001  -2.062   1.163  0.00  0.00    +0.070 C 
ENDROOT
BRANCH   3   7
ATOM      7  O   LIG    1       -2.668  -1.749  -1.054  0.00  0.00    -0.560 OA
ATOM      8  H   LIG    1       -3.045  -1.741  -1.944  0.00  0.00    +0.380 HD
ENDBRANCH   3   7
BRANCH   1   9
ATOM      9  O   LIG    1       -0.017   1.425   0.010  0.00  0.00    -0.360 OA
BRANCH   9  11
ATOM     10  C   LIG    1        1.139   3.547   0.010  0.00  0.00    +0.040 C 
ATOM     11  C   LIG    1        1.280   2.024   0.001  0.00  0.00    +0.160 C 
ENDBRANCH   9  11
ENDBRANCH   1   9
TORSDOF 3
