REMARK  Name = ZINCrD000000AfHW.0
REMARK                            x       y       z     vdW  Elec       q    Type
REMARK                         _______ _______ _______ _____ _____    ______ ____
ROOT
ATOM      1  O   LIG    1       -3.598   2.072   0.711  0.00  0.00    -0.510 OA
ATOM      2  C   LIG    1       -3.596   3.227   0.341  0.00  0.00    +0.520 C 
ATOM      3  N   LIG    1       -2.433   3.832   0.027  0.00  0.00    -0.670 N 
ATOM      4  H   LIG    1       -2.422   4.776  -0.196  0.00  0.00    +0.410 HD
ENDROOT
BRANCH   3   5
ATOM      5  C   LIG    1       -1.240   3.097   0.024  0.00  0.00    +0.130 A 
ATOM      6  C   LIG    1       -0.048   3.707   0.392  0.00  0.00    +0.000 A 
ATOM      7  C   LIG    1        1.128   2.985   0.383  0.00  0.00    +0.040 A 
ATOM      8  C   LIG    1        1.118   1.645   0.016  0.00  0.00    +0.130 A 
ATOM      9  C   LIG    1       -0.075   1.034  -0.347  0.00  0.00    +0.010 A 
ATOM     10  C   LIG    1       -1.250   1.758  -0.343  0.00  0.00    +0.040 A 
BRANCH   8  11
ATOM     11  N   LIG    1        2.310   0.912   0.012  0.00  0.00    -0.660 N 
ATOM     12  H   LIG    1        2.461   0.236  -0.667  0.00  0.00    +0.420 HD
ATOM     13  C   LIG    1        3.248   1.144   0.952  0.00  0.00    +0.610 C 
ATOM     14  O   LIG    1        3.096   2.048   1.753  0.00  0.00    -0.500 OA
BRANCH  13  15
ATOM     15  C   LIG    1        4.451   0.308   1.010  0.00  0.00    -0.090 A 
ATOM     16  C   LIG    1        5.473   0.434   1.906  0.00  0.00    +0.050 A 
ATOM     17  C   LIG    1        6.407  -0.567   1.596  0.00  0.00    -0.070 A 
ATOM     18  C   LIG    1        5.920  -1.251   0.537  0.00  0.00    +0.210 A 
ATOM     19  O   LIG    1        4.739  -0.725   0.191  0.00  0.00    -0.170 OA
ENDBRANCH  13  15
ENDBRANCH   8  11
ENDBRANCH   3   5
BRANCH   2  20
ATOM     20  C   LIG    1       -4.893   3.986   0.232  0.00  0.00    +0.070 C 
BRANCH  20  21
ATOM     21  C   LIG    1       -6.052   3.076   0.643  0.00  0.00    +0.290 C 
BRANCH  21  22
ATOM     22  N   LIG    1       -7.314   3.813   0.537  0.00  0.00    -0.730 N 
ATOM     23  H   LIG    1       -7.312   4.737   0.241  0.00  0.00    +0.400 HD
ATOM     24  C   LIG    1       -8.476   3.208   0.850  0.00  0.00    +0.580 C 
ATOM     25  O   LIG    1       -8.479   2.050   1.222  0.00  0.00    -0.530 OA
BRANCH  24  26
ATOM     26  C   LIG    1       -9.744   3.950   0.744  0.00  0.00    -0.150 A 
ATOM     27  C   LIG    1       -9.823   5.245   0.337  0.00  0.00    -0.050 A 
ATOM     28  S   LIG    1      -11.441   5.780   0.332  0.00  0.00    +0.190 S 
ATOM     29  C   LIG    1      -12.036   4.227   0.891  0.00  0.00    -0.060 A 
ATOM     30  C   LIG    1      -11.031   3.374   1.055  0.00  0.00    +0.070 A 
ENDBRANCH  24  26
ENDBRANCH  21  22
ENDBRANCH  20  21
ENDBRANCH   2  20
TORSDOF 7
