REMARK  Name = ZINCrg000000twla.0
REMARK                            x       y       z     vdW  Elec       q    Type
REMARK                         _______ _______ _______ _____ _____    ______ ____
ROOT
ATOM      1  O   LIG    1        5.127  10.053  -0.707  0.00  0.00    -0.580 OA
ATOM      2  C   LIG    1        4.764   9.345  -1.627  0.00  0.00    +0.710 C 
ATOM      3  N   LIG    1        5.083   9.672  -2.895  0.00  0.00    -0.630 N 
ATOM      4  C   LIG    1        5.955  10.821  -3.181  0.00  0.00    +0.330 C 
ATOM      5  C   LIG    1        7.082  10.351  -4.115  0.00  0.00    +0.210 C 
ATOM      6  N   LIG    1        6.493   9.708  -5.298  0.00  0.00    -0.460 N 
ATOM      7  C   LIG    1        5.740   8.502  -4.930  0.00  0.00    +0.220 C 
ATOM      8  C   LIG    1        4.564   8.893  -4.029  0.00  0.00    +0.280 C 
ATOM      9  N   LIG    1        4.043   8.234  -1.379  0.00  0.00    -0.740 N 
ATOM     10  H   LIG    1        3.690   7.710  -2.115  0.00  0.00    +0.400 HD
ENDROOT
BRANCH   6  11
ATOM     11  C   LIG    1        7.465   9.418  -6.240  0.00  0.00    +0.490 A 
ATOM     12  N   LIG    1        7.599   8.172  -6.668  0.00  0.00    -0.550 NA
ATOM     13  C   LIG    1        8.514   7.862  -7.572  0.00  0.00    +0.340 A 
ATOM     14  C   LIG    1        9.345   8.858  -8.062  0.00  0.00    -0.110 A 
ATOM     15  C   LIG    1        9.181  10.150  -7.589  0.00  0.00    +0.350 A 
ATOM     16  N   LIG    1        8.242  10.393  -6.689  0.00  0.00    -0.530 NA
ENDBRANCH   6  11
BRANCH   9  17
ATOM     17  C   LIG    1        3.790   7.818   0.003  0.00  0.00    +0.350 C 
BRANCH  17  18
ATOM     18  C   LIG    1        2.966   6.556   0.005  0.00  0.00    -0.180 A 
ATOM     19  C   LIG    1        3.586   5.314  -0.008  0.00  0.00    +0.120 A 
ATOM     20  C   LIG    1        2.792   4.180  -0.005  0.00  0.00    -0.020 A 
ATOM     21  C   LIG    1        1.410   4.323   0.011  0.00  0.00    +0.380 A 
ATOM     22  N   LIG    1        0.857   5.525   0.017  0.00  0.00    -0.510 NA
ATOM     23  C   LIG    1        1.587   6.623   0.020  0.00  0.00    +0.330 A 
BRANCH  21  24
ATOM     24  N   LIG    1        0.597   3.186   0.013  0.00  0.00    -0.330 N 
ATOM     25  C   LIG    1       -0.761   3.173   0.027  0.00  0.00    +0.260 A 
ATOM     26  C   LIG    1       -1.159   1.880   0.018  0.00  0.00    -0.100 A 
ATOM     27  C   LIG    1       -0.013   1.076   0.007  0.00  0.00    +0.270 A 
ATOM     28  N   LIG    1        1.037   1.856   0.001  0.00  0.00    -0.290 NA
ENDBRANCH  21  24
ENDBRANCH  17  18
ENDBRANCH   9  17
TORSDOF 4
