REMARK  Name = ZINCtV00000L6kgE.0
REMARK                            x       y       z     vdW  Elec       q    Type
REMARK                         _______ _______ _______ _____ _____    ______ ____
ROOT
ATOM      1  C   LIG    1        2.412   1.358  -0.044  0.00  0.00    +0.070 A 
ATOM      2  C   LIG    1        1.219   2.045   0.126  0.00  0.00    +0.050 A 
ATOM      3  C   LIG    1        0.022   1.357   0.144  0.00  0.00    +0.060 A 
ATOM      4  C   LIG    1        0.013  -0.022  -0.008  0.00  0.00    +0.110 A 
ATOM      5  C   LIG    1        1.206  -0.710  -0.178  0.00  0.00    +0.040 A 
ATOM      6  C   LIG    1        2.403  -0.021  -0.195  0.00  0.00    +0.080 A 
ENDROOT
BRANCH   1   7
ATOM      7  O   LIG    1        3.591   2.035  -0.062  0.00  0.00    -0.660 OA
BRANCH   7   8
ATOM      8  S   LIG    1        4.020   2.496  -1.448  0.00  0.00    +2.680 S 
ATOM      9  O   LIG    1        3.673   1.449  -2.343  0.00  0.00    -0.950 OA
ATOM     10  O   LIG    1        5.343   2.997  -1.312  0.00  0.00    -0.930 OA
BRANCH   8  14
ATOM     11  C   LIG    1        1.419   6.033  -2.550  0.00  0.00    -0.010 A 
ATOM     12  C   LIG    1        2.615   6.235  -1.887  0.00  0.00    -0.010 A 
ATOM     13  C   LIG    1        3.410   5.155  -1.551  0.00  0.00    +0.130 A 
ATOM     14  C   LIG    1        3.007   3.873  -1.876  0.00  0.00    -0.710 A 
ATOM     15  C   LIG    1        1.813   3.672  -2.543  0.00  0.00    +0.130 A 
ATOM     16  C   LIG    1        1.017   4.752  -2.875  0.00  0.00    +0.000 A 
BRANCH  11  18
ATOM     17  C   LIG    1        1.334   8.149  -3.841  0.00  0.00    +0.040 C 
ATOM     18  C   LIG    1        0.554   7.211  -2.917  0.00  0.00    -0.040 C 
ATOM     19  C   LIG    1        0.151   7.964  -1.647  0.00  0.00    +0.040 C 
ATOM     20  C   LIG    1       -0.703   6.716  -3.636  0.00  0.00    +0.030 C 
ENDBRANCH  11  18
ENDBRANCH   8  14
ENDBRANCH   7   8
ENDBRANCH   1   7
BRANCH   4  21
ATOM     21  O   LIG    1       -1.166  -0.700   0.010  0.00  0.00    -0.230 OA
BRANCH  21  22
ATOM     22  C   LIG    1       -1.444  -1.467   1.095  0.00  0.00    +0.330 A 
ATOM     23  N   LIG    1       -0.634  -1.440   2.140  0.00  0.00    -0.500 NA
ATOM     24  C   LIG    1       -0.866  -2.169   3.215  0.00  0.00    +0.340 A 
ATOM     25  C   LIG    1       -1.972  -2.994   3.286  0.00  0.00    -0.110 A 
ATOM     26  C   LIG    1       -2.848  -3.051   2.209  0.00  0.00    +0.150 A 
ATOM     27 CL   LIG    1       -2.266  -3.948   4.707  0.00  0.00    -0.030 Cl
ATOM     28  C   LIG    1       -2.579  -2.269   1.098  0.00  0.00    -0.090 A 
ATOM     29 CL   LIG    1       -3.642  -2.296  -0.274  0.00  0.00    -0.020 Cl
ENDBRANCH  21  22
ENDBRANCH   4  21
TORSDOF 6
