REMARK  Name = ZINCrH000004jbLJ.0
REMARK                            x       y       z     vdW  Elec       q    Type
REMARK                         _______ _______ _______ _____ _____    ______ ____
ROOT
ATOM      1  N   LIG    1        3.602   8.125  -1.764  0.00  0.00    -0.550 N 
ATOM      2  C   LIG    1        2.857   7.314  -2.734  0.00  0.00    +0.310 C 
ATOM      3  C   LIG    1        3.139   5.846  -2.346  0.00  0.00    +0.010 C 
ATOM      4  C   LIG    1        4.503   5.966  -1.627  0.00  0.00    +0.100 C 
ATOM      5  C   LIG    1        4.537   7.395  -1.132  0.00  0.00    +0.520 C 
ATOM      6  O   LIG    1        5.296   7.820  -0.287  0.00  0.00    -0.500 OA
ENDROOT
BRANCH   1  11
ATOM      7  C   LIG    1        3.811  11.481  -0.275  0.00  0.00    -0.050 A 
ATOM      8  C   LIG    1        2.908  12.173  -1.061  0.00  0.00    -0.020 A 
ATOM      9  C   LIG    1        2.235  11.524  -2.080  0.00  0.00    +0.040 A 
ATOM     10  C   LIG    1        2.463  10.183  -2.316  0.00  0.00    -0.040 A 
ATOM     11  C   LIG    1        3.369   9.485  -1.528  0.00  0.00    +0.170 A 
ATOM     12  C   LIG    1        4.039  10.137  -0.502  0.00  0.00    +0.000 A 
BRANCH   7  14
ATOM     13  C   LIG    1        3.730  12.091   2.127  0.00  0.00    +0.030 C 
ATOM     14  C   LIG    1        4.543  12.191   0.835  0.00  0.00    +0.050 C 
ENDBRANCH   7  14
ENDBRANCH   1  11
BRANCH   3  15
ATOM     15  C   LIG    1        2.080   5.322  -1.410  0.00  0.00    +0.520 C 
ATOM     16  N   LIG    1        2.213   4.101  -0.857  0.00  0.00    -0.720 N 
ATOM     17  H   LIG    1        2.991   3.558  -1.061  0.00  0.00    +0.400 HD
ATOM     18  O   LIG    1        1.108   6.001  -1.154  0.00  0.00    -0.520 OA
BRANCH  16  19
ATOM     19  C   LIG    1        1.184   3.592   0.053  0.00  0.00    +0.290 C 
ATOM     20  C   LIG    1        1.459   4.102   1.470  0.00  0.00    +0.040 C 
BRANCH  19  21
ATOM     21  C   LIG    1        1.209   2.086   0.048  0.00  0.00    -0.080 A 
ATOM     22  C   LIG    1        2.417   1.415   0.018  0.00  0.00    +0.040 A 
ATOM     23  C   LIG    1        2.442   0.033   0.014  0.00  0.00    +0.030 A 
ATOM     24  C   LIG    1        1.257  -0.681   0.039  0.00  0.00    +0.070 A 
ATOM     25  C   LIG    1        0.045  -0.008   0.068  0.00  0.00    +0.080 A 
ATOM     26  F   LIG    1       -1.113  -0.703   0.093  0.00  0.00    -0.120 F 
ATOM     27  F   LIG    1        1.281  -2.032   0.034  0.00  0.00    -0.120 F 
ATOM     28  C   LIG    1        0.023   1.375   0.073  0.00  0.00    +0.040 A 
ENDBRANCH  19  21
ENDBRANCH  16  19
ENDBRANCH   3  15
TORSDOF 5
