REMARK  Name = ZINCtV000002J7vZ.0
REMARK                            x       y       z     vdW  Elec       q    Type
REMARK                         _______ _______ _______ _____ _____    ______ ____
ROOT
ATOM      1  C   LIG    1        4.136   2.861   8.106  0.00  0.00    +0.020 C 
ENDROOT
BRANCH   1   2
ATOM      2  C   LIG    1        4.106   2.424   6.640  0.00  0.00    +0.010 C 
BRANCH   2   3
ATOM      3  C   LIG    1        2.671   2.496   6.116  0.00  0.00    +0.280 C 
BRANCH   3   4
ATOM      4  N   LIG    1        2.642   2.078   4.712  0.00  0.00    -0.680 N 
ATOM      5  H   LIG    1        3.462   1.812   4.268  0.00  0.00    +0.420 HD
BRANCH   4  10
ATOM      6  C   LIG    1       -0.013   1.086   0.008  0.00  0.00    +0.090 C 
ATOM      7  C   LIG    1       -0.718   1.572   1.248  0.00  0.00    -0.050 A 
ATOM      8  C   LIG    1        0.001   1.806   2.408  0.00  0.00    -0.010 A 
ATOM      9  O   LIG    1        1.309   1.696   2.737  0.00  0.00    -0.230 OA
ATOM     10  C   LIG    1        1.450   2.061   4.024  0.00  0.00    +0.500 A 
ATOM     11  N   LIG    1        0.289   2.398   4.525  0.00  0.00    -0.540 NA
ATOM     12  C   LIG    1       -0.660   2.259   3.560  0.00  0.00    +0.070 A 
ATOM     13  C   LIG    1       -2.039   2.469   3.527  0.00  0.00    +0.040 A 
ATOM     14  C   LIG    1       -2.740   2.230   2.365  0.00  0.00    +0.040 A 
ATOM     15  C   LIG    1       -2.081   1.789   1.227  0.00  0.00    +0.020 A 
ENDBRANCH   4  10
ENDBRANCH   3   4
ENDBRANCH   2   3
ENDBRANCH   1   2
BRANCH   1  16
ATOM     16  C   LIG    1        5.572   2.789   8.630  0.00  0.00    +0.020 C 
BRANCH  16  17
ATOM     17  C   LIG    1        5.602   3.226  10.096  0.00  0.00    +0.020 C 
BRANCH  17  18
ATOM     18  C   LIG    1        7.038   3.154  10.620  0.00  0.00    +0.190 C 
BRANCH  18  19
ATOM     19  C   LIG    1        7.068   3.584  12.064  0.00  0.00    +0.190 A 
ATOM     20  N   LIG    1        6.923   2.809  13.110  0.00  0.00    -0.470 NA
ATOM     21  C   LIG    1        7.022   3.626  14.184  0.00  0.00    +0.210 A 
ATOM     22  N   LIG    1        7.218   4.837  13.731  0.00  0.00    -0.370 NA
ATOM     23  O   LIG    1        7.252   4.828  12.518  0.00  0.00    +0.090 OA
BRANCH  21  24
ATOM     24  C   LIG    1        6.925   3.223  15.609  0.00  0.00    -0.020 A 
ATOM     25  C   LIG    1        6.706   1.888  15.945  0.00  0.00    +0.090 A 
ATOM     26  C   LIG    1        6.622   1.518  17.271  0.00  0.00    +0.030 A 
ATOM     27  C   LIG    1        6.744   2.472  18.268  0.00  0.00    -0.020 A 
ATOM     28  C   LIG    1        6.955   3.800  17.939  0.00  0.00    +0.030 A 
ATOM     29 CL   LIG    1        6.631   2.001  19.935  0.00  0.00    -0.060 Cl
ATOM     30  C   LIG    1        7.046   4.179  16.615  0.00  0.00    +0.070 A 
ENDBRANCH  21  24
ENDBRANCH  18  19
ENDBRANCH  17  18
ENDBRANCH  16  17
ENDBRANCH   1  16
TORSDOF 9
