REMARK  Name = ZINCtV000002OaIC.0
REMARK                            x       y       z     vdW  Elec       q    Type
REMARK                         _______ _______ _______ _____ _____    ______ ____
ROOT
ATOM      1  C   LIG    1        4.508   0.808  -0.055  0.00  0.00    -0.020 A 
ATOM      2  C   LIG    1        3.804  -0.353  -0.062  0.00  0.00    -0.050 A 
ATOM      3  C   LIG    1        2.392   0.030  -0.057  0.00  0.00    -0.140 A 
ATOM      4  C   LIG    1        1.190  -0.682  -0.060  0.00  0.00    +0.080 A 
ATOM      5  C   LIG    1        0.003  -0.006  -0.054  0.00  0.00    +0.010 A 
ATOM      6  C   LIG    1       -0.017   1.381  -0.044  0.00  0.00    +0.070 A 
ATOM      7  C   LIG    1        1.158   2.102  -0.041  0.00  0.00    +0.030 A 
ATOM      8  C   LIG    1        2.378   1.437  -0.047  0.00  0.00    +0.080 A 
ATOM      9  O   LIG    1        3.658   1.857  -0.046  0.00  0.00    -0.180 OA
ENDROOT
BRANCH   1  11
ATOM     10  O   LIG    1        6.652  -0.102  -0.064  0.00  0.00    -0.480 OA
ATOM     11  C   LIG    1        5.974   0.908  -0.056  0.00  0.00    +0.610 C 
ATOM     12  N   LIG    1        6.567   2.118  -0.049  0.00  0.00    -0.660 N 
ATOM     13  H   LIG    1        6.029   2.923  -0.108  0.00  0.00    +0.420 HD
BRANCH  12  14
ATOM     14  C   LIG    1        7.961   2.214   0.045  0.00  0.00    +0.130 A 
ATOM     15  C   LIG    1        8.766   1.258  -0.559  0.00  0.00    +0.100 A 
ATOM     16  C   LIG    1       10.141   1.353  -0.467  0.00  0.00    +0.050 A 
ATOM     17  C   LIG    1       10.719   2.402   0.227  0.00  0.00    +0.090 A 
ATOM     18  C   LIG    1        9.920   3.360   0.832  0.00  0.00    +0.050 A 
ATOM     19  F   LIG    1       10.486   4.383   1.509  0.00  0.00    -0.110 F 
ATOM     20  F   LIG    1       12.064   2.493   0.314  0.00  0.00    -0.120 F 
ATOM     21  C   LIG    1        8.541   3.271   0.737  0.00  0.00    +0.070 A 
ATOM     22  F   LIG    1        7.761   4.207   1.321  0.00  0.00    -0.110 F 
ENDBRANCH  12  14
ENDBRANCH   1  11
BRANCH   2  23
ATOM     23  C   LIG    1        4.363  -1.752  -0.072  0.00  0.00    +0.180 C 
BRANCH  23  24
ATOM     24  S   LIG    1        4.585  -2.302  -1.786  0.00  0.00    -0.240 S 
BRANCH  24  25
ATOM     25  C   LIG    1        5.254  -3.977  -1.594  0.00  0.00    +0.040 C 
ATOM     26  C   LIG    1        6.632  -3.903  -0.933  0.00  0.00    +0.030 C 
ATOM     27  C   LIG    1        7.197  -5.315  -0.770  0.00  0.00    +0.010 C 
ATOM     28  C   LIG    1        7.326  -5.974  -2.145  0.00  0.00    +0.000 C 
ATOM     29  C   LIG    1        5.949  -6.049  -2.807  0.00  0.00    +0.020 C 
ATOM     30  C   LIG    1        5.384  -4.636  -2.969  0.00  0.00    +0.040 C 
ENDBRANCH  24  25
ENDBRANCH  23  24
ENDBRANCH   2  23
TORSDOF 5
