REMARK  Name = ZINCrD000000CHYA.0
REMARK                            x       y       z     vdW  Elec       q    Type
REMARK                         _______ _______ _______ _____ _____    ______ ____
ROOT
ATOM      1  O   LIG    1        3.220  -2.293   0.346  0.00  0.00    -0.510 OA
ATOM      2  C   LIG    1        2.040  -2.007   0.415  0.00  0.00    +0.600 C 
ATOM      3  N   LIG    1        1.108  -2.981   0.398  0.00  0.00    -0.610 N 
ATOM      4  C   LIG    1       -0.347  -2.780   0.514  0.00  0.00    +0.250 C 
ATOM      5  C   LIG    1       -0.894  -4.123   1.054  0.00  0.00    +0.040 C 
ATOM      6  C   LIG    1        0.016  -5.147   0.326  0.00  0.00    +0.040 C 
ATOM      7  C   LIG    1        1.377  -4.421   0.268  0.00  0.00    +0.220 C 
ENDROOT
BRANCH   2   8
ATOM      8  C   LIG    1        1.628  -0.595   0.516  0.00  0.00    -0.270 A 
ATOM      9  C   LIG    1        2.462   0.491   0.693  0.00  0.00    +0.320 A 
ATOM     10  N   LIG    1        1.687   1.590   0.732  0.00  0.00    -0.310 N 
ATOM     11  N   LIG    1        0.352   1.197   0.580  0.00  0.00    -0.290 NA
ATOM     12  C   LIG    1        0.306  -0.100   0.451  0.00  0.00    +0.290 A 
BRANCH  10  13
ATOM     13  C   LIG    1        2.140   2.906   0.897  0.00  0.00    +0.100 A 
ATOM     14  C   LIG    1        1.232   3.955   1.020  0.00  0.00    +0.080 A 
ATOM     15  C   LIG    1        1.728   5.238   1.187  0.00  0.00    +0.000 A 
ATOM     16  C   LIG    1        3.096   5.435   1.214  0.00  0.00    +0.260 A 
ATOM     17  N   LIG    1        3.929   4.420   1.090  0.00  0.00    -0.460 NA
ATOM     18  C   LIG    1        3.500   3.184   0.935  0.00  0.00    +0.250 A 
ENDBRANCH  10  13
ENDBRANCH   2   8
BRANCH   7  19
ATOM     19  C   LIG    1        2.063  -4.703  -1.070  0.00  0.00    +0.080 C 
BRANCH  19  20
ATOM     20  C   LIG    1        3.445  -4.101  -1.062  0.00  0.00    -0.050 A 
ATOM     21  C   LIG    1        3.715  -2.980  -1.823  0.00  0.00    +0.030 A 
ATOM     22  C   LIG    1        4.983  -2.424  -1.811  0.00  0.00    +0.100 A 
ATOM     23  C   LIG    1        5.983  -2.998  -1.046  0.00  0.00    +0.010 A 
ATOM     24  C   LIG    1        5.715  -4.123  -0.290  0.00  0.00    +0.020 A 
ATOM     25  F   LIG    1        5.245  -1.324  -2.551  0.00  0.00    -0.140 F 
ATOM     26  C   LIG    1        4.446  -4.676  -0.297  0.00  0.00    +0.090 A 
ATOM     27  F   LIG    1        4.184  -5.775   0.443  0.00  0.00    -0.140 F 
ENDBRANCH  19  20
ENDBRANCH   7  19
TORSDOF 4
