REMARK  Name = ZINCpk00000KfKw8.0
REMARK                            x       y       z     vdW  Elec       q    Type
REMARK                         _______ _______ _______ _____ _____    ______ ____
ROOT
ATOM      1  C   LIG    1       -0.660  -0.537   1.255  0.00  0.00    +0.510 C 
ATOM      2  N   LIG    1       -1.087  -1.814   1.297  0.00  0.00    -0.610 N 
ATOM      3  C   LIG    1       -0.915  -2.700   0.137  0.00  0.00    +0.260 C 
ATOM      4  C   LIG    1       -0.193  -3.972   0.592  0.00  0.00    +0.050 C 
ATOM      5  C   LIG    1       -0.962  -4.603   1.755  0.00  0.00    +0.030 C 
ATOM      6  C   LIG    1       -1.002  -3.624   2.931  0.00  0.00    +0.260 C 
ATOM      7  C   LIG    1       -1.729  -2.350   2.506  0.00  0.00    +0.280 C 
ATOM      8  O   LIG    1       -0.808   0.184   2.219  0.00  0.00    -0.510 OA
ENDROOT
BRANCH   1  19
ATOM      9  C   LIG    1       -2.487   1.567  -0.091  0.00  0.00    +0.100 C 
ATOM     10  C   LIG    1       -1.133   2.219   0.020  0.00  0.00    +0.530 C 
ATOM     11  N   LIG    1       -0.018   1.461   0.011  0.00  0.00    -0.540 N 
ATOM     12  C   LIG    1        1.289   1.958  -0.004  0.00  0.00    +0.150 A 
ATOM     13  C   LIG    1        1.732   3.282  -0.009  0.00  0.00    +0.010 A 
ATOM     14  C   LIG    1        3.082   3.563  -0.026  0.00  0.00    +0.040 A 
ATOM     15  C   LIG    1        4.007   2.535  -0.037  0.00  0.00    -0.010 A 
ATOM     16  C   LIG    1        3.575   1.221  -0.032  0.00  0.00    +0.050 A 
ATOM     17  C   LIG    1        2.224   0.935  -0.016  0.00  0.00    -0.140 A 
ATOM     18  C   LIG    1        1.491  -0.387  -0.008  0.00  0.00    +0.130 C 
ATOM     19  C   LIG    1        0.002  -0.004   0.010  0.00  0.00    +0.240 C 
ATOM     20  O   LIG    1       -1.045   3.425   0.116  0.00  0.00    -0.510 OA
ENDBRANCH   1  19
BRANCH   6  21
ATOM     21  N   LIG    1       -1.712  -4.241   4.056  0.00  0.00    -0.380 N 
ATOM     22  C   LIG    1       -2.764  -5.074   3.985  0.00  0.00    +0.480 A 
ATOM     23  N   LIG    1       -3.103  -5.404   5.205  0.00  0.00    -0.540 NA
ATOM     24  C   LIG    1       -2.300  -4.797   6.077  0.00  0.00    +0.420 A 
ATOM     25  N   LIG    1       -1.431  -4.073   5.421  0.00  0.00    -0.320 NA
ENDBRANCH   6  21
TORSDOF 2
