REMARK  Name = ZINCAx0000000iFP.0
REMARK                            x       y       z     vdW  Elec       q    Type
REMARK                         _______ _______ _______ _____ _____    ______ ____
ROOT
ATOM      1  C   LIG    1       -1.344   6.952   3.199  0.00  0.00    +0.240 C 
ATOM      2  C   LIG    1       -1.896   8.192   3.843  0.00  0.00    +0.530 C 
ATOM      3  N   LIG    1       -2.845   8.942   3.273  0.00  0.00    -0.720 N 
ATOM      4  H   LIG    1       -3.139   9.745   3.731  0.00  0.00    +0.400 HD
ATOM      5  C   LIG    1       -3.457   8.607   1.990  0.00  0.00    +0.280 C 
ATOM      6  C   LIG    1       -2.579   7.609   1.234  0.00  0.00    +0.190 C 
ATOM      7  O   LIG    1       -1.463   8.527   4.925  0.00  0.00    -0.540 OA
ATOM      8  N   LIG    1       -2.248   6.493   2.136  0.00  0.00    -0.510 NA
ENDROOT
BRANCH   1  15
ATOM      9  C   LIG    1       -3.708   5.242   4.437  0.00  0.00    +0.170 C 
ATOM     10  C   LIG    1       -2.247   5.113   4.785  0.00  0.00    +0.120 A 
ATOM     11  N   LIG    1       -1.735   4.275   5.650  0.00  0.00    -0.290 NA
ATOM     12  N   LIG    1       -0.348   4.471   5.682  0.00  0.00    -0.320 N 
ATOM     13  C   LIG    1       -0.047   5.452   4.802  0.00  0.00    +0.120 A 
ATOM     14  C   LIG    1        1.330   5.987   4.505  0.00  0.00    +0.150 C 
ATOM     15  C   LIG    1       -1.204   5.869   4.238  0.00  0.00    -0.220 A 
BRANCH  12  16
ATOM     16  C   LIG    1        0.565   3.770   6.482  0.00  0.00    +0.150 A 
ATOM     17  C   LIG    1        0.429   2.400   6.656  0.00  0.00    +0.020 A 
ATOM     18  C   LIG    1        1.334   1.711   7.440  0.00  0.00    +0.030 A 
ATOM     19  C   LIG    1        2.369   2.387   8.059  0.00  0.00    +0.010 A 
ATOM     20  C   LIG    1        2.504   3.753   7.892  0.00  0.00    +0.030 A 
ATOM     21  C   LIG    1        1.606   4.446   7.105  0.00  0.00    +0.000 A 
ENDBRANCH  12  16
ENDBRANCH   1  15
BRANCH   8  22
ATOM     22  C   LIG    1       -1.660   5.372   1.392  0.00  0.00    +0.220 C 
BRANCH  22  23
ATOM     23  C   LIG    1       -2.701   4.771   0.482  0.00  0.00    +0.530 C 
ATOM     24  N   LIG    1       -2.511   3.545  -0.043  0.00  0.00    -0.550 N 
ATOM     25  C   LIG    1       -1.302   2.856   0.144  0.00  0.00    +0.110 A 
ATOM     26  C   LIG    1       -0.110   3.538   0.308  0.00  0.00    +0.010 A 
ATOM     27  C   LIG    1        1.066   2.831   0.484  0.00  0.00    +0.020 A 
ATOM     28  C   LIG    1        1.052   1.448   0.495  0.00  0.00    +0.030 A 
ATOM     29  C   LIG    1       -0.138   0.761   0.334  0.00  0.00    +0.010 A 
ATOM     30  C   LIG    1       -1.320   1.460   0.154  0.00  0.00    +0.130 A 
ATOM     31  N   LIG    1       -2.536   0.784   0.005  0.00  0.00    -0.660 N 
ATOM     32  H   LIG    1       -2.590  -0.160   0.220  0.00  0.00    +0.420 HD
ATOM     33  C   LIG    1       -3.631   1.430  -0.437  0.00  0.00    +0.520 C 
ATOM     34  O   LIG    1       -4.685   0.835  -0.522  0.00  0.00    -0.500 OA
ATOM     35  C   LIG    1       -3.564   2.884  -0.829  0.00  0.00    +0.160 C 
ATOM     36  C   LIG    1       -3.237   2.998  -2.319  0.00  0.00    +0.070 C 
ATOM     37  C   LIG    1       -4.910   3.554  -0.546  0.00  0.00    +0.100 C 
ATOM     38  O   LIG    1       -3.710   5.393   0.221  0.00  0.00    -0.490 OA
ENDBRANCH  22  23
ENDBRANCH   8  22
TORSDOF 4
