REMARK  Name = ZINCpe00000ySp9a.0
REMARK                            x       y       z     vdW  Elec       q    Type
REMARK                         _______ _______ _______ _____ _____    ______ ____
ROOT
ATOM      1  C   LIG    1        5.337   5.624   3.110  0.00  0.00    +0.030 C 
ATOM      2  C   LIG    1        5.308   4.483   4.129  0.00  0.00    +0.240 C 
ENDROOT
BRANCH   2   3
ATOM      3  N   LIG    1        3.923   4.059   4.348  0.00  0.00    -0.720 N 
ATOM      4  H   LIG    1        3.414   4.425   5.089  0.00  0.00    +0.400 HD
ATOM      5  C   LIG    1        3.354   3.161   3.519  0.00  0.00    +0.550 C 
ATOM      6  O   LIG    1        3.990   2.703   2.593  0.00  0.00    -0.540 OA
BRANCH   5   7
ATOM      7  C   LIG    1        1.930   2.724   3.744  0.00  0.00    -0.050 C 
ATOM      8  C   LIG    1        1.696   1.282   4.197  0.00  0.00    +0.090 C 
ATOM      9  C   LIG    1        1.342   1.702   2.769  0.00  0.00    +0.070 C 
BRANCH   9  10
ATOM     10  C   LIG    1       -0.119   1.830   2.423  0.00  0.00    +0.000 A 
ATOM     11  C   LIG    1       -1.106   2.235   3.245  0.00  0.00    +0.150 A 
ATOM     12  N   LIG    1       -2.256   2.211   2.556  0.00  0.00    -0.490 NA
ATOM     13  C   LIG    1       -2.019   1.812   1.336  0.00  0.00    +0.390 A 
ATOM     14  N   LIG    1       -0.698   1.558   1.213  0.00  0.00    -0.460 N 
ATOM     15  C   LIG    1       -0.013   1.086   0.008  0.00  0.00    +0.330 C 
ENDBRANCH   9  10
ENDBRANCH   5   7
ENDBRANCH   2   3
BRANCH   2  16
ATOM     16  C   LIG    1        5.908   4.965   5.452  0.00  0.00    +0.030 C 
BRANCH  16  17
ATOM     17  C   LIG    1        5.994   3.793   6.431  0.00  0.00    +0.260 C 
BRANCH  17  18
ATOM     18  N   LIG    1        6.568   4.254   7.697  0.00  0.00    -0.730 N 
ATOM     19  H   LIG    1        6.825   5.184   7.802  0.00  0.00    +0.400 HD
ATOM     20  C   LIG    1        6.740   3.388   8.714  0.00  0.00    +0.520 C 
ATOM     21  O   LIG    1        6.418   2.226   8.582  0.00  0.00    -0.540 OA
BRANCH  20  22
ATOM     22  C   LIG    1        7.331   3.863  10.017  0.00  0.00    +0.050 C 
BRANCH  22  23
ATOM     23  C   LIG    1        7.416   2.690  10.996  0.00  0.00    +0.130 C 
ATOM     24  C   LIG    1        6.062   2.303  11.614  0.00  0.00    +0.000 C 
ATOM     25  C   LIG    1        6.816   2.101  12.940  0.00  0.00    +0.010 C 
ATOM     26  C   LIG    1        7.859   3.099  12.410  0.00  0.00    +0.040 C 
BRANCH  23  27
ATOM     27  O   LIG    1        8.143   1.578  10.468  0.00  0.00    -0.550 OA
ATOM     28  H   LIG    1        7.854   1.301   9.588  0.00  0.00    +0.390 HD
ENDBRANCH  23  27
ENDBRANCH  22  23
ENDBRANCH  20  22
ENDBRANCH  17  18
ENDBRANCH  16  17
ENDBRANCH   2  16
TORSDOF 9
