REMARK  Name = ZINCpk00000K6qN9.1
REMARK                            x       y       z     vdW  Elec       q    Type
REMARK                         _______ _______ _______ _____ _____    ______ ____
ROOT
ATOM      1  C   LIG    1        3.320  -4.723   1.248  0.00  0.00    +0.280 C 
ATOM      2  C   LIG    1        2.468  -4.264   0.059  0.00  0.00    +0.280 C 
ATOM      3  N   LIG    1        2.416  -2.794   0.065  0.00  0.00    -0.610 N 
ATOM      4  C   LIG    1        3.686  -2.057   0.163  0.00  0.00    +0.270 C 
ATOM      5  C   LIG    1        4.477  -2.623   1.353  0.00  0.00    +0.230 C 
ATOM      6  C   LIG    1        1.240  -2.141  -0.022  0.00  0.00    +0.570 C 
ATOM      7  O   LIG    1        1.222  -0.927  -0.085  0.00  0.00    -0.520 OA
ATOM      8  O   LIG    1        4.577  -4.043   1.217  0.00  0.00    -0.360 OA
ENDROOT
BRANCH   6   9
ATOM      9  C   LIG    1       -0.027  -2.900  -0.041  0.00  0.00    -0.110 A 
ATOM     10  C   LIG    1       -1.050  -2.534   0.814  0.00  0.00    +0.160 A 
ATOM     11  C   LIG    1       -2.252  -3.257   0.795  0.00  0.00    +0.020 A 
ATOM     12  N   LIG    1       -3.408  -3.212   1.441  0.00  0.00    -0.260 NA
ATOM     13  N   LIG    1       -4.169  -4.150   0.996  0.00  0.00    -0.190 N 
ATOM     14  H   LIG    1       -5.069  -4.310   1.320  0.00  0.00    +0.480 HD
ATOM     15  N   LIG    1       -3.607  -4.856   0.078  0.00  0.00    -0.270 NA
ATOM     16  C   LIG    1       -2.389  -4.387  -0.138  0.00  0.00    +0.040 A 
ATOM     17  C   LIG    1       -1.311  -4.711  -0.983  0.00  0.00    +0.080 A 
ATOM     18  C   LIG    1       -0.170  -3.984  -0.929  0.00  0.00    +0.050 A 
ENDBRANCH   6   9
BRANCH   1  21
ATOM     19  C   LIG    1        3.374  -8.323   1.574  0.00  0.00    +0.300 A 
ATOM     20  N   LIG    1        2.947  -7.133   1.908  0.00  0.00    -0.530 NA
ATOM     21  C   LIG    1        3.549  -6.210   1.159  0.00  0.00    +0.230 A 
ATOM     22  N   LIG    1        4.367  -6.804   0.330  0.00  0.00    -0.280 NA
ATOM     23  N   LIG    1        4.275  -8.181   0.586  0.00  0.00    -0.480 N 
ATOM     24  H   LIG    1        4.761  -8.890   0.136  0.00  0.00    +0.440 HD
BRANCH  19  26
ATOM     25  C   LIG    1        2.906 -10.714   1.114  0.00  0.00    +0.040 C 
ATOM     26  C   LIG    1        2.934  -9.626   2.189  0.00  0.00    +0.090 C 
ATOM     27  C   LIG    1        3.914 -10.026   3.294  0.00  0.00    +0.060 C 
ENDBRANCH  19  26
ENDBRANCH   1  21
TORSDOF 3
