REMARK  Name = ZINCpk00000K6qN9.2
REMARK                            x       y       z     vdW  Elec       q    Type
REMARK                         _______ _______ _______ _____ _____    ______ ____
ROOT
ATOM      1  C   LIG    1       -3.249   2.988   0.239  0.00  0.00    +0.270 C 
ATOM      2  C   LIG    1       -3.273   1.783   1.187  0.00  0.00    +0.290 C 
ATOM      3  N   LIG    1       -4.590   1.135   1.080  0.00  0.00    -0.610 N 
ATOM      4  C   LIG    1       -5.092   0.807  -0.264  0.00  0.00    +0.260 C 
ATOM      5  C   LIG    1       -4.979   2.059  -1.141  0.00  0.00    +0.240 C 
ATOM      6  C   LIG    1       -5.314   0.849   2.180  0.00  0.00    +0.570 C 
ATOM      7  O   LIG    1       -4.853   1.064   3.284  0.00  0.00    -0.520 OA
ATOM      8  O   LIG    1       -3.644   2.566  -1.068  0.00  0.00    -0.380 OA
ENDROOT
BRANCH   6   9
ATOM      9  C   LIG    1       -6.668   0.275   2.044  0.00  0.00    -0.110 A 
ATOM     10  C   LIG    1       -7.716   0.831   2.755  0.00  0.00    +0.160 A 
ATOM     11  C   LIG    1       -9.002   0.287   2.620  0.00  0.00    +0.020 A 
ATOM     12  N   LIG    1      -10.205   0.539   3.115  0.00  0.00    -0.250 NA
ATOM     13  N   LIG    1      -11.039  -0.313   2.630  0.00  0.00    -0.190 N 
ATOM     14  H   LIG    1      -11.984  -0.324   2.849  0.00  0.00    +0.480 HD
ATOM     15  N   LIG    1      -10.486  -1.148   1.821  0.00  0.00    -0.270 NA
ATOM     16  C   LIG    1       -9.196  -0.869   1.732  0.00  0.00    +0.040 A 
ATOM     17  C   LIG    1       -8.089  -1.395   1.039  0.00  0.00    +0.090 A 
ATOM     18  C   LIG    1       -6.867  -0.833   1.197  0.00  0.00    +0.050 A 
ENDBRANCH   6   9
BRANCH   1  23
ATOM     19  C   LIG    1       -0.129   4.791   0.595  0.00  0.00    +0.240 A 
ATOM     20  N   LIG    1        0.248   3.949  -0.331  0.00  0.00    -0.300 NA
ATOM     21  N   LIG    1       -0.859   3.132  -0.612  0.00  0.00    -0.460 N 
ATOM     22  H   LIG    1       -0.899   2.408  -1.257  0.00  0.00    +0.450 HD
ATOM     23  C   LIG    1       -1.855   3.557   0.185  0.00  0.00    +0.290 A 
ATOM     24  N   LIG    1       -1.401   4.550   0.907  0.00  0.00    -0.520 NA
BRANCH  19  26
ATOM     25  C   LIG    1        1.949   5.216   1.881  0.00  0.00    +0.050 C 
ATOM     26  C   LIG    1        0.736   5.862   1.209  0.00  0.00    +0.100 C 
ATOM     27  C   LIG    1        1.210   6.823   0.117  0.00  0.00    +0.050 C 
ENDBRANCH  19  26
ENDBRANCH   1  23
TORSDOF 3
