REMARK  Name = ZINCpk00000K6qN9.0
REMARK                            x       y       z     vdW  Elec       q    Type
REMARK                         _______ _______ _______ _____ _____    ______ ____
ROOT
ATOM      1  C   LIG    1       -1.017   9.911  -1.244  0.00  0.00    +0.270 C 
ATOM      2  C   LIG    1       -1.501   9.089  -0.044  0.00  0.00    +0.290 C 
ATOM      3  N   LIG    1       -0.801   7.795  -0.054  0.00  0.00    -0.610 N 
ATOM      4  C   LIG    1        0.665   7.803  -0.173  0.00  0.00    +0.260 C 
ATOM      5  C   LIG    1        1.044   8.687  -1.373  0.00  0.00    +0.240 C 
ATOM      6  C   LIG    1       -1.482   6.637   0.048  0.00  0.00    +0.570 C 
ATOM      7  O   LIG    1       -0.882   5.582   0.107  0.00  0.00    -0.520 OA
ATOM      8  O   LIG    1        0.412   9.962  -1.234  0.00  0.00    -0.380 OA
ENDROOT
BRANCH   6   9
ATOM      9  C   LIG    1       -2.959   6.650   0.089  0.00  0.00    -0.110 A 
ATOM     10  C   LIG    1       -3.668   5.811  -0.752  0.00  0.00    +0.150 A 
ATOM     11  C   LIG    1       -5.070   5.825  -0.712  0.00  0.00    +0.020 A 
ATOM     12  N   LIG    1       -6.052   5.190  -1.335  0.00  0.00    -0.260 NA
ATOM     13  N   LIG    1       -7.177   5.621  -0.881  0.00  0.00    -0.190 N 
ATOM     14  H   LIG    1       -8.039   5.300  -1.191  0.00  0.00    +0.480 HD
ATOM     15  N   LIG    1       -7.037   6.519   0.030  0.00  0.00    -0.270 NA
ATOM     16  C   LIG    1       -5.747   6.734   0.226  0.00  0.00    +0.040 A 
ATOM     17  C   LIG    1       -4.970   7.563   1.056  0.00  0.00    +0.100 A 
ATOM     18  C   LIG    1       -3.618   7.516   0.982  0.00  0.00    +0.050 A 
ENDBRANCH   6   9
BRANCH   1  22
ATOM     19  C   LIG    1       -1.759  13.464  -1.068  0.00  0.00    +0.190 A 
ATOM     20  N   LIG    1       -2.941  12.917  -0.991  0.00  0.00    -0.280 NA
ATOM     21  N   LIG    1       -2.830  11.637  -1.047  0.00  0.00    -0.270 NA
ATOM     22  C   LIG    1       -1.571  11.309  -1.154  0.00  0.00    +0.180 A 
ATOM     23  N   LIG    1       -0.856  12.460  -1.174  0.00  0.00    -0.560 N 
ATOM     24  H   LIG    1        0.108  12.546  -1.249  0.00  0.00    +0.430 HD
BRANCH  19  26
ATOM     25  C   LIG    1       -1.113  15.367   0.384  0.00  0.00    +0.050 C 
ATOM     26  C   LIG    1       -1.454  14.940  -1.044  0.00  0.00    +0.100 C 
ATOM     27  C   LIG    1       -0.264  15.230  -1.962  0.00  0.00    +0.040 C 
ENDBRANCH  19  26
ENDBRANCH   1  22
TORSDOF 3
