REMARK  Name = ZINCpk00000eawKi.0
REMARK                            x       y       z     vdW  Elec       q    Type
REMARK                         _______ _______ _______ _____ _____    ______ ____
ROOT
ATOM      1  C   LIG    1       -5.280   3.034   1.195  0.00  0.00    +0.630 A 
ATOM      2  N   LIG    1       -4.367   2.065   1.185  0.00  0.00    -0.610 NA
ATOM      3  C   LIG    1       -3.928   1.580   0.037  0.00  0.00    +0.430 A 
ATOM      4  N   LIG    1       -4.401   2.048  -1.105  0.00  0.00    -0.620 NA
ATOM      5  C   LIG    1       -5.318   3.013  -1.103  0.00  0.00    +0.630 A 
ATOM      6  N   LIG    1       -5.758   3.506   0.049  0.00  0.00    -0.630 NA
ENDROOT
BRANCH   5   7
ATOM      7  N   LIG    1       -5.810   3.500  -2.297  0.00  0.00    -0.800 N 
ATOM      8  H   LIG    1       -6.479   4.203  -2.295  0.00  0.00    +0.420 HD
ATOM      9  H   LIG    1       -5.488   3.140  -3.138  0.00  0.00    +0.420 HD
ENDBRANCH   5   7
BRANCH   1  10
ATOM     10  N   LIG    1       -5.735   3.543   2.396  0.00  0.00    -0.610 N 
ATOM     11  H   LIG    1       -5.323   3.263   3.228  0.00  0.00    +0.430 HD
BRANCH  10  17
ATOM     12  C   LIG    1       -6.881   5.406   3.433  0.00  0.00    +0.100 A 
ATOM     13  C   LIG    1       -7.928   6.313   3.443  0.00  0.00    -0.060 A 
ATOM     14  C   LIG    1       -8.880   6.281   2.441  0.00  0.00    +0.030 A 
ATOM     15  C   LIG    1       -8.791   5.347   1.427  0.00  0.00    -0.010 A 
ATOM     16  C   LIG    1       -7.747   4.441   1.406  0.00  0.00    +0.070 A 
ATOM     17  C   LIG    1       -6.791   4.463   2.411  0.00  0.00    +0.130 A 
BRANCH  12  19
ATOM     18  C   LIG    1       -6.100   6.429   5.433  0.00  0.00    +0.250 C 
ATOM     19  O   LIG    1       -5.944   5.435   4.418  0.00  0.00    -0.320 OA
ENDBRANCH  12  19
ENDBRANCH  10  17
ENDBRANCH   1  10
BRANCH   3  20
ATOM     20  C   LIG    1       -2.890   0.488   0.030  0.00  0.00    +0.360 C 
BRANCH  20  21
ATOM     21  O   LIG    1       -1.565   1.080   0.003  0.00  0.00    -0.350 OA
BRANCH  21  22
ATOM     22  C   LIG    1       -0.520   0.237  -0.007  0.00  0.00    +0.460 C 
ATOM     23  O   LIG    1       -0.708  -0.957   0.007  0.00  0.00    -0.480 OA
BRANCH  22  24
ATOM     24  C   LIG    1        0.885   0.778  -0.041  0.00  0.00    +0.200 C 
ATOM     25  C   LIG    1        1.182   1.549   1.260  0.00  0.00    +0.040 C 
ATOM     26  C   LIG    1        2.406   0.818   1.864  0.00  0.00    +0.010 C 
ATOM     27  C   LIG    1        2.995   0.095   0.626  0.00  0.00    +0.210 C 
ATOM     28  O   LIG    1        1.825  -0.307  -0.118  0.00  0.00    -0.350 OA
ENDBRANCH  22  24
ENDBRANCH  21  22
ENDBRANCH  20  21
ENDBRANCH   3  20
TORSDOF 8
