REMARK  Name = ZINCrD0000074lfX.0
REMARK                            x       y       z     vdW  Elec       q    Type
REMARK                         _______ _______ _______ _____ _____    ______ ____
ROOT
ATOM      1  C   LIG    1       -0.767   4.277   3.782  0.00  0.00    +0.320 C 
ENDROOT
BRANCH   1   4
ATOM      2  C   LIG    1       -0.586   1.006   1.906  0.00  0.00    -0.120 A 
ATOM      3  C   LIG    1       -0.359   2.317   2.280  0.00  0.00    +0.040 A 
ATOM      4  C   LIG    1       -1.011   2.846   3.378  0.00  0.00    -0.110 A 
ATOM      5  C   LIG    1       -1.882   2.061   4.109  0.00  0.00    +0.040 A 
ATOM      6  C   LIG    1       -2.105   0.747   3.739  0.00  0.00    +0.010 A 
ATOM      7  C   LIG    1       -1.457   0.220   2.638  0.00  0.00    +0.040 A 
BRANCH   2   8
ATOM      8  C   LIG    1        0.121   0.431   0.706  0.00  0.00    +0.350 C 
BRANCH   8  14
ATOM      9  C   LIG    1       -2.248  -1.202  -0.443  0.00  0.00    +0.170 C 
ATOM     10  C   LIG    1       -1.666   0.061  -1.023  0.00  0.00    +0.210 A 
ATOM     11  N   LIG    1       -2.079   0.662  -2.104  0.00  0.00    -0.490 NA
ATOM     12  C   LIG    1       -1.325   1.750  -2.322  0.00  0.00    +0.150 A 
ATOM     13  C   LIG    1       -0.413   1.829  -1.334  0.00  0.00    +0.110 A 
ATOM     14  N   LIG    1       -0.631   0.759  -0.507  0.00  0.00    -0.450 N 
ENDBRANCH   8  14
ENDBRANCH   2   8
ENDBRANCH   1   4
BRANCH   1  15
ATOM     15  N   LIG    1        0.356   4.335   4.721  0.00  0.00    -0.720 N 
ATOM     16  H   LIG    1        0.811   3.520   4.984  0.00  0.00    +0.400 HD
ATOM     17  C   LIG    1        0.756   5.521   5.221  0.00  0.00    +0.560 C 
ATOM     18  O   LIG    1        0.186   6.543   4.892  0.00  0.00    -0.510 OA
BRANCH  17  19
ATOM     19  C   LIG    1        1.890   5.580   6.168  0.00  0.00    -0.150 A 
ATOM     20  C   LIG    1        2.390   6.813   6.587  0.00  0.00    +0.050 A 
ATOM     21  C   LIG    1        3.448   6.861   7.472  0.00  0.00    -0.060 A 
ATOM     22  C   LIG    1        4.013   5.689   7.943  0.00  0.00    +0.140 A 
ATOM     23  C   LIG    1        3.522   4.463   7.531  0.00  0.00    +0.030 A 
ATOM     24  C   LIG    1        1.776   8.091   6.075  0.00  0.00    +0.150 C 
ATOM     25  C   LIG    1        2.460   4.401   6.652  0.00  0.00    +0.110 A 
BRANCH  21  26
ATOM     26  N   LIG    1        3.980   8.168   7.917  0.00  0.00    +0.030 N 
ATOM     27  O   LIG    1        3.408   9.197   7.604  0.00  0.00    -0.150 OA
ATOM     28  O   LIG    1        4.989   8.215   8.597  0.00  0.00    -0.160 OA
ENDBRANCH  21  26
ENDBRANCH  17  19
ENDBRANCH   1  15
TORSDOF 6
