REMARK  Name = ZINCqH0000001LwB.0
REMARK                            x       y       z     vdW  Elec       q    Type
REMARK                         _______ _______ _______ _____ _____    ______ ____
ROOT
ATOM      1  C   LIG    1        1.035   3.525   0.182  0.00  0.00    +0.520 C 
ATOM      2  N   LIG    1        2.088   4.347   0.005  0.00  0.00    -0.670 N 
ATOM      3  H   LIG    1        2.984   3.982  -0.055  0.00  0.00    +0.420 HD
ATOM      4  O   LIG    1       -0.073   3.986   0.353  0.00  0.00    -0.490 OA
ENDROOT
BRANCH   2   5
ATOM      5  C   LIG    1        1.888   5.724  -0.090  0.00  0.00    +0.180 A 
ATOM      6  C   LIG    1        0.734   6.218  -0.690  0.00  0.00    +0.010 A 
ATOM      7  C   LIG    1        0.531   7.577  -0.782  0.00  0.00    +0.070 A 
ATOM      8  C   LIG    1        1.492   8.460  -0.282  0.00  0.00    -0.150 A 
ATOM      9  C   LIG    1        2.653   7.961   0.314  0.00  0.00    +0.110 A 
ATOM     10  C   LIG    1        2.847   6.601   0.408  0.00  0.00    -0.010 A 
BRANCH   8  11
ATOM     11  C   LIG    1        1.281   9.917  -0.384  0.00  0.00    +0.570 C 
ATOM     12  N   LIG    1        0.161  10.397  -0.960  0.00  0.00    -0.700 N 
ATOM     13  H   LIG    1       -0.506   9.785  -1.307  0.00  0.00    +0.400 HD
ATOM     14  O   LIG    1        2.118  10.685   0.051  0.00  0.00    -0.530 OA
BRANCH  12  15
ATOM     15  C   LIG    1       -0.048  11.844  -1.061  0.00  0.00    +0.220 C 
ATOM     16  C   LIG    1       -1.440  12.382  -0.720  0.00  0.00    +0.010 C 
ATOM     17  C   LIG    1       -0.967  12.348  -2.176  0.00  0.00    +0.020 C 
ENDBRANCH  12  15
ENDBRANCH   8  11
ENDBRANCH   2   5
BRANCH   1  18
ATOM     18  C   LIG    1        1.235   2.031   0.167  0.00  0.00    +0.240 C 
BRANCH  18  19
ATOM     19  O   LIG    1       -0.020   1.380   0.374  0.00  0.00    -0.290 OA
BRANCH  19  23
ATOM     20  C   LIG    1       -0.006  -2.745   0.417  0.00  0.00    -0.110 A 
ATOM     21  C   LIG    1       -1.191  -2.057   0.598  0.00  0.00    +0.050 A 
ATOM     22  C   LIG    1       -1.199  -0.676   0.584  0.00  0.00    -0.010 A 
ATOM     23  C   LIG    1       -0.015   0.021   0.388  0.00  0.00    +0.120 A 
ATOM     24  C   LIG    1        1.172  -0.672   0.201  0.00  0.00    -0.080 A 
ATOM     25  C   LIG    1        1.175  -2.053   0.221  0.00  0.00    +0.060 A 
BRANCH  20  27
ATOM     26  C   LIG    1        0.518  -4.774  -0.908  0.00  0.00    +0.030 C 
ATOM     27  C   LIG    1       -0.000  -4.252   0.433  0.00  0.00    +0.030 C 
ATOM     28  C   LIG    1        0.910  -4.747   1.559  0.00  0.00    +0.030 C 
ENDBRANCH  20  27
ENDBRANCH  19  23
ENDBRANCH  18  19
ENDBRANCH   1  18
TORSDOF 7
