REMARK  Name = ZINCkj000005jUmM.0
REMARK                            x       y       z     vdW  Elec       q    Type
REMARK                         _______ _______ _______ _____ _____    ______ ____
ROOT
ATOM      1  C   LIG    1        1.090  -6.372   1.421  0.00  0.00    +0.110 C 
ATOM      2  C   LIG    1        0.727  -4.887   1.375  0.00  0.00    +0.150 C 
ATOM      3  C   LIG    1        1.423  -4.227   0.175  0.00  0.00    +0.340 C 
ATOM      4  N   LIG    1        0.957  -2.835   0.080  0.00  0.00    -0.630 N 
ATOM      5  C   LIG    1       -0.492  -2.586   0.098  0.00  0.00    +0.310 C 
ATOM      6  C   LIG    1       -1.098  -3.323   1.296  0.00  0.00    +0.270 C 
ATOM      7  C   LIG    1        1.834  -1.817  -0.025  0.00  0.00    +0.610 C 
ATOM      8  O   LIG    1        3.025  -2.047  -0.110  0.00  0.00    -0.510 OA
ATOM      9  N   LIG    1       -0.728  -4.743   1.234  0.00  0.00    -0.500 N 
ATOM     10  H   LIG    1       -1.018  -5.127   0.347  0.00  0.00    +0.430 HD
ATOM     11  H   LIG    1       -1.188  -5.242   1.981  0.00  0.00    +0.430 HD
ENDROOT
BRANCH   7  12
ATOM     12  C   LIG    1        1.349  -0.425  -0.036  0.00  0.00    -0.300 A 
ATOM     13  C   LIG    1        1.935   0.652   0.601  0.00  0.00    +0.320 A 
ATOM     14  N   LIG    1        1.179   1.733   0.338  0.00  0.00    -0.290 N 
ATOM     15  N   LIG    1        0.107   1.339  -0.470  0.00  0.00    -0.270 NA
ATOM     16  C   LIG    1        0.198   0.058  -0.699  0.00  0.00    +0.270 A 
BRANCH  14  17
ATOM     17  C   LIG    1        1.423   3.035   0.797  0.00  0.00    +0.130 A 
ATOM     18  C   LIG    1        2.525   3.293   1.601  0.00  0.00    +0.000 A 
ATOM     19  C   LIG    1        2.766   4.578   2.047  0.00  0.00    +0.050 A 
ATOM     20  C   LIG    1        1.906   5.604   1.702  0.00  0.00    +0.030 A 
ATOM     21  C   LIG    1        0.805   5.349   0.906  0.00  0.00    +0.040 A 
ATOM     22  C   LIG    1        0.561   4.067   0.453  0.00  0.00    +0.030 A 
ENDBRANCH  14  17
ENDBRANCH   7  12
TORSDOF 2
