REMARK  Name = ZINCtV00000L6kzh.0
REMARK                            x       y       z     vdW  Elec       q    Type
REMARK                         _______ _______ _______ _____ _____    ______ ____
ROOT
ATOM      1  N   LIG    1       -0.448   2.740   1.891  0.00  0.00    -0.470 N 
ATOM      2  C   LIG    1       -1.304   2.821   2.971  0.00  0.00    +0.060 A 
ATOM      3  C   LIG    1       -1.504   3.756   3.977  0.00  0.00    +0.010 A 
ATOM      4  C   LIG    1       -2.465   3.529   4.939  0.00  0.00    +0.030 A 
ATOM      5  C   LIG    1       -3.231   2.372   4.908  0.00  0.00    +0.000 A 
ATOM      6  C   LIG    1       -3.048   1.441   3.925  0.00  0.00    +0.070 A 
ATOM      7  C   LIG    1       -2.080   1.651   2.940  0.00  0.00    +0.040 A 
ATOM      8  N   LIG    1       -1.670   0.933   1.862  0.00  0.00    -0.460 NA
ATOM      9  C   LIG    1       -0.718   1.572   1.248  0.00  0.00    +0.280 A 
ENDROOT
BRANCH   1  10
ATOM     10  C   LIG    1        0.562   3.729   1.507  0.00  0.00    +0.350 C 
BRANCH  10  16
ATOM     11  C   LIG    1       -0.552   5.201  -3.145  0.00  0.00    +0.090 C 
ATOM     12  C   LIG    1       -0.585   5.440  -1.657  0.00  0.00    -0.080 A 
ATOM     13  C   LIG    1       -1.178   6.582  -1.154  0.00  0.00    +0.010 A 
ATOM     14  C   LIG    1       -1.209   6.801   0.211  0.00  0.00    +0.000 A 
ATOM     15  C   LIG    1       -0.646   5.878   1.072  0.00  0.00    +0.020 A 
ATOM     16  C   LIG    1       -0.052   4.735   0.568  0.00  0.00    -0.120 A 
ATOM     17  C   LIG    1       -0.017   4.519  -0.796  0.00  0.00    +0.030 A 
ENDBRANCH  10  16
ENDBRANCH   1  10
BRANCH   9  18
ATOM     18  C   LIG    1       -0.013   1.086   0.008  0.00  0.00    +0.320 C 
BRANCH  18  19
ATOM     19  O   LIG    1       -0.704   1.559  -1.150  0.00  0.00    -0.300 OA
BRANCH  19  20
ATOM     20  C   LIG    1       -0.194   1.208  -2.359  0.00  0.00    +0.130 A 
ATOM     21  C   LIG    1       -0.813   1.631  -3.500  0.00  0.00    -0.020 A 
ATOM     22  C   LIG    1       -0.287   1.269  -4.751  0.00  0.00    -0.010 A 
ATOM     23  C   LIG    1       -0.896   1.687  -5.947  0.00  0.00    +0.010 A 
ATOM     24  C   LIG    1       -0.359   1.316  -7.142  0.00  0.00    +0.020 A 
ATOM     25  C   LIG    1        0.788   0.528  -7.199  0.00  0.00    -0.010 A 
ATOM     26  C   LIG    1        1.405   0.104  -6.061  0.00  0.00    +0.040 A 
ATOM     27  C   LIG    1        0.880   0.467  -4.809  0.00  0.00    -0.080 A 
ATOM     28  C   LIG    1        1.491   0.048  -3.614  0.00  0.00    +0.070 A 
ATOM     29  C   LIG    1        0.961   0.421  -2.419  0.00  0.00    -0.060 A 
ENDBRANCH  19  20
ENDBRANCH  18  19
ENDBRANCH   9  18
TORSDOF 5
