REMARK  Name = ZINCpk00000FcFys.0
REMARK                            x       y       z     vdW  Elec       q    Type
REMARK                         _______ _______ _______ _____ _____    ______ ____
ROOT
ATOM      1  C   LIG    1       -0.729   1.579   1.267  0.00  0.00    +0.160 C 
ENDROOT
BRANCH   1   2
ATOM      2  C   LIG    1        0.000   1.080   2.488  0.00  0.00    +0.180 A 
ATOM      3  N   LIG    1        0.970   1.704   3.104  0.00  0.00    -0.300 NA
ATOM      4  N   LIG    1        1.399   0.939   4.194  0.00  0.00    -0.310 N 
ATOM      5  C   LIG    1        2.366   1.145   5.134  0.00  0.00    +0.210 A 
ATOM      6  C   LIG    1        2.563   0.207   6.095  0.00  0.00    -0.060 A 
ATOM      7  C   LIG    1        1.773  -0.948   6.100  0.00  0.00    +0.230 A 
ATOM      8  N   LIG    1        0.849  -1.120   5.180  0.00  0.00    -0.480 NA
ATOM      9  C   LIG    1        1.981  -1.998   7.161  0.00  0.00    +0.170 C 
ATOM     10  C   LIG    1        3.203   2.398   5.106  0.00  0.00    +0.170 C 
ATOM     11  C   LIG    1        0.648  -0.203   4.232  0.00  0.00    +0.330 A 
ATOM     12  C   LIG    1       -0.255  -0.130   3.155  0.00  0.00    -0.190 A 
BRANCH  12  13
ATOM     13  C   LIG    1       -1.243  -1.105   2.805  0.00  0.00    +0.300 C 
ATOM     14  N   LIG    1       -2.027  -1.879   2.527  0.00  0.00    -0.420 NA
ENDBRANCH  12  13
ENDBRANCH   1   2
BRANCH   1  15
ATOM     15  C   LIG    1       -0.013   1.086   0.008  0.00  0.00    +0.030 C 
BRANCH  15  16
ATOM     16  C   LIG    1       -0.753   1.593  -1.232  0.00  0.00    +0.280 C 
BRANCH  16  20
ATOM     17  N   LIG    1        0.087   1.011  -4.764  0.00  0.00    -0.740 N 
ATOM     18  H   LIG    1        0.884   0.464  -4.685  0.00  0.00    +0.400 HD
ATOM     19  C   LIG    1       -0.543   1.446  -3.655  0.00  0.00    +0.700 C 
ATOM     20  N   LIG    1       -0.067   1.120  -2.437  0.00  0.00    -0.750 N 
ATOM     21  H   LIG    1        0.730   0.573  -2.358  0.00  0.00    +0.400 HD
ATOM     22  O   LIG    1       -1.542   2.132  -3.753  0.00  0.00    -0.590 OA
BRANCH  17  23
ATOM     23  C   LIG    1       -0.431   1.366  -6.087  0.00  0.00    +0.260 C 
ATOM     24  C   LIG    1        0.109   2.738  -6.496  0.00  0.00    +0.030 C 
BRANCH  23  25
ATOM     25  C   LIG    1        0.017   0.317  -7.108  0.00  0.00    +0.180 C 
BRANCH  25  27
ATOM     26  C   LIG    1        1.965  -0.591  -8.170  0.00  0.00    +0.200 C 
ATOM     27  O   LIG    1        1.440   0.355  -7.236  0.00  0.00    -0.390 OA
ENDBRANCH  25  27
ENDBRANCH  23  25
ENDBRANCH  17  23
ENDBRANCH  16  20
ENDBRANCH  15  16
ENDBRANCH   1  15
TORSDOF 8
