REMARK  Name = ZINCrD000000fTu0.0
REMARK                            x       y       z     vdW  Elec       q    Type
REMARK                         _______ _______ _______ _____ _____    ______ ____
ROOT
ATOM      1  N   LIG    1       -3.709   1.760  -0.078  0.00  0.00    -0.720 N 
ATOM      2  H   LIG    1       -3.704   2.729  -0.112  0.00  0.00    +0.410 HD
ATOM      3  C   LIG    1       -2.546   1.082  -0.021  0.00  0.00    +0.570 C 
ATOM      4  O   LIG    1       -2.551  -0.133   0.022  0.00  0.00    -0.530 OA
ENDROOT
BRANCH   3   5
ATOM      5  C   LIG    1       -1.264   1.815  -0.013  0.00  0.00    -0.140 A 
ATOM      6  C   LIG    1       -0.057   1.114   0.046  0.00  0.00    +0.110 A 
ATOM      7  C   LIG    1        1.137   1.801   0.048  0.00  0.00    +0.010 A 
ATOM      8  C   LIG    1        1.141   3.190  -0.002  0.00  0.00    +0.120 A 
ATOM      9  C   LIG    1       -0.058   3.891  -0.054  0.00  0.00    -0.010 A 
ATOM     10  C   LIG    1       -1.255   3.212  -0.057  0.00  0.00    +0.070 A 
BRANCH   8  11
ATOM     11  O   LIG    1        2.319   3.863   0.001  0.00  0.00    -0.260 OA
BRANCH  11  12
ATOM     12  C   LIG    1        2.620   4.619   1.090  0.00  0.00    +0.120 A 
ATOM     13  C   LIG    1        1.794   4.591   2.205  0.00  0.00    -0.060 A 
ATOM     14  C   LIG    1        2.104   5.356   3.312  0.00  0.00    +0.050 A 
ATOM     15  C   LIG    1        3.231   6.158   3.306  0.00  0.00    -0.020 A 
ATOM     16  C   LIG    1        4.052   6.192   2.195  0.00  0.00    +0.050 A 
ATOM     17  C   LIG    1        3.750   5.424   1.087  0.00  0.00    -0.010 A 
ENDBRANCH  11  12
ENDBRANCH   8  11
ENDBRANCH   3   5
BRANCH   1  18
ATOM     18  C   LIG    1       -4.981   1.033  -0.086  0.00  0.00    +0.370 C 
BRANCH  18  19
ATOM     19  C   LIG    1       -6.121   2.016  -0.153  0.00  0.00    +0.460 C 
ATOM     20  O   LIG    1       -5.895   3.202  -0.190  0.00  0.00    -0.500 OA
BRANCH  19  21
ATOM     21  O   LIG    1       -7.388   1.574  -0.172  0.00  0.00    -0.330 OA
BRANCH  21  22
ATOM     22  C   LIG    1       -8.436   2.577  -0.237  0.00  0.00    +0.230 C 
BRANCH  22  23
ATOM     23  C   LIG    1       -9.781   1.899  -0.249  0.00  0.00    +0.360 C 
ATOM     24  O   LIG    1       -9.850   0.694  -0.208  0.00  0.00    -0.420 OA
BRANCH  23  26
ATOM     25  C   LIG    1      -12.258   1.797  -0.314  0.00  0.00    +0.050 C 
ATOM     26  C   LIG    1      -11.041   2.724  -0.314  0.00  0.00    -0.110 C 
ATOM     27  C   LIG    1      -11.037   3.561  -1.594  0.00  0.00    +0.060 C 
ATOM     28  C   LIG    1      -11.105   3.651   0.902  0.00  0.00    +0.060 C 
ENDBRANCH  23  26
ENDBRANCH  22  23
ENDBRANCH  21  22
ENDBRANCH  19  21
ENDBRANCH  18  19
ENDBRANCH   1  18
TORSDOF 9
