REMARK  Name = ZINCvU0000000Hh5.0
REMARK                            x       y       z     vdW  Elec       q    Type
REMARK                         _______ _______ _______ _____ _____    ______ ____
ROOT
ATOM      1  N   LIG    1        4.672  -0.022   0.845  0.00  0.00    -0.720 N 
ATOM      2  H   LIG    1        5.298   0.624   0.481  0.00  0.00    +0.400 HD
ATOM      3  C   LIG    1        4.679  -0.297   2.165  0.00  0.00    +0.570 C 
ATOM      4  O   LIG    1        3.894  -1.106   2.621  0.00  0.00    -0.540 OA
ENDROOT
BRANCH   3   5
ATOM      5  C   LIG    1        5.638   0.384   3.055  0.00  0.00    -0.170 A 
ATOM      6  C   LIG    1        6.612   1.231   2.522  0.00  0.00    +0.060 A 
ATOM      7  C   LIG    1        7.502   1.868   3.360  0.00  0.00    -0.010 A 
ATOM      8  C   LIG    1        7.443   1.664   4.729  0.00  0.00    +0.060 A 
ATOM      9  C   LIG    1        6.489   0.826   5.270  0.00  0.00    +0.010 A 
ATOM     10  C   LIG    1        5.580   0.180   4.442  0.00  0.00    +0.210 A 
BRANCH  10  11
ATOM     11  N   LIG    1        4.618  -0.666   4.986  0.00  0.00    -0.650 N 
ATOM     12  H   LIG    1        4.341  -1.460   4.502  0.00  0.00    +0.430 HD
ATOM     13  C   LIG    1        4.071  -0.383   6.184  0.00  0.00    +0.610 C 
ATOM     14  O   LIG    1        4.346   0.660   6.748  0.00  0.00    -0.500 OA
BRANCH  13  15
ATOM     15  C   LIG    1        3.144  -1.331   6.810  0.00  0.00    -0.090 A 
ATOM     16  C   LIG    1        2.527  -1.172   8.017  0.00  0.00    +0.050 A 
ATOM     17  C   LIG    1        1.734  -2.312   8.219  0.00  0.00    -0.070 A 
ATOM     18  C   LIG    1        1.906  -3.112   7.143  0.00  0.00    +0.210 A 
ATOM     19  O   LIG    1        2.757  -2.517   6.296  0.00  0.00    -0.160 OA
ENDBRANCH  13  15
ENDBRANCH  10  11
ENDBRANCH   3   5
BRANCH   1  20
ATOM     20  C   LIG    1        3.720  -0.698  -0.039  0.00  0.00    +0.340 C 
BRANCH  20  25
ATOM     21  C   LIG    1        5.821  -0.792  -5.421  0.00  0.00    +0.090 C 
ATOM     22  C   LIG    1        5.273  -0.768  -4.018  0.00  0.00    -0.080 A 
ATOM     23  C   LIG    1        4.614  -1.873  -3.513  0.00  0.00    +0.010 A 
ATOM     24  C   LIG    1        4.112  -1.851  -2.226  0.00  0.00    +0.030 A 
ATOM     25  C   LIG    1        4.268  -0.723  -1.442  0.00  0.00    -0.100 A 
ATOM     26  C   LIG    1        4.922   0.385  -1.949  0.00  0.00    +0.010 A 
ATOM     27  C   LIG    1        5.430   0.360  -3.234  0.00  0.00    +0.000 A 
ENDBRANCH  20  25
BRANCH  20  28
ATOM     28  C   LIG    1        2.408   0.044  -0.025  0.00  0.00    -0.090 A 
ATOM     29  C   LIG    1        1.217  -0.658  -0.020  0.00  0.00    +0.020 A 
ATOM     30  C   LIG    1        0.014   0.022  -0.007  0.00  0.00    +0.000 A 
ATOM     31  C   LIG    1        0.001   1.404   0.002  0.00  0.00    +0.000 A 
ATOM     32  C   LIG    1        1.192   2.106  -0.003  0.00  0.00    +0.000 A 
ATOM     33  C   LIG    1        2.395   1.426  -0.018  0.00  0.00    +0.020 A 
ENDBRANCH  20  28
ENDBRANCH   1  20
TORSDOF 6
