REMARK  Name = ZINCkj000005fJv4.0
REMARK                            x       y       z     vdW  Elec       q    Type
REMARK                         _______ _______ _______ _____ _____    ______ ____
ROOT
ATOM      1  N   LIG    1       -3.143   0.590   1.602  0.00  0.00    -0.990 NA
ENDROOT
BRANCH   1   2
ATOM      2  C   LIG    1       -3.923   1.564   2.371  0.00  0.00    +0.280 C 
ATOM      3  C   LIG    1       -3.211   2.932   2.381  0.00  0.00    +0.040 C 
ATOM      4  C   LIG    1       -4.200   3.904   1.701  0.00  0.00    +0.280 C 
ATOM      5  N   LIG    1       -5.532   3.273   1.888  0.00  0.00    -0.510 N 
ATOM      6  H   LIG    1       -6.185   3.618   1.200  0.00  0.00    +0.440 HD
ATOM      7  H   LIG    1       -5.876   3.445   2.821  0.00  0.00    +0.430 HD
ATOM      8  C   LIG    1       -5.282   1.823   1.685  0.00  0.00    +0.270 C 
ENDBRANCH   1   2
BRANCH   1   9
ATOM      9  S   LIG    1       -2.699   0.931   0.044  0.00  0.00    +2.690 S 
ATOM     10  O   LIG    1       -2.675  -0.311  -0.647  0.00  0.00    -0.930 OA
ATOM     11  O   LIG    1       -3.494   2.034  -0.368  0.00  0.00    -0.960 OA
BRANCH   9  12
ATOM     12  C   LIG    1       -1.034   1.507   0.089  0.00  0.00    -0.690 A 
ATOM     13  C   LIG    1       -0.775   2.857   0.247  0.00  0.00    +0.130 A 
ATOM     14  C   LIG    1        0.529   3.318   0.278  0.00  0.00    +0.020 A 
ATOM     15  C   LIG    1        1.580   2.434   0.159  0.00  0.00    +0.140 A 
ATOM     16  C   LIG    1        1.326   1.069   0.006  0.00  0.00    -0.020 A 
ATOM     17  C   LIG    1        0.008   0.610  -0.026  0.00  0.00    +0.180 A 
BRANCH  16  18
ATOM     18  C   LIG    1        2.413   0.145  -0.119  0.00  0.00    +0.230 C 
ATOM     19  N   LIG    1        3.275  -0.588  -0.218  0.00  0.00    -0.380 NA
ENDBRANCH  16  18
ENDBRANCH   9  12
ENDBRANCH   1   9
BRANCH   1  20
ATOM     20  C   LIG    1       -2.756  -0.684   2.213  0.00  0.00    +0.300 C 
BRANCH  20  22
ATOM     21  C   LIG    1       -1.174  -1.779   3.807  0.00  0.00    +0.020 C 
ATOM     22  C   LIG    1       -1.506  -0.479   3.071  0.00  0.00    -0.010 C 
ENDBRANCH  20  22
ENDBRANCH   1  20
TORSDOF 6
