REMARK  Name = ZINCrH00000tj17Q.0
REMARK                            x       y       z     vdW  Elec       q    Type
REMARK                         _______ _______ _______ _____ _____    ______ ____
ROOT
ATOM      1  N   LIG    1        3.794   2.562  -1.370  0.00  0.00    -0.660 N 
ATOM      2  H   LIG    1        4.469   2.302  -2.016  0.00  0.00    +0.400 HD
ENDROOT
BRANCH   1   3
ATOM      3  C   LIG    1        2.963   3.589  -1.639  0.00  0.00    +0.520 C 
ATOM      4  S   LIG    1        1.771   4.047  -0.499  0.00  0.00    -0.510 S 
BRANCH   3   7
ATOM      5  O   LIG    1        1.398   5.610  -2.263  0.00  0.00    -0.370 OA
ATOM      6  C   LIG    1        2.244   5.285  -3.073  0.00  0.00    +0.530 C 
ATOM      7  N   LIG    1        3.071   4.255  -2.806  0.00  0.00    -0.640 N 
ATOM      8  H   LIG    1        3.746   3.995  -3.452  0.00  0.00    +0.410 HD
BRANCH   6   9
ATOM      9  C   LIG    1        2.366   6.018  -4.348  0.00  0.00    -0.130 A 
ATOM     10  C   LIG    1        3.341   5.651  -5.278  0.00  0.00    +0.070 A 
ATOM     11  C   LIG    1        3.447   6.336  -6.469  0.00  0.00    +0.040 A 
ATOM     12  C   LIG    1        2.596   7.395  -6.742  0.00  0.00    +0.000 A 
ATOM     13  C   LIG    1        1.630   7.769  -5.823  0.00  0.00    +0.050 A 
ATOM     14 CL   LIG    1        2.741   8.256  -8.242  0.00  0.00    -0.040 Cl
ATOM     15  C   LIG    1        1.510   7.087  -4.628  0.00  0.00    +0.030 A 
ATOM     16 CL   LIG    1        0.299   7.557  -3.476  0.00  0.00    -0.010 Cl
ENDBRANCH   6   9
ENDBRANCH   3   7
ENDBRANCH   1   3
BRANCH   1  17
ATOM     17  C   LIG    1        3.677   1.838  -0.102  0.00  0.00    +0.330 C 
BRANCH  17  18
ATOM     18  C   LIG    1        4.678   0.681  -0.080  0.00  0.00    +0.230 C 
BRANCH  18  19
ATOM     19  N   LIG    1        4.487  -0.154  -1.274  0.00  0.00    -0.540 NA
ATOM     20  C   LIG    1        3.108  -0.659  -1.348  0.00  0.00    +0.150 C 
ATOM     21  C   LIG    1        2.937  -1.472  -2.634  0.00  0.00    +0.230 C 
ATOM     22  O   LIG    1        3.902  -2.527  -2.657  0.00  0.00    -0.380 OA
ATOM     23  C   LIG    1        5.256  -2.071  -2.587  0.00  0.00    +0.220 C 
ATOM     24  C   LIG    1        5.450  -1.263  -1.300  0.00  0.00    +0.160 C 
ENDBRANCH  18  19
BRANCH  18  25
ATOM     25  C   LIG    1        6.081   1.231  -0.071  0.00  0.00    -0.190 A 
ATOM     26  C   LIG    1        6.853   1.350   1.010  0.00  0.00    +0.020 A 
ATOM     27  C   LIG    1        8.109   1.881   0.774  0.00  0.00    +0.010 A 
ATOM     28  C   LIG    1        8.354   2.201  -0.498  0.00  0.00    -0.040 A 
ATOM     29  S   LIG    1        6.948   1.820  -1.483  0.00  0.00    +0.110 S 
ENDBRANCH  18  25
ENDBRANCH  17  18
ENDBRANCH   1  17
TORSDOF 7
