REMARK  Name = ZINCqH0000004yCv.0
REMARK                            x       y       z     vdW  Elec       q    Type
REMARK                         _______ _______ _______ _____ _____    ______ ____
ROOT
ATOM      1  C   LIG    1       -1.124   1.862   0.017  0.00  0.00    +0.330 A 
ATOM      2  C   LIG    1       -0.013   1.076   0.008  0.00  0.00    -0.080 A 
ATOM      3  C   LIG    1        1.106   1.914   0.002  0.00  0.00    +0.110 A 
ATOM      4  N   LIG    1        0.694   3.156   0.012  0.00  0.00    -0.280 NA
ATOM      5  N   LIG    1       -0.707   3.158   0.026  0.00  0.00    -0.340 N 
ENDROOT
BRANCH   1   9
ATOM      6  N   LIG    1       -3.995  -0.326   0.015  0.00  0.00    -0.640 N 
ATOM      7  H   LIG    1       -4.721   0.318   0.021  0.00  0.00    +0.420 HD
ATOM      8  C   LIG    1       -2.717   0.101   0.013  0.00  0.00    +0.710 C 
ATOM      9  N   LIG    1       -2.447   1.421   0.019  0.00  0.00    -0.660 N 
ATOM     10  H   LIG    1       -3.172   2.064   0.025  0.00  0.00    +0.410 HD
ATOM     11  O   LIG    1       -1.807  -0.706   0.005  0.00  0.00    -0.510 OA
BRANCH   6  17
ATOM     12  C   LIG    1       -5.555  -2.279   0.010  0.00  0.00    -0.250 A 
ATOM     13  C   LIG    1       -5.401  -3.623   0.001  0.00  0.00    +0.260 A 
ATOM     14  N   LIG    1       -4.077  -3.888  -0.006  0.00  0.00    -0.470 N 
ATOM     15  H   LIG    1       -3.673  -4.769  -0.013  0.00  0.00    +0.450 HD
ATOM     16  N   LIG    1       -3.390  -2.667  -0.006  0.00  0.00    -0.270 NA
ATOM     17  C   LIG    1       -4.276  -1.699   0.008  0.00  0.00    +0.320 A 
BRANCH  12  19
ATOM     18  C   LIG    1       -7.253  -1.168  -1.415  0.00  0.00    +0.020 C 
ATOM     19  C   LIG    1       -6.866  -1.537   0.019  0.00  0.00    +0.080 C 
ENDBRANCH  12  19
ENDBRANCH   6  17
ENDBRANCH   1   9
BRANCH   5  20
ATOM     20  C   LIG    1       -1.532   4.291   0.039  0.00  0.00    +0.160 A 
ATOM     21  C   LIG    1       -2.740   4.279  -0.644  0.00  0.00    -0.030 A 
ATOM     22  C   LIG    1       -3.553   5.396  -0.625  0.00  0.00    +0.040 A 
ATOM     23  C   LIG    1       -3.159   6.528   0.065  0.00  0.00    +0.010 A 
ATOM     24  C   LIG    1       -1.953   6.544   0.741  0.00  0.00    +0.040 A 
ATOM     25  C   LIG    1       -1.139   5.429   0.730  0.00  0.00    +0.030 A 
ENDBRANCH   5  20
BRANCH   3  26
ATOM     26  C   LIG    1        2.544   1.463  -0.015  0.00  0.00    +0.170 C 
BRANCH  26  27
ATOM     27  C   LIG    1        3.266   2.107  -1.200  0.00  0.00    -0.040 C 
ATOM     28  C   LIG    1        3.802   1.177  -2.291  0.00  0.00    +0.010 C 
ATOM     29  C   LIG    1        4.772   1.865  -1.326  0.00  0.00    +0.010 C 
ENDBRANCH  26  27
ENDBRANCH   3  26
TORSDOF 6
