REMARK  Name = ZINCqH00000085I8.0
REMARK                            x       y       z     vdW  Elec       q    Type
REMARK                         _______ _______ _______ _____ _____    ______ ____
ROOT
ATOM      1  N   LIG    1        2.957  -1.326   4.974  0.00  0.00    -0.560 N 
ATOM      2  C   LIG    1        3.587  -0.333   5.852  0.00  0.00    +0.310 C 
ATOM      3  C   LIG    1        3.831  -1.066   7.192  0.00  0.00    +0.010 C 
ATOM      4  C   LIG    1        3.926  -2.539   6.731  0.00  0.00    +0.090 C 
ATOM      5  C   LIG    1        3.139  -2.574   5.439  0.00  0.00    +0.520 C 
ATOM      6  O   LIG    1        2.733  -3.582   4.900  0.00  0.00    -0.500 OA
ENDROOT
BRANCH   1  10
ATOM      7  C   LIG    1        0.880  -0.397   1.478  0.00  0.00    -0.110 A 
ATOM      8  C   LIG    1        1.339   0.621   2.305  0.00  0.00    +0.030 A 
ATOM      9  C   LIG    1        2.022   0.313   3.465  0.00  0.00    -0.010 A 
ATOM     10  C   LIG    1        2.259  -1.014   3.799  0.00  0.00    +0.160 A 
ATOM     11  C   LIG    1        1.806  -2.031   2.970  0.00  0.00    +0.030 A 
ATOM     12  C   LIG    1        1.118  -1.724   1.813  0.00  0.00    +0.060 A 
BRANCH   7  14
ATOM     13  C   LIG    1       -0.042   1.809   0.024  0.00  0.00    +0.120 C 
ATOM     14  S   LIG    1        0.002  -0.004   0.002  0.00  0.00    -0.120 S 
ENDBRANCH   7  14
ENDBRANCH   1  10
BRANCH   3  15
ATOM     15  C   LIG    1        5.122  -0.614   7.823  0.00  0.00    +0.520 C 
ATOM     16  N   LIG    1        5.580  -1.226   8.934  0.00  0.00    -0.630 N 
ATOM     17  H   LIG    1        5.078  -1.957   9.326  0.00  0.00    +0.420 HD
ATOM     18  O   LIG    1        5.750   0.300   7.332  0.00  0.00    -0.460 OA
BRANCH  16  19
ATOM     19  C   LIG    1        6.771  -0.809   9.516  0.00  0.00    +0.260 A 
ATOM     20  N   LIG    1        7.518   0.148   9.071  0.00  0.00    -0.470 NA
ATOM     21  C   LIG    1        8.626   0.429   9.745  0.00  0.00    +0.090 A 
ATOM     22  C   LIG    1        8.810  -0.361  10.817  0.00  0.00    -0.240 A 
ATOM     23  C   LIG    1        9.981  -0.282  11.767  0.00  0.00    +0.120 C 
ATOM     24  C   LIG    1       11.094   0.539  11.105  0.00  0.00    +0.030 C 
ATOM     25  C   LIG    1       10.496   1.840  10.561  0.00  0.00    +0.030 C 
ATOM     26  C   LIG    1        9.606   1.526   9.356  0.00  0.00    +0.130 C 
ATOM     27  S   LIG    1        7.467  -1.492  10.919  0.00  0.00    +0.120 S 
ENDBRANCH  16  19
ENDBRANCH   3  15
TORSDOF 4
