REMARK  Name = ZINCvU0000000Her.0
REMARK                            x       y       z     vdW  Elec       q    Type
REMARK                         _______ _______ _______ _____ _____    ______ ____
ROOT
ATOM      1  O   LIG    1        5.290  -1.510   0.086  0.00  0.00    -0.490 OA
ATOM      2  C   LIG    1        6.200  -0.783  -0.251  0.00  0.00    +0.530 C 
ATOM      3  N   LIG    1        7.430  -1.294  -0.460  0.00  0.00    -0.670 N 
ATOM      4  H   LIG    1        8.142  -0.724  -0.789  0.00  0.00    +0.410 HD
ENDROOT
BRANCH   2   5
ATOM      5  C   LIG    1        5.957   0.693  -0.434  0.00  0.00    +0.220 C 
ATOM      6  C   LIG    1        5.376   1.282   0.856  0.00  0.00    +0.040 C 
ATOM      7  C   LIG    1        5.002   2.747   0.619  0.00  0.00    +0.030 C 
ATOM      8  C   LIG    1        3.934   2.832  -0.474  0.00  0.00    +0.010 C 
ATOM      9  C   LIG    1        4.502   2.262  -1.782  0.00  0.00    +0.270 C 
ATOM     10  N   LIG    1        4.994   0.901  -1.524  0.00  0.00    -0.600 N 
ATOM     11  C   LIG    1        4.574  -0.135  -2.277  0.00  0.00    +0.590 C 
ATOM     12  O   LIG    1        4.945  -1.264  -2.018  0.00  0.00    -0.490 OA
BRANCH  11  13
ATOM     13  C   LIG    1        3.670   0.099  -3.407  0.00  0.00    -0.260 A 
ATOM     14  C   LIG    1        3.878  -0.324  -4.689  0.00  0.00    +0.090 A 
ATOM     15  C   LIG    1        2.869   0.034  -5.551  0.00  0.00    +0.010 A 
ATOM     16  C   LIG    1        1.868   0.726  -4.996  0.00  0.00    -0.070 A 
ATOM     17  S   LIG    1        2.145   0.971  -3.330  0.00  0.00    +0.220 S 
ENDBRANCH  11  13
ENDBRANCH   2   5
BRANCH   3  18
ATOM     18  C   LIG    1        7.678  -2.644  -0.203  0.00  0.00    +0.190 A 
ATOM     19  C   LIG    1        7.020  -3.283   0.842  0.00  0.00    +0.010 A 
ATOM     20  C   LIG    1        7.259  -4.616   1.096  0.00  0.00    +0.080 A 
ATOM     21  C   LIG    1        8.170  -5.322   0.308  0.00  0.00    -0.060 A 
ATOM     22  C   LIG    1        8.833  -4.676  -0.738  0.00  0.00    +0.100 A 
ATOM     23  C   LIG    1        8.586  -3.344  -0.989  0.00  0.00    -0.010 A 
BRANCH  21  24
ATOM     24  C   LIG    1        8.433  -6.750   0.580  0.00  0.00    +0.300 A 
ATOM     25  N   LIG    1        9.261  -7.504  -0.098  0.00  0.00    -0.480 NA
ATOM     26  C   LIG    1        9.250  -8.753   0.433  0.00  0.00    +0.030 A 
ATOM     27  C   LIG    1        9.921  -9.938   0.125  0.00  0.00    +0.080 A 
ATOM     28  C   LIG    1        9.682 -11.072   0.869  0.00  0.00    +0.020 A 
ATOM     29  C   LIG    1        8.780 -11.044   1.922  0.00  0.00    +0.050 A 
ATOM     30  C   LIG    1        8.109  -9.880   2.238  0.00  0.00    +0.050 A 
ATOM     31  C   LIG    1        8.337  -8.729   1.500  0.00  0.00    +0.010 A 
ATOM     32  O   LIG    1        7.851  -7.469   1.559  0.00  0.00    -0.210 OA
ENDBRANCH  21  24
ENDBRANCH   3  18
TORSDOF 4
