REMARK  Name = ZINCvU0000000GGs.0
REMARK                            x       y       z     vdW  Elec       q    Type
REMARK                         _______ _______ _______ _____ _____    ______ ____
ROOT
ATOM      1  N   LIG    1        5.250  -0.511  -2.530  0.00  0.00    -0.510 N 
ATOM      2  C   LIG    1        6.416  -1.160  -2.345  0.00  0.00    +0.560 A 
ATOM      3  C   LIG    1        6.863  -1.411  -1.015  0.00  0.00    -0.230 A 
ATOM      4  C   LIG    1        6.069  -0.964   0.037  0.00  0.00    +0.090 A 
ATOM      5  S   LIG    1        6.819  -1.384   1.572  0.00  0.00    +0.210 S 
ATOM      6  C   LIG    1        8.182  -2.150   0.779  0.00  0.00    -0.050 A 
ATOM      7  N   LIG    1        4.916  -0.317  -0.226  0.00  0.00    -0.510 NA
ATOM      8  C   LIG    1        8.067  -2.086  -0.546  0.00  0.00    +0.010 A 
ATOM      9  O   LIG    1        7.076  -1.532  -3.300  0.00  0.00    -0.500 OA
ATOM     10  C   LIG    1        4.518  -0.094  -1.456  0.00  0.00    +0.370 A 
ENDROOT
BRANCH   8  11
ATOM     11  C   LIG    1        9.078  -2.656  -1.468  0.00  0.00    -0.050 A 
ATOM     12  C   LIG    1        8.683  -3.499  -2.506  0.00  0.00    +0.060 A 
ATOM     13  C   LIG    1        9.628  -4.022  -3.365  0.00  0.00    +0.000 A 
ATOM     14  C   LIG    1       10.967  -3.719  -3.191  0.00  0.00    -0.080 A 
ATOM     15  C   LIG    1       11.366  -2.888  -2.159  0.00  0.00    -0.010 A 
ATOM     16  C   LIG    1       11.995  -4.298  -4.128  0.00  0.00    +0.090 C 
ATOM     17  C   LIG    1       10.429  -2.355  -1.298  0.00  0.00    +0.020 A 
ENDBRANCH   8  11
BRANCH   1  18
ATOM     18  C   LIG    1        4.768  -0.248  -3.888  0.00  0.00    +0.340 C 
BRANCH  18  20
ATOM     19  C   LIG    1        5.972   1.155  -5.482  0.00  0.00    +0.070 C 
ATOM     20  C   LIG    1        5.299   1.080  -4.361  0.00  0.00    -0.070 C 
ENDBRANCH  18  20
ENDBRANCH   1  18
BRANCH  10  21
ATOM     21  S   LIG    1        3.000   0.758  -1.728  0.00  0.00    +0.020 S 
BRANCH  21  22
ATOM     22  C   LIG    1        2.490   1.046  -0.015  0.00  0.00    +0.170 C 
BRANCH  22  23
ATOM     23  C   LIG    1        1.176   1.783   0.000  0.00  0.00    -0.080 A 
ATOM     24  C   LIG    1        1.161   3.165   0.007  0.00  0.00    +0.060 A 
ATOM     25  C   LIG    1       -0.043   3.846   0.022  0.00  0.00    +0.040 A 
ATOM     26  C   LIG    1       -1.236   3.145   0.030  0.00  0.00    +0.040 A 
ATOM     27  O   LIG    1       -2.534   3.567   0.044  0.00  0.00    -0.310 OA
ATOM     28  C   LIG    1       -3.306   2.424   0.458  0.00  0.00    +0.440 C 
ATOM     29  O   LIG    1       -2.510   1.302   0.033  0.00  0.00    -0.310 OA
ATOM     30  C   LIG    1       -1.222   1.752   0.017  0.00  0.00    +0.030 A 
ATOM     31  C   LIG    1       -0.013   1.076   0.008  0.00  0.00    +0.060 A 
ENDBRANCH  22  23
ENDBRANCH  21  22
ENDBRANCH  10  21
TORSDOF 6
