REMARK  Name = ZINCrg000000sefN.0
REMARK                            x       y       z     vdW  Elec       q    Type
REMARK                         _______ _______ _______ _____ _____    ______ ____
ROOT
ATOM      1  N   LIG    1       -5.287  -1.294   0.236  0.00  0.00    -0.740 N 
ATOM      2  H   LIG    1       -4.927  -1.896  -0.434  0.00  0.00    +0.400 HD
ATOM      3  C   LIG    1       -6.367  -1.656   0.957  0.00  0.00    +0.710 C 
ATOM      4  N   LIG    1       -6.946  -2.855   0.747  0.00  0.00    -0.750 N 
ATOM      5  H   LIG    1       -6.586  -3.457   0.077  0.00  0.00    +0.400 HD
ATOM      6  O   LIG    1       -6.818  -0.901   1.797  0.00  0.00    -0.580 OA
ENDROOT
BRANCH   1  17
ATOM      7  C   LIG    1        2.473   1.036  -0.015  0.00  0.00    +0.080 C 
ATOM      8  C   LIG    1        1.160   1.777   0.001  0.00  0.00    -0.110 A 
ATOM      9  C   LIG    1        1.153   3.164   0.007  0.00  0.00    +0.030 A 
ATOM     10  C   LIG    1       -0.037   3.860   0.021  0.00  0.00    +0.000 A 
ATOM     11  C   LIG    1       -1.243   3.168   0.028  0.00  0.00    +0.090 A 
ATOM     12  N   LIG    1       -2.562   3.564   0.041  0.00  0.00    -0.590 N 
ATOM     13  H   LIG    1       -2.866   4.485   0.046  0.00  0.00    +0.410 HD
ATOM     14  C   LIG    1       -3.378   2.469   0.046  0.00  0.00    +0.090 A 
ATOM     15  C   LIG    1       -2.631   1.348   0.035  0.00  0.00    -0.170 A 
ATOM     16  C   LIG    1       -3.185  -0.053   0.038  0.00  0.00    +0.100 C 
ATOM     17  C   LIG    1       -4.657   0.009   0.464  0.00  0.00    +0.260 C 
ATOM     18  C   LIG    1       -5.379   1.077  -0.361  0.00  0.00    +0.030 C 
ATOM     19  C   LIG    1       -4.890   2.467   0.060  0.00  0.00    +0.120 C 
ATOM     20  C   LIG    1       -1.230   1.759   0.017  0.00  0.00    -0.090 A 
ATOM     21  C   LIG    1       -0.013   1.076   0.008  0.00  0.00    +0.050 A 
ENDBRANCH   1  17
BRANCH   4  22
ATOM     22  C   LIG    1       -8.120  -3.248   1.531  0.00  0.00    +0.290 C 
BRANCH  22  23
ATOM     23  C   LIG    1       -8.578  -4.643   1.099  0.00  0.00    +0.180 C 
BRANCH  23  24
ATOM     24  N   LIG    1       -9.754  -5.037   1.884  0.00  0.00    -0.530 NA
ATOM     25  C   LIG    1      -10.095  -6.450   1.650  0.00  0.00    +0.180 C 
ATOM     26  C   LIG    1      -11.113  -6.891   2.704  0.00  0.00    +0.270 C 
ATOM     27  N   LIG    1      -12.217  -5.937   2.763  0.00  0.00    -0.720 N 
ATOM     28  H   LIG    1      -13.048  -6.215   3.180  0.00  0.00    +0.400 HD
ATOM     29  C   LIG    1      -12.133  -4.697   2.270  0.00  0.00    +0.530 C 
ATOM     30  O   LIG    1      -13.088  -3.958   2.390  0.00  0.00    -0.550 OA
ATOM     31  C   LIG    1      -10.906  -4.180   1.574  0.00  0.00    +0.230 C 
ENDBRANCH  23  24
ENDBRANCH  22  23
ENDBRANCH   4  22
TORSDOF 4
