REMARK  Name = ZINCnE000001QX3V.0
REMARK                            x       y       z     vdW  Elec       q    Type
REMARK                         _______ _______ _______ _____ _____    ______ ____
ROOT
ATOM      1  C   LIG    1       -4.500   0.094   0.024  0.00  0.00    -0.040 A 
ATOM      2  C   LIG    1       -4.830   1.429   0.033  0.00  0.00    +0.090 A 
ATOM      3  C   LIG    1       -3.627   2.163   0.031  0.00  0.00    -0.260 A 
ATOM      4  C   LIG    1       -2.585   1.262   0.021  0.00  0.00    +0.140 A 
ATOM      5  C   LIG    1       -1.293   1.935   0.019  0.00  0.00    -0.150 A 
ATOM      6  C   LIG    1       -1.388   3.291   0.032  0.00  0.00    -0.150 A 
ATOM      7  C   LIG    1       -0.203   4.222   0.039  0.00  0.00    +0.150 C 
ATOM      8  S   LIG    1       -3.009   3.808   0.037  0.00  0.00    +0.140 S 
ATOM      9  N   LIG    1       -3.125  -0.011   0.017  0.00  0.00    -0.530 N 
ATOM     10  H   LIG    1       -2.621  -0.840   0.010  0.00  0.00    +0.420 HD
ENDROOT
BRANCH   1  13
ATOM     11  N   LIG    1       -4.991  -2.292   0.014  0.00  0.00    -0.730 N 
ATOM     12  H   LIG    1       -4.036  -2.465   0.009  0.00  0.00    +0.400 HD
ATOM     13  C   LIG    1       -5.446  -1.024   0.023  0.00  0.00    +0.600 C 
ATOM     14  O   LIG    1       -6.644  -0.807   0.030  0.00  0.00    -0.530 OA
BRANCH  11  15
ATOM     15  C   LIG    1       -5.937  -3.410   0.013  0.00  0.00    +0.340 C 
ATOM     16  C   LIG    1       -6.356  -3.726   1.450  0.00  0.00    +0.040 C 
BRANCH  15  21
ATOM     17  C   LIG    1       -2.821  -7.510  -1.717  0.00  0.00    +0.180 C 
ATOM     18  C   LIG    1       -3.865  -6.478  -1.377  0.00  0.00    +0.050 A 
ATOM     19  N   LIG    1       -5.075  -6.477  -1.823  0.00  0.00    -0.470 NA
ATOM     20  C   LIG    1       -5.862  -5.497  -1.425  0.00  0.00    +0.230 A 
ATOM     21  C   LIG    1       -5.282  -4.623  -0.597  0.00  0.00    -0.240 A 
ATOM     22  S   LIG    1       -3.614  -5.134  -0.350  0.00  0.00    +0.140 S 
ENDBRANCH  15  21
ENDBRANCH  11  15
ENDBRANCH   1  13
BRANCH   5  23
ATOM     23  C   LIG    1       -0.015   1.220   0.009  0.00  0.00    +0.540 C 
ATOM     24  O   LIG    1        1.037   1.847   0.002  0.00  0.00    -0.670 OA
ATOM     25  O   LIG    1        0.002  -0.004   0.002  0.00  0.00    -0.690 OA
ENDBRANCH   5  23
TORSDOF 4
