REMARK  Name = ZINCrD00000hQ434.0
REMARK                            x       y       z     vdW  Elec       q    Type
REMARK                         _______ _______ _______ _____ _____    ______ ____
ROOT
ATOM      1  C   LIG    1       -3.752   3.661   4.658  0.00  0.00    +0.250 C 
ENDROOT
BRANCH   1   3
ATOM      2  C   LIG    1       -1.968   2.434   3.539  0.00  0.00    +0.560 C 
ATOM      3  N   LIG    1       -2.545   2.831   4.691  0.00  0.00    -0.720 N 
ATOM      4  H   LIG    1       -2.160   2.568   5.542  0.00  0.00    +0.400 HD
ATOM      5  O   LIG    1       -2.450   2.764   2.473  0.00  0.00    -0.510 OA
BRANCH   2  12
ATOM      6  C   LIG    1       -0.150   1.183   2.377  0.00  0.00    +0.190 A 
ATOM      7  C   LIG    1        0.990   0.393   2.421  0.00  0.00    -0.090 A 
ATOM      8  C   LIG    1        1.533   0.028   3.637  0.00  0.00    -0.020 A 
ATOM      9  C   LIG    1        0.940   0.437   4.820  0.00  0.00    -0.040 A 
ATOM     10  C   LIG    1       -0.196   1.217   4.796  0.00  0.00    +0.090 A 
ATOM     11  C   LIG    1        2.775  -0.825   3.676  0.00  0.00    +0.100 C 
ATOM     12  C   LIG    1       -0.753   1.598   3.573  0.00  0.00    -0.180 A 
BRANCH   6  14
ATOM     13  C   LIG    1       -0.013   1.086   0.008  0.00  0.00    +0.240 C 
ATOM     14  O   LIG    1       -0.682   1.547   1.184  0.00  0.00    -0.280 OA
ENDBRANCH   6  14
ENDBRANCH   2  12
ENDBRANCH   1   3
BRANCH   1  15
ATOM     15  C   LIG    1       -4.984   2.764   4.522  0.00  0.00    -0.030 C 
ATOM     16  C   LIG    1       -5.053   1.809   5.715  0.00  0.00    +0.000 C 
ATOM     17  C   LIG    1       -4.885   1.955   3.227  0.00  0.00    +0.010 C 
ENDBRANCH   1  15
BRANCH   1  18
ATOM     18  C   LIG    1       -3.850   4.470   5.953  0.00  0.00    +0.020 C 
BRANCH  18  19
ATOM     19  C   LIG    1       -2.683   5.456   6.028  0.00  0.00    +0.300 C 
BRANCH  19  20
ATOM     20  N   LIG    1       -2.778   6.230   7.268  0.00  0.00    -0.590 N 
ATOM     21  C   LIG    1       -3.524   7.491   7.290  0.00  0.00    +0.300 C 
BRANCH  20  22
ATOM     22  C   LIG    1       -2.162   5.771   8.419  0.00  0.00    +0.570 A 
ATOM     23  N   LIG    1       -1.491   4.630   8.383  0.00  0.00    -0.570 NA
ATOM     24  C   LIG    1       -0.890   4.163   9.465  0.00  0.00    +0.360 A 
ATOM     25  C   LIG    1       -0.970   4.883  10.646  0.00  0.00    -0.150 A 
ATOM     26  C   LIG    1       -1.680   6.074  10.650  0.00  0.00    +0.220 A 
ATOM     27  C   LIG    1       -1.793   6.891  11.911  0.00  0.00    +0.140 C 
ATOM     28  N   LIG    1       -2.253   6.487   9.531  0.00  0.00    -0.570 NA
ENDBRANCH  20  22
ENDBRANCH  19  20
ENDBRANCH  18  19
ENDBRANCH   1  18
TORSDOF 8
