REMARK  Name = ZINCtV000002K7lJ.0
REMARK                            x       y       z     vdW  Elec       q    Type
REMARK                         _______ _______ _______ _____ _____    ______ ____
ROOT
ATOM      1  C   LIG    1       -2.735  -0.225   5.633  0.00  0.00    +0.100 C 
ENDROOT
BRANCH   1   2
ATOM      2  C   LIG    1       -3.162   0.161   4.240  0.00  0.00    +0.550 C 
ATOM      3  N   LIG    1       -2.661   1.272   3.666  0.00  0.00    -0.560 N 
ATOM      4  C   LIG    1       -3.065   1.666   2.307  0.00  0.00    +0.300 C 
ATOM      5  C   LIG    1       -2.158   1.057   1.272  0.00  0.00    +0.030 C 
ATOM      6  C   LIG    1       -0.729   1.579   1.267  0.00  0.00    +0.030 C 
ATOM      7  S   LIG    1        0.157   0.983   2.736  0.00  0.00    -0.150 S 
ATOM      8  C   LIG    1       -0.404   2.114   3.986  0.00  0.00    -0.100 A 
ATOM      9  C   LIG    1        0.478   2.996   4.581  0.00  0.00    +0.080 A 
ATOM     10  C   LIG    1        0.019   3.847   5.573  0.00  0.00    +0.020 A 
ATOM     11  C   LIG    1       -1.307   3.801   5.962  0.00  0.00    +0.040 A 
ATOM     12  C   LIG    1       -2.190   2.924   5.359  0.00  0.00    +0.010 A 
ATOM     13  C   LIG    1       -0.013   1.086   0.008  0.00  0.00    +0.070 C 
ATOM     14  C   LIG    1       -1.743   2.082   4.348  0.00  0.00    +0.150 A 
ATOM     15  O   LIG    1       -3.956  -0.529   3.636  0.00  0.00    -0.510 OA
ENDBRANCH   1   2
BRANCH   1  16
ATOM     16  S   LIG    1       -3.575  -1.753   6.120  0.00  0.00    +0.060 S 
BRANCH  16  21
ATOM     17  C   LIG    1       -0.825  -1.013  10.545  0.00  0.00    +0.140 C 
ATOM     18  C   LIG    1       -1.769  -1.640   9.551  0.00  0.00    +0.010 A 
ATOM     19  C   LIG    1       -2.474  -2.768   9.741  0.00  0.00    -0.020 A 
ATOM     20  N   LIG    1       -3.208  -2.980   8.595  0.00  0.00    -0.430 N 
ATOM     21  C   LIG    1       -2.910  -1.964   7.739  0.00  0.00    +0.180 A 
ATOM     22  C   LIG    1       -2.468  -3.634  10.974  0.00  0.00    +0.130 C 
ATOM     23  N   LIG    1       -2.049  -1.167   8.325  0.00  0.00    -0.480 NA
BRANCH  20  24
ATOM     24  C   LIG    1       -4.131  -4.089   8.344  0.00  0.00    +0.230 C 
ATOM     25  C   LIG    1       -3.653  -4.885   7.127  0.00  0.00    +0.010 C 
ATOM     26  C   LIG    1       -4.617  -6.044   6.865  0.00  0.00    +0.020 C 
ATOM     27  C   LIG    1       -6.018  -5.491   6.594  0.00  0.00    +0.010 C 
ATOM     28  C   LIG    1       -6.496  -4.695   7.811  0.00  0.00    +0.030 C 
ATOM     29  C   LIG    1       -5.532  -3.536   8.073  0.00  0.00    +0.020 C 
ENDBRANCH  20  24
ENDBRANCH  16  21
ENDBRANCH   1  16
TORSDOF 4
