REMARK  Name = ZINCvU000000068M.0
REMARK                            x       y       z     vdW  Elec       q    Type
REMARK                         _______ _______ _______ _____ _____    ______ ____
ROOT
ATOM      1  O   LIG    1        4.045   5.612  -0.562  0.00  0.00    -0.520 OA
ATOM      2  C   LIG    1        2.965   5.911  -1.027  0.00  0.00    +0.530 C 
ATOM      3  N   LIG    1        1.876   5.176  -0.727  0.00  0.00    -0.720 N 
ATOM      4  H   LIG    1        1.012   5.415  -1.099  0.00  0.00    +0.400 HD
ENDROOT
BRANCH   2   5
ATOM      5  C   LIG    1        2.843   7.102  -1.942  0.00  0.00    -0.020 C 
ATOM      6  C   LIG    1        4.216   7.755  -2.117  0.00  0.00    +0.060 C 
ATOM      7  C   LIG    1        4.086   8.985  -3.019  0.00  0.00    +0.020 C 
ATOM      8  C   LIG    1        3.577   8.551  -4.397  0.00  0.00    +0.270 C 
ATOM      9  N   LIG    1        2.329   7.795  -4.224  0.00  0.00    -0.600 N 
ATOM     10  C   LIG    1        1.214   8.149  -4.894  0.00  0.00    +0.560 C 
ATOM     11  O   LIG    1        0.207   7.475  -4.795  0.00  0.00    -0.530 OA
ATOM     12  C   LIG    1        2.320   6.647  -3.308  0.00  0.00    +0.300 C 
BRANCH  10  13
ATOM     13  C   LIG    1        1.216   9.355  -5.748  0.00  0.00    -0.120 A 
ATOM     14  C   LIG    1        0.209  10.312  -5.611  0.00  0.00    +0.080 A 
ATOM     15  C   LIG    1        0.220  11.439  -6.406  0.00  0.00    +0.030 A 
ATOM     16  C   LIG    1        1.220  11.615  -7.348  0.00  0.00    -0.020 A 
ATOM     17  C   LIG    1        2.218  10.666  -7.493  0.00  0.00    +0.030 A 
ATOM     18 CL   LIG    1        1.222  13.032  -8.351  0.00  0.00    -0.060 Cl
ATOM     19  C   LIG    1        2.221   9.538  -6.699  0.00  0.00    +0.060 A 
ENDBRANCH  10  13
ENDBRANCH   2   5
BRANCH   3  20
ATOM     20  C   LIG    1        1.995   4.018   0.162  0.00  0.00    +0.340 C 
BRANCH  20  21
ATOM     21  C   LIG    1        1.905   4.473   1.595  0.00  0.00    -0.090 A 
ATOM     22  C   LIG    1        1.006   5.461   1.952  0.00  0.00    +0.020 A 
ATOM     23  C   LIG    1        0.920   5.875   3.268  0.00  0.00    +0.000 A 
ATOM     24  C   LIG    1        1.741   5.309   4.226  0.00  0.00    +0.000 A 
ATOM     25  C   LIG    1        2.644   4.326   3.868  0.00  0.00    +0.000 A 
ATOM     26  C   LIG    1        2.726   3.908   2.553  0.00  0.00    +0.020 A 
ENDBRANCH  20  21
BRANCH  20  27
ATOM     27  C   LIG    1        0.880   3.046  -0.128  0.00  0.00    -0.090 A 
ATOM     28  C   LIG    1        1.131   1.687  -0.128  0.00  0.00    +0.020 A 
ATOM     29  C   LIG    1        0.108   0.795  -0.393  0.00  0.00    +0.020 A 
ATOM     30  C   LIG    1       -1.165   1.264  -0.662  0.00  0.00    +0.000 A 
ATOM     31  C   LIG    1       -1.416   2.623  -0.657  0.00  0.00    +0.020 A 
ATOM     32  C   LIG    1       -0.394   3.514  -0.392  0.00  0.00    +0.010 A 
ENDBRANCH  20  27
ENDBRANCH   3  20
TORSDOF 5
