REMARK  Name = ZINCkj000005heNo.2
REMARK                            x       y       z     vdW  Elec       q    Type
REMARK                         _______ _______ _______ _____ _____    ______ ____
ROOT
ATOM      1  C   LIG    1        1.272   1.723  -2.511  0.00  0.00    +0.320 C 
ATOM      2  N   LIG    1       -0.065   1.119  -2.440  0.00  0.00    -0.380 N 
ATOM      3  H   LIG    1        0.021   0.114  -2.406  0.00  0.00    +0.420 HD
ENDROOT
BRANCH   2   4
ATOM      4  C   LIG    1       -0.840   1.504  -3.627  0.00  0.00    +0.340 C 
BRANCH   4   5
ATOM      5  C   LIG    1       -0.201   0.913  -4.858  0.00  0.00    -0.090 A 
ATOM      6  C   LIG    1        0.608   1.696  -5.660  0.00  0.00    +0.070 A 
ATOM      7  C   LIG    1        1.194   1.155  -6.788  0.00  0.00    +0.100 A 
ATOM      8  C   LIG    1        0.972  -0.170  -7.115  0.00  0.00    +0.080 A 
ATOM      9  C   LIG    1        0.163  -0.953  -6.312  0.00  0.00    +0.130 A 
ATOM     10  C   LIG    1       -0.419  -0.413  -5.181  0.00  0.00    -0.030 A 
BRANCH  10  11
ATOM     11  N   LIG    1       -1.280  -1.253  -4.319  0.00  0.00    +0.020 N 
ATOM     12  O   LIG    1       -1.797  -0.776  -3.324  0.00  0.00    -0.210 OA
ATOM     13  O   LIG    1       -1.472  -2.422  -4.604  0.00  0.00    -0.090 OA
ENDBRANCH  10  11
ENDBRANCH   4   5
ENDBRANCH   2   4
BRANCH   2  14
ATOM     14  C   LIG    1       -0.753   1.593  -1.232  0.00  0.00    +0.270 C 
BRANCH  14  15
ATOM     15  C   LIG    1       -0.013   1.086   0.008  0.00  0.00    +0.190 C 
BRANCH  15  16
ATOM     16  N   LIG    1       -0.700   1.560   1.217  0.00  0.00    -0.530 NA
ATOM     17  C   LIG    1       -0.608   3.022   1.336  0.00  0.00    +0.150 C 
ATOM     18  C   LIG    1       -1.387   3.478   2.573  0.00  0.00    +0.240 C 
ATOM     19  O   LIG    1       -0.873   2.807   3.727  0.00  0.00    -0.380 OA
ATOM     20  C   LIG    1       -0.948   1.381   3.645  0.00  0.00    +0.240 C 
ATOM     21  C   LIG    1       -0.165   0.904   2.419  0.00  0.00    +0.160 C 
ENDBRANCH  15  16
ENDBRANCH  14  15
ENDBRANCH   2  14
TORSDOF 6
