REMARK  Name = ZINCkj000005heNo.1
REMARK                            x       y       z     vdW  Elec       q    Type
REMARK                         _______ _______ _______ _____ _____    ______ ____
ROOT
ATOM      1  C   LIG    1       -0.353   3.112  -1.212  0.00  0.00    +0.320 C 
ATOM      2  N   LIG    1       -0.666   1.677  -1.162  0.00  0.00    -0.380 N 
ATOM      3  H   LIG    1       -1.667   1.552  -1.138  0.00  0.00    +0.420 HD
ENDROOT
BRANCH   2   4
ATOM      4  C   LIG    1       -0.117   1.015  -2.353  0.00  0.00    +0.340 C 
BRANCH   4   5
ATOM      5  C   LIG    1       -0.836   1.512  -3.580  0.00  0.00    -0.090 A 
ATOM      6  C   LIG    1       -0.210   2.397  -4.438  0.00  0.00    +0.070 A 
ATOM      7  C   LIG    1       -0.869   2.853  -5.564  0.00  0.00    +0.100 A 
ATOM      8  C   LIG    1       -2.155   2.424  -5.832  0.00  0.00    +0.080 A 
ATOM      9  C   LIG    1       -2.782   1.539  -4.975  0.00  0.00    +0.130 A 
ATOM     10  C   LIG    1       -2.121   1.079  -3.852  0.00  0.00    -0.040 A 
BRANCH  10  11
ATOM     11  N   LIG    1       -2.790   0.127  -2.937  0.00  0.00    +0.020 N 
ATOM     12  O   LIG    1       -2.175  -0.353  -2.002  0.00  0.00    -0.210 OA
ATOM     13  O   LIG    1       -3.955  -0.176  -3.120  0.00  0.00    -0.090 OA
ENDBRANCH  10  11
ENDBRANCH   4   5
ENDBRANCH   2   4
BRANCH   2  14
ATOM     14  C   LIG    1       -0.070   1.088   0.044  0.00  0.00    +0.270 C 
BRANCH  14  15
ATOM     15  C   LIG    1       -0.731   1.690   1.286  0.00  0.00    +0.190 C 
BRANCH  15  16
ATOM     16  N   LIG    1       -0.135   1.100   2.493  0.00  0.00    -0.530 NA
ATOM     17  C   LIG    1       -0.455  -0.331   2.593  0.00  0.00    +0.160 C 
ATOM     18  C   LIG    1        0.233  -0.917   3.829  0.00  0.00    +0.230 C 
ATOM     19  O   LIG    1       -0.178  -0.188   4.988  0.00  0.00    -0.380 OA
ATOM     20  C   LIG    1        0.119   1.210   4.924  0.00  0.00    +0.230 C 
ATOM     21  C   LIG    1       -0.570   1.817   3.700  0.00  0.00    +0.160 C 
ENDBRANCH  15  16
ENDBRANCH  14  15
ENDBRANCH   2  14
TORSDOF 6
