REMARK  Name = ZINCrD000000D7vH.0
REMARK                            x       y       z     vdW  Elec       q    Type
REMARK                         _______ _______ _______ _____ _____    ______ ____
ROOT
ATOM      1  N   LIG    1        4.347  -1.064  -1.626  0.00  0.00    -1.000 NA
ATOM      2  C   LIG    1        3.924  -2.274  -2.347  0.00  0.00    +0.300 C 
ATOM      3  C   LIG    1        3.253  -1.843  -3.661  0.00  0.00    +0.170 C 
ATOM      4  N   LIG    1        4.166  -0.965  -4.405  0.00  0.00    -0.530 NA
ATOM      5  C   LIG    1        4.437   0.273  -3.663  0.00  0.00    +0.170 C 
ATOM      6  C   LIG    1        5.151  -0.068  -2.350  0.00  0.00    +0.320 C 
ENDROOT
BRANCH   1   8
ATOM      7  O   LIG    1        4.899   0.061   0.500  0.00  0.00    -0.950 OA
ATOM      8  S   LIG    1        3.934  -0.832  -0.039  0.00  0.00    +2.690 S 
ATOM      9  O   LIG    1        3.679  -2.121   0.502  0.00  0.00    -0.950 OA
BRANCH   8  10
ATOM     10  C   LIG    1        2.396   0.029  -0.021  0.00  0.00    -0.680 A 
ATOM     11  C   LIG    1        1.208  -0.679  -0.013  0.00  0.00    +0.120 A 
ATOM     12  C   LIG    1        0.002  -0.004   0.002  0.00  0.00    -0.010 A 
ATOM     13  C   LIG    1       -0.017   1.378   0.010  0.00  0.00    +0.070 A 
ATOM     14  C   LIG    1        1.171   2.086   0.002  0.00  0.00    -0.010 A 
ATOM     15  C   LIG    1        2.377   1.411  -0.015  0.00  0.00    +0.120 A 
ENDBRANCH   8  10
ENDBRANCH   1   8
BRANCH   4  16
ATOM     16  C   LIG    1        3.638  -0.671  -5.744  0.00  0.00    +0.280 C 
BRANCH  16  17
ATOM     17  C   LIG    1        3.603  -1.938  -6.560  0.00  0.00    +0.080 A 
ATOM     18  C   LIG    1        2.503  -2.692  -6.654  0.00  0.00    -0.070 A 
ATOM     19  S   LIG    1        2.867  -4.072  -7.688  0.00  0.00    +0.090 S 
ATOM     20  C   LIG    1        4.512  -3.475  -7.896  0.00  0.00    +0.120 A 
ATOM     21  N   LIG    1        4.650  -2.367  -7.227  0.00  0.00    -0.450 NA
BRANCH  20  22
ATOM     22  C   LIG    1        5.565  -4.127  -8.704  0.00  0.00    -0.030 A 
ATOM     23  C   LIG    1        6.834  -3.552  -8.795  0.00  0.00    +0.070 A 
ATOM     24  C   LIG    1        7.814  -4.168  -9.546  0.00  0.00    +0.010 A 
ATOM     25  C   LIG    1        7.538  -5.347 -10.217  0.00  0.00    +0.030 A 
ATOM     26  C   LIG    1        6.280  -5.918 -10.135  0.00  0.00    +0.010 A 
ATOM     27  C   LIG    1        5.293  -5.315  -9.383  0.00  0.00    +0.020 A 
ENDBRANCH  20  22
ENDBRANCH  16  17
ENDBRANCH   4  16
TORSDOF 5
