REMARK  Name = ZINCvU00000007DC.0
REMARK                            x       y       z     vdW  Elec       q    Type
REMARK                         _______ _______ _______ _____ _____    ______ ____
ROOT
ATOM      1  C   LIG    1        6.395   2.332   0.319  0.00  0.00    +0.230 C 
ATOM      2  C   LIG    1        7.456   1.215   0.414  0.00  0.00    +0.030 C 
ATOM      3  C   LIG    1        6.736   0.121   1.246  0.00  0.00    +0.030 C 
ATOM      4  C   LIG    1        5.277   0.260   0.749  0.00  0.00    +0.260 C 
ATOM      5  N   LIG    1        5.083   1.707   0.541  0.00  0.00    -0.610 N 
ATOM      6  C   LIG    1        3.899   2.351   0.558  0.00  0.00    +0.570 C 
ATOM      7  O   LIG    1        3.862   3.558   0.420  0.00  0.00    -0.510 OA
ENDROOT
BRANCH   6   8
ATOM      8  C   LIG    1        2.648   1.590   0.744  0.00  0.00    -0.130 A 
ATOM      9  C   LIG    1        2.630   0.210   0.530  0.00  0.00    +0.050 A 
ATOM     10  C   LIG    1        1.460  -0.499   0.704  0.00  0.00    -0.040 A 
ATOM     11  C   LIG    1        0.299   0.155   1.091  0.00  0.00    +0.130 A 
ATOM     12  C   LIG    1        0.311   1.533   1.306  0.00  0.00    +0.100 A 
ATOM     13  C   LIG    1        1.479   2.249   1.133  0.00  0.00    +0.040 A 
BRANCH  12  14
ATOM     14  O   LIG    1       -0.830   2.172   1.680  0.00  0.00    -0.300 OA
ATOM     15  C   LIG    1       -0.746   3.584   1.883  0.00  0.00    +0.240 C 
ENDBRANCH  12  14
BRANCH  11  16
ATOM     16  O   LIG    1       -0.850  -0.547   1.261  0.00  0.00    -0.300 OA
BRANCH  16  17
ATOM     17  C   LIG    1       -0.791  -1.955   1.024  0.00  0.00    +0.320 C 
BRANCH  17  18
ATOM     18  C   LIG    1       -2.150  -2.562   1.260  0.00  0.00    +0.050 A 
ATOM     19  C   LIG    1       -3.210  -1.839   1.633  0.00  0.00    -0.030 A 
ATOM     20  S   LIG    1       -4.582  -2.932   1.796  0.00  0.00    +0.130 S 
ATOM     21  C   LIG    1       -3.594  -4.253   1.346  0.00  0.00    +0.220 A 
ATOM     22  N   LIG    1       -2.392  -3.849   1.110  0.00  0.00    -0.470 NA
ENDBRANCH  17  18
ENDBRANCH  16  17
ENDBRANCH  11  16
ENDBRANCH   6   8
BRANCH   1  23
ATOM     23  C   LIG    1        6.438   2.972  -1.070  0.00  0.00    +0.020 C 
BRANCH  23  24
ATOM     24  C   LIG    1        7.830   3.478  -1.348  0.00  0.00    -0.060 A 
ATOM     25  C   LIG    1        8.394   4.435  -0.526  0.00  0.00    +0.010 A 
ATOM     26  C   LIG    1        9.673   4.895  -0.778  0.00  0.00    +0.000 A 
ATOM     27  C   LIG    1       10.384   4.405  -1.858  0.00  0.00    -0.010 A 
ATOM     28  C   LIG    1        9.818   3.452  -2.683  0.00  0.00    +0.000 A 
ATOM     29  C   LIG    1        8.540   2.988  -2.428  0.00  0.00    +0.000 A 
ENDBRANCH  23  24
BRANCH  23  31
ATOM     30  C   LIG    1        5.730   4.988  -2.366  0.00  0.00    -0.010 C 
ATOM     31  C   LIG    1        5.451   4.141  -1.123  0.00  0.00    +0.050 C 
ENDBRANCH  23  31
ENDBRANCH   1  23
TORSDOF 8
