REMARK  Name = ZINC650000003WuE.0
REMARK                            x       y       z     vdW  Elec       q    Type
REMARK                         _______ _______ _______ _____ _____    ______ ____
ROOT
ATOM      1  O   LIG    1       -2.053   3.738  -1.228  0.00  0.00    -0.510 OA
ATOM      2  C   LIG    1       -1.515   2.848  -0.603  0.00  0.00    +0.510 C 
ATOM      3  C   LIG    1       -0.826   1.630  -1.189  0.00  0.00    +0.060 C 
ATOM      4  C   LIG    1       -0.013   1.086   0.008  0.00  0.00    +0.230 C 
ATOM      5  O   LIG    1       -0.749   1.581   1.143  0.00  0.00    -0.140 OA
ATOM      6  N   LIG    1       -1.421   2.761   0.739  0.00  0.00    -0.590 N 
ATOM      7  H   LIG    1       -1.769   3.426   1.353  0.00  0.00    +0.440 HD
ENDROOT
TORSDOF 0
