REMARK  Name = ZINCrH000004vF6H.0
REMARK                            x       y       z     vdW  Elec       q    Type
REMARK                         _______ _______ _______ _____ _____    ______ ____
ROOT
ATOM      1  O   LIG    1        0.085  -7.908  -2.398  0.00  0.00    -0.540 OA
ATOM      2  C   LIG    1        1.028  -7.179  -2.150  0.00  0.00    +0.610 C 
ATOM      3  N   LIG    1        0.833  -6.034  -1.467  0.00  0.00    -0.610 N 
ATOM      4  C   LIG    1        1.974  -5.206  -1.052  0.00  0.00    +0.280 C 
ATOM      5  C   LIG    1        1.879  -4.954   0.456  0.00  0.00    +0.030 C 
ATOM      6  C   LIG    1        0.511  -4.350   0.783  0.00  0.00    +0.110 C 
ATOM      7  C   LIG    1       -0.592  -5.334   0.387  0.00  0.00    +0.030 C 
ATOM      8  C   LIG    1       -0.525  -5.589  -1.122  0.00  0.00    +0.300 C 
ENDROOT
BRANCH   2   9
ATOM      9  C   LIG    1        2.375  -7.546  -2.595  0.00  0.00    -0.310 A 
ATOM     10  C   LIG    1        2.941  -8.836  -2.579  0.00  0.00    +0.170 A 
ATOM     11  C   LIG    1        2.455 -10.085  -2.172  0.00  0.00    +0.050 A 
ATOM     12  C   LIG    1        3.260 -11.182  -2.281  0.00  0.00    +0.100 A 
ATOM     13  C   LIG    1        4.554 -11.038  -2.797  0.00  0.00    +0.030 A 
ATOM     14  C   LIG    1        5.003  -9.821  -3.184  0.00  0.00    +0.180 A 
ATOM     15 CL   LIG    1        6.610  -9.661  -3.821  0.00  0.00    +0.010 Cl
ATOM     16  N   LIG    1        4.207  -8.720  -3.079  0.00  0.00    -0.270 N 
ATOM     17  N   LIG    1        4.421  -7.374  -3.400  0.00  0.00    -0.300 NA
ATOM     18  C   LIG    1        3.348  -6.681  -3.124  0.00  0.00    +0.320 A 
ENDBRANCH   2   9
BRANCH   6  19
ATOM     19  C   LIG    1        0.427  -4.069   2.261  0.00  0.00    +0.240 A 
ATOM     20  N   LIG    1        0.684  -2.925   2.834  0.00  0.00    -0.450 NA
ATOM     21  C   LIG    1        0.508  -3.045   4.159  0.00  0.00    -0.090 A 
ATOM     22  C   LIG    1        0.120  -4.309   4.415  0.00  0.00    +0.210 A 
ATOM     23  N   LIG    1        0.068  -4.959   3.212  0.00  0.00    -0.550 N 
ATOM     24  H   LIG    1       -0.179  -5.886   3.068  0.00  0.00    +0.430 HD
BRANCH  21  25
ATOM     25  C   LIG    1        0.704  -1.954   5.180  0.00  0.00    +0.550 C 
ATOM     26  F   LIG    1       -0.165  -2.162   6.257  0.00  0.00    -0.170 F 
ATOM     27  F   LIG    1        0.433  -0.713   4.595  0.00  0.00    -0.170 F 
ATOM     28  F   LIG    1        2.026  -1.976   5.637  0.00  0.00    -0.170 F 
ENDBRANCH  21  25
ENDBRANCH   6  19
TORSDOF 3
