REMARK  Name = ZINCrH000004vF6H.1
REMARK                            x       y       z     vdW  Elec       q    Type
REMARK                         _______ _______ _______ _____ _____    ______ ____
ROOT
ATOM      1  O   LIG    1       -5.910  -1.529   0.057  0.00  0.00    -0.540 OA
ATOM      2  C   LIG    1       -5.177  -1.296   1.000  0.00  0.00    +0.610 C 
ATOM      3  N   LIG    1       -4.014  -0.643   0.806  0.00  0.00    -0.610 N 
ATOM      4  C   LIG    1       -3.179  -0.245   1.947  0.00  0.00    +0.280 C 
ATOM      5  C   LIG    1       -2.888   1.255   1.845  0.00  0.00    +0.030 C 
ATOM      6  C   LIG    1       -2.271   1.560   0.478  0.00  0.00    +0.110 C 
ATOM      7  C   LIG    1       -3.262   1.184  -0.626  0.00  0.00    +0.020 C 
ATOM      8  C   LIG    1       -3.557  -0.317  -0.552  0.00  0.00    +0.300 C 
ENDROOT
BRANCH   2   9
ATOM      9  C   LIG    1       -5.560  -1.724   2.349  0.00  0.00    -0.310 A 
ATOM     10  C   LIG    1       -6.850  -1.672   2.911  0.00  0.00    +0.170 A 
ATOM     11  C   LIG    1       -8.087  -1.235   2.420  0.00  0.00    +0.050 A 
ATOM     12  C   LIG    1       -9.189  -1.311   3.223  0.00  0.00    +0.100 A 
ATOM     13  C   LIG    1       -9.061  -1.824   4.519  0.00  0.00    +0.030 A 
ATOM     14  C   LIG    1       -7.856  -2.241   4.974  0.00  0.00    +0.180 A 
ATOM     15 CL   LIG    1       -7.717  -2.875   6.584  0.00  0.00    +0.010 Cl
ATOM     16  N   LIG    1       -6.750  -2.169   4.180  0.00  0.00    -0.270 N 
ATOM     17  N   LIG    1       -5.414  -2.524   4.399  0.00  0.00    -0.300 NA
ATOM     18  C   LIG    1       -4.711  -2.271   3.327  0.00  0.00    +0.320 A 
ENDBRANCH   2   9
BRANCH   6  19
ATOM     19  C   LIG    1       -1.952   3.030   0.388  0.00  0.00    +0.260 A 
ATOM     20  N   LIG    1       -0.796   3.575   0.650  0.00  0.00    -0.480 NA
ATOM     21  C   LIG    1       -0.879   4.901   0.464  0.00  0.00    +0.260 A 
ATOM     22  C   LIG    1       -2.134   5.188   0.070  0.00  0.00    -0.140 A 
ATOM     23  N   LIG    1       -2.815   4.002   0.022  0.00  0.00    -0.540 N 
ATOM     24  H   LIG    1       -3.744   3.881  -0.232  0.00  0.00    +0.430 HD
BRANCH  22  25
ATOM     25  C   LIG    1       -2.683   6.553  -0.255  0.00  0.00    +0.550 C 
ATOM     26  F   LIG    1       -3.691   6.433  -1.218  0.00  0.00    -0.180 F 
ATOM     27  F   LIG    1       -1.657   7.363  -0.752  0.00  0.00    -0.160 F 
ATOM     28  F   LIG    1       -3.213   7.131   0.904  0.00  0.00    -0.170 F 
ENDBRANCH  22  25
ENDBRANCH   6  19
TORSDOF 3
