REMARK  Name = ZINCrD00000hQ47a.0
REMARK                            x       y       z     vdW  Elec       q    Type
REMARK                         _______ _______ _______ _____ _____    ______ ____
ROOT
ATOM      1  C   LIG    1       -4.064   0.037   1.565  0.00  0.00    +0.470 C 
ATOM      2  O   LIG    1       -4.700  -0.335   0.608  0.00  0.00    -0.500 OA
ENDROOT
BRANCH   1   7
ATOM      3  C   LIG    1       -5.897  -1.016   2.907  0.00  0.00    +0.270 C 
ATOM      4  O   LIG    1       -6.859  -0.216   3.616  0.00  0.00    -0.360 OA
ATOM      5  C   LIG    1       -6.411   1.154   3.534  0.00  0.00    +0.200 C 
ATOM      6  C   LIG    1       -4.873   1.044   3.718  0.00  0.00    +0.050 C 
ATOM      7  C   LIG    1       -4.552  -0.266   2.958  0.00  0.00    +0.010 C 
BRANCH   3  10
ATOM      8  C   LIG    1       -4.864  -3.640   1.554  0.00  0.00    +0.140 C 
ATOM      9  C   LIG    1       -5.313  -3.496   2.986  0.00  0.00    +0.100 A 
ATOM     10  C   LIG    1       -5.760  -2.361   3.571  0.00  0.00    -0.250 A 
ATOM     11  C   LIG    1       -6.066  -2.657   4.904  0.00  0.00    +0.270 A 
ATOM     12  N   LIG    1       -5.821  -3.925   5.108  0.00  0.00    -0.300 NA
ATOM     13  N   LIG    1       -5.341  -4.476   3.913  0.00  0.00    -0.370 N 
ATOM     14  C   LIG    1       -4.941  -5.870   3.706  0.00  0.00    +0.360 C 
ENDBRANCH   3  10
ENDBRANCH   1   7
BRANCH   1  15
ATOM     15  O   LIG    1       -2.922   0.721   1.388  0.00  0.00    -0.350 OA
BRANCH  15  16
ATOM     16  C   LIG    1       -2.513   0.977   0.019  0.00  0.00    +0.270 C 
BRANCH  16  17
ATOM     17  C   LIG    1       -1.220   1.750   0.017  0.00  0.00    -0.140 A 
ATOM     18  C   LIG    1       -0.013   1.076   0.008  0.00  0.00    +0.080 A 
ATOM     19  C   LIG    1        1.175   1.782   0.000  0.00  0.00    -0.010 A 
ATOM     20  C   LIG    1        1.155   3.169   0.008  0.00  0.00    +0.150 A 
ATOM     21  C   LIG    1       -0.057   3.844   0.023  0.00  0.00    -0.080 A 
ATOM     22  C   LIG    1       -1.242   3.133   0.031  0.00  0.00    +0.080 A 
BRANCH  20  23
ATOM     23  O   LIG    1        2.322   3.866   0.000  0.00  0.00    -0.310 OA
BRANCH  23  24
ATOM     24  C   LIG    1        2.225   5.292   0.009  0.00  0.00    +0.230 C 
BRANCH  24  25
ATOM     25  C   LIG    1        3.630   5.898  -0.002  0.00  0.00    -0.040 C 
ATOM     26  C   LIG    1        4.053   6.723   1.216  0.00  0.00    +0.020 C 
ATOM     27  C   LIG    1        3.742   7.420  -0.111  0.00  0.00    +0.030 C 
ENDBRANCH  24  25
ENDBRANCH  23  24
ENDBRANCH  20  23
ENDBRANCH  16  17
ENDBRANCH  15  16
ENDBRANCH   1  15
TORSDOF 8
