REMARK  Name = ZINCpk00000y6ywK.0
REMARK                            x       y       z     vdW  Elec       q    Type
REMARK                         _______ _______ _______ _____ _____    ______ ____
ROOT
ATOM      1  C   LIG    1       -5.687   7.019  -1.049  0.00  0.00    +0.070 A 
ATOM      2  N   LIG    1       -5.104   7.265   0.105  0.00  0.00    -0.240 NA
ATOM      3  N   LIG    1       -4.047   6.548   0.244  0.00  0.00    -0.370 N 
ATOM      4  H   LIG    1       -3.462   6.561   1.018  0.00  0.00    +0.450 HD
ATOM      5  C   LIG    1       -3.867   5.766  -0.862  0.00  0.00    -0.040 A 
ATOM      6  C   LIG    1       -4.917   6.048  -1.715  0.00  0.00    +0.050 A 
ENDROOT
BRANCH   1  11
ATOM      7  C   LIG    1       -8.755   9.188  -1.262  0.00  0.00    +0.130 A 
ATOM      8  C   LIG    1       -9.255   8.826  -2.505  0.00  0.00    -0.070 A 
ATOM      9  C   LIG    1       -8.597   7.880  -3.270  0.00  0.00    +0.050 A 
ATOM     10  C   LIG    1       -7.436   7.296  -2.804  0.00  0.00    -0.010 A 
ATOM     11  C   LIG    1       -6.931   7.650  -1.555  0.00  0.00    +0.030 A 
ATOM     12  C   LIG    1       -7.594   8.602  -0.784  0.00  0.00    +0.010 A 
BRANCH   7  14
ATOM     13  C   LIG    1      -10.595  10.681  -1.068  0.00  0.00    +0.250 C 
ATOM     14  O   LIG    1       -9.405  10.118  -0.513  0.00  0.00    -0.320 OA
ENDBRANCH   7  14
ENDBRANCH   1  11
BRANCH   5  15
ATOM     15  C   LIG    1       -2.774   4.809  -1.097  0.00  0.00    +0.600 C 
ATOM     16  N   LIG    1       -1.814   4.641  -0.166  0.00  0.00    -0.720 N 
ATOM     17  H   LIG    1       -1.844   5.151   0.659  0.00  0.00    +0.400 HD
ATOM     18  O   LIG    1       -2.737   4.169  -2.130  0.00  0.00    -0.510 OA
BRANCH  16  19
ATOM     19  C   LIG    1       -0.726   3.688  -0.399  0.00  0.00    +0.250 C 
ATOM     20  C   LIG    1        0.498   4.100   0.423  0.00  0.00    +0.040 C 
ATOM     21  C   LIG    1        1.700   3.243   0.005  0.00  0.00    +0.180 C 
ATOM     22  C   LIG    1        1.268   1.797  -0.000  0.00  0.00    +0.270 A 
ATOM     23  N   LIG    1        2.024   0.735  -0.015  0.00  0.00    -0.540 NA
ATOM     24  C   LIG    1        1.262  -0.361  -0.013  0.00  0.00    +0.420 A 
ATOM     25  N   LIG    1        0.002  -0.004   0.002  0.00  0.00    -0.310 NA
ATOM     26  N   LIG    1       -0.017   1.393   0.010  0.00  0.00    -0.370 N 
ATOM     27  C   LIG    1       -1.177   2.285   0.020  0.00  0.00    +0.310 C 
ENDBRANCH  16  19
ENDBRANCH   5  15
TORSDOF 4
