REMARK  Name = ZINCrH000004qTjt.0
REMARK                            x       y       z     vdW  Elec       q    Type
REMARK                         _______ _______ _______ _____ _____    ______ ____
ROOT
ATOM      1  N   LIG    1       -2.635   1.210   0.693  0.00  0.00    -0.700 N 
ATOM      2  H   LIG    1       -2.589   0.241   0.703  0.00  0.00    +0.410 HD
ATOM      3  C   LIG    1       -3.694   1.840   1.239  0.00  0.00    +0.570 C 
ATOM      4  O   LIG    1       -3.752   3.053   1.226  0.00  0.00    -0.490 OA
ENDROOT
BRANCH   3   5
ATOM      5  C   LIG    1       -4.790   1.052   1.855  0.00  0.00    +0.170 A 
ATOM      6  N   LIG    1       -4.740  -0.278   1.870  0.00  0.00    -0.490 NA
ATOM      7  C   LIG    1       -5.712  -0.984   2.423  0.00  0.00    +0.500 A 
ATOM      8  N   LIG    1       -6.771  -0.404   2.970  0.00  0.00    -0.520 NA
ATOM      9  C   LIG    1       -6.892   0.912   2.989  0.00  0.00    +0.380 A 
ATOM     10  C   LIG    1       -5.892   1.693   2.424  0.00  0.00    -0.130 A 
ATOM     11 CL   LIG    1       -6.009   3.425   2.426  0.00  0.00    +0.000 Cl
BRANCH   7  12
ATOM     12  N   LIG    1       -5.624  -2.366   2.425  0.00  0.00    -0.460 N 
ATOM     13  C   LIG    1       -5.463  -2.886   1.060  0.00  0.00    +0.200 C 
ATOM     14  C   LIG    1       -5.311  -4.409   1.114  0.00  0.00    +0.240 C 
ATOM     15  O   LIG    1       -6.445  -4.973   1.778  0.00  0.00    -0.380 OA
ATOM     16  C   LIG    1       -6.631  -4.489   3.111  0.00  0.00    +0.230 C 
ATOM     17  C   LIG    1       -6.797  -2.967   3.077  0.00  0.00    +0.200 C 
ENDBRANCH   7  12
ENDBRANCH   3   5
BRANCH   1  18
ATOM     18  C   LIG    1       -1.554   1.988   0.084  0.00  0.00    +0.310 C 
BRANCH  18  22
ATOM     19  C   LIG    1        2.111  -0.886  -1.875  0.00  0.00    +0.150 C 
ATOM     20  C   LIG    1        1.364  -0.116  -0.817  0.00  0.00    -0.180 A 
ATOM     21  C   LIG    1        0.224   0.549  -1.011  0.00  0.00    +0.010 A 
ATOM     22  C   LIG    1       -0.279   1.184   0.111  0.00  0.00    -0.120 A 
ATOM     23  C   LIG    1        0.452   1.035   1.216  0.00  0.00    -0.160 A 
ATOM     24  C   LIG    1        0.121   1.625   2.563  0.00  0.00    +0.140 C 
ATOM     25  S   LIG    1        1.862   0.045   0.862  0.00  0.00    +0.110 S 
ENDBRANCH  18  22
BRANCH  18  26
ATOM     26  C   LIG    1       -1.917   2.320  -1.365  0.00  0.00    -0.030 C 
ATOM     27  C   LIG    1       -0.845   3.234  -1.962  0.00  0.00    +0.030 C 
ATOM     28  C   LIG    1       -3.271   3.031  -1.401  0.00  0.00    +0.030 C 
ENDBRANCH  18  26
ENDBRANCH   1  18
TORSDOF 5
