REMARK  Name = ZINCrD0000075MI1.0
REMARK                            x       y       z     vdW  Elec       q    Type
REMARK                         _______ _______ _______ _____ _____    ______ ____
ROOT
ATOM      1  O   LIG    1       -7.924   2.999  -0.207  0.00  0.00    -0.510 OA
ATOM      2  C   LIG    1       -7.133   2.103  -0.418  0.00  0.00    +0.520 C 
ATOM      3  N   LIG    1       -7.576   0.844  -0.604  0.00  0.00    -0.660 N 
ATOM      4  H   LIG    1       -6.942   0.124  -0.749  0.00  0.00    +0.420 HD
ENDROOT
BRANCH   2   5
ATOM      5  C   LIG    1       -5.657   2.399  -0.473  0.00  0.00    -0.010 C 
ATOM      6  C   LIG    1       -5.425   3.892  -0.227  0.00  0.00    +0.060 C 
ATOM      7  C   LIG    1       -3.928   4.199  -0.315  0.00  0.00    +0.030 C 
ATOM      8  C   LIG    1       -3.185   3.409   0.773  0.00  0.00    +0.280 C 
ATOM      9  N   LIG    1       -3.518   1.986   0.627  0.00  0.00    -0.600 N 
ATOM     10  C   LIG    1       -2.544   1.060   0.519  0.00  0.00    +0.610 C 
ATOM     11  O   LIG    1       -2.829  -0.097   0.273  0.00  0.00    -0.520 OA
ATOM     12  C   LIG    1       -4.933   1.589   0.608  0.00  0.00    +0.300 C 
BRANCH  10  13
ATOM     13  C   LIG    1       -1.141   1.447   0.699  0.00  0.00    -0.080 A 
ATOM     14  C   LIG    1       -0.055   0.649   0.483  0.00  0.00    +0.050 A 
ATOM     15  C   LIG    1        1.079   1.424   0.771  0.00  0.00    -0.060 A 
ATOM     16  C   LIG    1        0.640   2.645   1.151  0.00  0.00    +0.200 A 
ATOM     17  O   LIG    1       -0.698   2.654   1.109  0.00  0.00    -0.160 OA
ENDBRANCH  10  13
ENDBRANCH   2   5
BRANCH   3  18
ATOM     18  C   LIG    1       -8.951   0.575  -0.589  0.00  0.00    +0.130 A 
ATOM     19  C   LIG    1       -9.799   1.331   0.205  0.00  0.00    +0.040 A 
ATOM     20  C   LIG    1      -11.155   1.065   0.218  0.00  0.00    +0.010 A 
ATOM     21  C   LIG    1      -11.671   0.045  -0.560  0.00  0.00    +0.010 A 
ATOM     22  C   LIG    1      -10.833  -0.714  -1.356  0.00  0.00    -0.020 A 
ATOM     23  C   LIG    1       -9.472  -0.450  -1.379  0.00  0.00    +0.070 A 
BRANCH  23  24
ATOM     24  N   LIG    1       -8.623  -1.213  -2.188  0.00  0.00    -0.470 N 
ATOM     25  C   LIG    1       -9.397  -2.177  -3.011  0.00  0.00    +0.180 C 
ATOM     26  C   LIG    1       -8.420  -2.524  -4.162  0.00  0.00    +0.040 C 
ATOM     27  C   LIG    1       -7.721  -1.174  -4.441  0.00  0.00    +0.020 C 
ATOM     28  C   LIG    1       -7.895  -0.356  -3.148  0.00  0.00    +0.170 C 
ENDBRANCH  23  24
ENDBRANCH   3  18
TORSDOF 4
