REMARK  Name = ZINCqH0000000tsI.0
REMARK                            x       y       z     vdW  Elec       q    Type
REMARK                         _______ _______ _______ _____ _____    ______ ____
ROOT
ATOM      1  C   LIG    1       -0.015   1.389   0.003  0.00  0.00    +0.080 A 
ATOM      2  C   LIG    1        1.176   2.103  -0.013  0.00  0.00    +0.110 A 
ATOM      3  C   LIG    1        2.383   1.433  -0.034  0.00  0.00    -0.040 A 
ATOM      4  C   LIG    1        2.406   0.045  -0.039  0.00  0.00    +0.260 A 
ATOM      5  C   LIG    1        1.215  -0.670  -0.023  0.00  0.00    -0.240 A 
ATOM      6  C   LIG    1        0.009  -0.000  -0.002  0.00  0.00    +0.090 A 
ENDROOT
BRANCH   1   9
ATOM      7  C   LIG    1       -2.700   3.906   0.800  0.00  0.00    +0.110 C 
ATOM      8  C   LIG    1       -1.358   3.228   0.696  0.00  0.00    +0.510 C 
ATOM      9  N   LIG    1       -1.240   2.069   0.019  0.00  0.00    -0.670 N 
ATOM     10  H   LIG    1       -2.003   1.705  -0.457  0.00  0.00    +0.410 HD
ATOM     11  O   LIG    1       -0.385   3.727   1.220  0.00  0.00    -0.530 OA
ENDBRANCH   1   9
BRANCH   5  12
ATOM     12  C   LIG    1        1.241  -2.177  -0.028  0.00  0.00    +0.510 C 
ATOM     13  F   LIG    1        1.926  -2.635   1.102  0.00  0.00    -0.180 F 
ATOM     14  F   LIG    1        1.890  -2.629  -1.182  0.00  0.00    -0.180 F 
ATOM     15  F   LIG    1       -0.070  -2.665  -0.009  0.00  0.00    -0.180 F 
ENDBRANCH   5  12
BRANCH   4  16
ATOM     16  N   LIG    1        3.629  -0.634  -0.060  0.00  0.00    -0.730 N 
ATOM     17  H   LIG    1        3.646  -1.604  -0.063  0.00  0.00    +0.410 HD
BRANCH  16  18
ATOM     18  C   LIG    1        4.885   0.119  -0.077  0.00  0.00    +0.300 C 
BRANCH  18  19
ATOM     19  C   LIG    1        6.047  -0.840  -0.098  0.00  0.00    +0.510 C 
ATOM     20  N   LIG    1        7.310  -0.370  -0.116  0.00  0.00    -0.720 N 
ATOM     21  H   LIG    1        7.471   0.587  -0.115  0.00  0.00    +0.400 HD
ATOM     22  O   LIG    1        5.846  -2.036  -0.098  0.00  0.00    -0.530 OA
BRANCH  20  23
ATOM     23  C   LIG    1        8.439  -1.303  -0.136  0.00  0.00    +0.240 C 
ATOM     24  C   LIG    1        8.774  -1.729   1.295  0.00  0.00    +0.000 C 
ATOM     25  C   LIG    1        9.954  -2.703   1.274  0.00  0.00    +0.010 C 
ATOM     26  C   LIG    1       11.170  -2.018   0.648  0.00  0.00    +0.010 C 
ATOM     27  C   LIG    1       10.835  -1.592  -0.783  0.00  0.00    +0.030 C 
ATOM     28  C   LIG    1        9.655  -0.618  -0.762  0.00  0.00    -0.020 C 
ATOM     29  C   LIG    1        9.320  -0.192  -2.193  0.00  0.00    +0.030 C 
ENDBRANCH  20  23
ENDBRANCH  18  19
ENDBRANCH  16  18
ENDBRANCH   4  16
TORSDOF 6
