REMARK  Name = ZINCvU0000000GcN.0
REMARK                            x       y       z     vdW  Elec       q    Type
REMARK                         _______ _______ _______ _____ _____    ______ ____
ROOT
ATOM      1  O   LIG    1        0.107   0.162  -0.990  0.00  0.00    -0.480 OA
ATOM      2  C   LIG    1        0.057   1.223  -0.398  0.00  0.00    +0.620 C 
ATOM      3  N   LIG    1       -1.108   1.643   0.134  0.00  0.00    -0.650 N 
ATOM      4  H   LIG    1       -1.135   2.455   0.663  0.00  0.00    +0.430 HD
ENDROOT
BRANCH   3   5
ATOM      5  C   LIG    1       -2.280   0.906  -0.078  0.00  0.00    +0.190 A 
ATOM      6  C   LIG    1       -3.495   1.563  -0.227  0.00  0.00    -0.010 A 
ATOM      7  C   LIG    1       -4.650   0.838  -0.440  0.00  0.00    +0.110 A 
ATOM      8  C   LIG    1       -4.599  -0.550  -0.495  0.00  0.00    -0.170 A 
ATOM      9  C   LIG    1       -3.384  -1.206  -0.341  0.00  0.00    +0.110 A 
ATOM     10  C   LIG    1       -2.229  -0.480  -0.133  0.00  0.00    +0.020 A 
BRANCH   8  11
ATOM     11  S   LIG    1       -6.074  -1.476  -0.762  0.00  0.00    +0.140 S 
BRANCH  11  12
ATOM     12  C   LIG    1       -6.738  -1.639   0.862  0.00  0.00    -0.020 A 
ATOM     13  N   LIG    1       -6.266  -1.088   1.945  0.00  0.00    -0.260 NA
ATOM     14  N   LIG    1       -6.873  -1.314   3.027  0.00  0.00    -0.250 NA
ATOM     15  C   LIG    1       -7.918  -2.075   2.990  0.00  0.00    +0.220 A 
ATOM     16  S   LIG    1       -8.167  -2.571   1.314  0.00  0.00    +0.110 S 
ENDBRANCH  11  12
ENDBRANCH   8  11
ENDBRANCH   3   5
BRANCH   2  17
ATOM     17  C   LIG    1        1.272   2.055  -0.267  0.00  0.00    +0.190 A 
ATOM     18  N   LIG    1        2.460   1.752  -0.748  0.00  0.00    -0.220 NA
ATOM     19  N   LIG    1        3.323   2.804  -0.403  0.00  0.00    -0.320 N 
ATOM     20  C   LIG    1        2.568   3.708   0.290  0.00  0.00    +0.370 A 
ATOM     21  N   LIG    1        1.338   3.239   0.355  0.00  0.00    -0.500 NA
BRANCH  19  22
ATOM     22  C   LIG    1        4.686   2.908  -0.709  0.00  0.00    +0.120 A 
ATOM     23  C   LIG    1        5.199   4.099  -1.205  0.00  0.00    +0.020 A 
ATOM     24  C   LIG    1        6.544   4.200  -1.500  0.00  0.00    +0.040 A 
ATOM     25  C   LIG    1        7.378   3.113  -1.312  0.00  0.00    +0.040 A 
ATOM     26  C   LIG    1        6.869   1.923  -0.824  0.00  0.00    +0.040 A 
ATOM     27  C   LIG    1        5.526   1.818  -0.522  0.00  0.00    +0.050 A 
ENDBRANCH  19  22
BRANCH  20  28
ATOM     28  C   LIG    1        3.042   4.980   0.858  0.00  0.00    -0.170 A 
ATOM     29  C   LIG    1        2.254   6.021   1.206  0.00  0.00    +0.110 A 
ATOM     30  C   LIG    1        2.929   7.105   1.721  0.00  0.00    +0.000 A 
ATOM     31  C   LIG    1        4.257   6.967   1.790  0.00  0.00    -0.030 A 
ATOM     32  S   LIG    1        4.723   5.384   1.183  0.00  0.00    +0.170 S 
ENDBRANCH  20  28
ENDBRANCH   2  17
TORSDOF 6
