REMARK  Name = ZINCrg00001JduZr.0
REMARK                            x       y       z     vdW  Elec       q    Type
REMARK                         _______ _______ _______ _____ _____    ______ ____
ROOT
ATOM      1  N   LIG    1       -5.287   1.359   0.949  0.00  0.00    -0.600 N 
ATOM      2  C   LIG    1       -4.516   2.021   0.064  0.00  0.00    +0.520 C 
ATOM      3  O   LIG    1       -3.311   2.034   0.200  0.00  0.00    -0.490 OA
ENDROOT
BRANCH   2   4
ATOM      4  C   LIG    1       -5.151   2.745  -1.095  0.00  0.00    -0.020 C 
ATOM      5  C   LIG    1       -4.077   3.088  -2.132  0.00  0.00    +0.070 C 
ATOM      6  C   LIG    1       -4.759   3.591  -3.414  0.00  0.00    +0.120 C 
ATOM      7  C   LIG    1       -5.766   4.641  -3.025  0.00  0.00    -0.030 A 
ATOM      8  C   LIG    1       -6.369   5.551  -3.800  0.00  0.00    +0.150 A 
ATOM      9  N   LIG    1       -7.186   6.279  -3.020  0.00  0.00    -0.490 NA
ATOM     10  C   LIG    1       -7.107   5.847  -1.788  0.00  0.00    +0.380 A 
ATOM     11  N   LIG    1       -6.230   4.830  -1.747  0.00  0.00    -0.460 N 
ATOM     12  C   LIG    1       -5.812   4.033  -0.591  0.00  0.00    +0.290 C 
ENDBRANCH   2   4
BRANCH   1  16
ATOM     13  N   LIG    1       -9.309   0.268   1.573  0.00  0.00    -0.430 N 
ATOM     14  C   LIG    1       -8.675  -0.228   0.345  0.00  0.00    +0.210 C 
ATOM     15  C   LIG    1       -7.153  -0.157   0.490  0.00  0.00    +0.050 C 
ATOM     16  C   LIG    1       -6.737   1.294   0.752  0.00  0.00    +0.230 C 
ATOM     17  C   LIG    1       -7.449   1.801   2.009  0.00  0.00    +0.050 C 
ATOM     18  C   LIG    1       -8.962   1.673   1.820  0.00  0.00    +0.230 C 
BRANCH  13  23
ATOM     19  C   LIG    1      -13.907   0.500   3.173  0.00  0.00    +0.200 C 
ATOM     20  C   LIG    1      -12.820   0.165   2.186  0.00  0.00    +0.290 A 
ATOM     21  N   LIG    1      -13.099  -0.392   1.043  0.00  0.00    -0.480 NA
ATOM     22  S   LIG    1      -11.609  -0.594   0.251  0.00  0.00    +0.190 S 
ATOM     23  C   LIG    1      -10.680   0.096   1.528  0.00  0.00    +0.270 A 
ATOM     24  N   LIG    1      -11.560   0.419   2.452  0.00  0.00    -0.530 NA
ENDBRANCH  13  23
ENDBRANCH   1  16
BRANCH   1  25
ATOM     25  C   LIG    1       -4.676   0.706   2.109  0.00  0.00    +0.300 C 
BRANCH  25  26
ATOM     26  C   LIG    1       -4.186  -0.688   1.710  0.00  0.00    +0.150 C 
BRANCH  26  27
ATOM     27  O   LIG    1       -3.151  -0.567   0.733  0.00  0.00    -0.550 OA
ATOM     28  H   LIG    1       -2.792  -1.414   0.433  0.00  0.00    +0.370 HD
ENDBRANCH  26  27
ENDBRANCH  25  26
ENDBRANCH   1  25
TORSDOF 6
