REMARK  Name = ZINCvU0000000Dxi.0
REMARK                            x       y       z     vdW  Elec       q    Type
REMARK                         _______ _______ _______ _____ _____    ______ ____
ROOT
ATOM      1  C   LIG    1       -0.059   4.501   0.025  0.00  0.00    -0.140 A 
ATOM      2  C   LIG    1       -1.257   3.784   0.034  0.00  0.00    +0.160 A 
ATOM      3  C   LIG    1       -1.232   2.405   0.021  0.00  0.00    +0.020 A 
ATOM      4  C   LIG    1       -0.021   1.732   0.012  0.00  0.00    +0.080 A 
ATOM      5  C   LIG    1        1.171   2.438   0.004  0.00  0.00    -0.690 A 
ATOM      6 CL   LIG    1        0.002  -0.004   0.002  0.00  0.00    -0.030 Cl
ATOM      7  C   LIG    1        1.158   3.816   0.011  0.00  0.00    +0.220 A 
ENDROOT
BRANCH   5   8
ATOM      8  S   LIG    1        2.705   1.572  -0.015  0.00  0.00    +2.680 S 
ATOM      9  O   LIG    1        3.724   2.562   0.015  0.00  0.00    -0.940 OA
ATOM     10  O   LIG    1        2.602   0.594  -1.040  0.00  0.00    -0.940 OA
BRANCH   8  11
ATOM     11  N   LIG    1        2.817   0.742   1.414  0.00  0.00    -0.980 NA
ATOM     12  C   LIG    1        3.439   1.391   2.546  0.00  0.00    +0.290 C 
ATOM     13  C   LIG    1        4.958   1.119   2.538  0.00  0.00    +0.010 C 
ATOM     14  C   LIG    1        5.226  -0.285   2.885  0.00  0.00    +0.000 C 
ATOM     15  C   LIG    1        4.654  -1.297   1.897  0.00  0.00    +0.010 C 
ATOM     16  C   LIG    1        3.215  -1.583   2.250  0.00  0.00    +0.020 C 
ATOM     17  C   LIG    1        2.283  -0.633   1.477  0.00  0.00    +0.280 C 
ENDBRANCH   8  11
ENDBRANCH   5   8
BRANCH   1  18
ATOM     18  C   LIG    1       -0.079   5.978   0.033  0.00  0.00    +0.510 C 
ATOM     19  O   LIG    1        0.965   6.599   0.026  0.00  0.00    -0.490 OA
BRANCH  18  20
ATOM     20  O   LIG    1       -1.255   6.635   0.047  0.00  0.00    -0.350 OA
BRANCH  20  21
ATOM     21  C   LIG    1       -1.198   8.086   0.054  0.00  0.00    +0.270 C 
BRANCH  21  25
ATOM     22  C   LIG    1       -5.167   9.666   0.099  0.00  0.00    -0.050 A 
ATOM     23  C   LIG    1       -4.514   9.404   1.289  0.00  0.00    +0.010 A 
ATOM     24  C   LIG    1       -3.230   8.893   1.274  0.00  0.00    +0.030 A 
ATOM     25  C   LIG    1       -2.599   8.643   0.070  0.00  0.00    -0.110 A 
ATOM     26  C   LIG    1       -3.250   8.910  -1.120  0.00  0.00    +0.030 A 
ATOM     27  C   LIG    1       -4.536   9.416  -1.105  0.00  0.00    +0.010 A 
BRANCH  22  29
ATOM     28  C   LIG    1       -6.571  11.569   0.843  0.00  0.00    +0.040 C 
ATOM     29  C   LIG    1       -6.567  10.224   0.115  0.00  0.00    -0.030 C 
ATOM     30  C   LIG    1       -7.496   9.248   0.840  0.00  0.00    +0.040 C 
ATOM     31  C   LIG    1       -7.054  10.420  -1.322  0.00  0.00    +0.030 C 
ENDBRANCH  22  29
ENDBRANCH  21  25
ENDBRANCH  20  21
ENDBRANCH  18  20
ENDBRANCH   1  18
TORSDOF 7
