REMARK  Name = ZINCrD000000D6rp.0
REMARK                            x       y       z     vdW  Elec       q    Type
REMARK                         _______ _______ _______ _____ _____    ______ ____
ROOT
ATOM      1  C   LIG    1        4.593   2.626   1.610  0.00  0.00    -0.800 A 
ATOM      2  C   LIG    1        5.598   1.739   1.972  0.00  0.00    +0.210 A 
ATOM      3  C   LIG    1        6.871   1.943   1.472  0.00  0.00    -0.120 A 
ATOM      4  C   LIG    1        7.103   3.031   0.636  0.00  0.00    +0.450 A 
ATOM      5  N   LIG    1        6.119   3.858   0.318  0.00  0.00    -0.550 NA
ATOM      6  C   LIG    1        4.894   3.684   0.776  0.00  0.00    +0.430 A 
ENDROOT
BRANCH   1   8
ATOM      7  O   LIG    1        2.332   3.684   2.162  0.00  0.00    -0.960 OA
ATOM      8  S   LIG    1        2.953   2.407   2.215  0.00  0.00    +2.700 S 
ATOM      9  O   LIG    1        3.063   1.646   3.409  0.00  0.00    -0.960 OA
BRANCH   8  10
ATOM     10  N   LIG    1        2.151   1.453   1.124  0.00  0.00    -1.000 NA
ATOM     11  C   LIG    1        1.420   2.052  -0.001  0.00  0.00    +0.280 C 
ATOM     12  C   LIG    1       -0.019   1.526   0.010  0.00  0.00    +0.020 C 
ATOM     13  C   LIG    1        0.002  -0.004   0.002  0.00  0.00    +0.010 C 
ATOM     14  C   LIG    1        0.712  -0.513   1.258  0.00  0.00    +0.020 C 
ATOM     15  C   LIG    1        2.159  -0.010   1.262  0.00  0.00    +0.280 C 
ENDBRANCH   8  10
ENDBRANCH   1   8
BRANCH   4  16
ATOM     16  N   LIG    1        8.379   3.251   0.130  0.00  0.00    -0.710 N 
ATOM     17  H   LIG    1        8.545   4.008  -0.453  0.00  0.00    +0.410 HD
BRANCH  16  18
ATOM     18  C   LIG    1        9.472   2.340   0.478  0.00  0.00    +0.270 C 
BRANCH  18  19
ATOM     19  C   LIG    1       10.760   2.805  -0.204  0.00  0.00    +0.110 C 
BRANCH  19  20
ATOM     20  C   LIG    1       11.885   1.868   0.153  0.00  0.00    -0.180 A 
ATOM     21  C   LIG    1       12.774   2.030   1.146  0.00  0.00    +0.230 A 
ATOM     22  N   LIG    1       13.646   0.977   1.168  0.00  0.00    -0.590 N 
ATOM     23  H   LIG    1       14.377   0.871   1.797  0.00  0.00    +0.420 HD
ATOM     24  C   LIG    1       13.332   0.088   0.164  0.00  0.00    +0.090 A 
ATOM     25  C   LIG    1       13.881  -1.121  -0.251  0.00  0.00    -0.010 A 
ATOM     26  C   LIG    1       13.326  -1.793  -1.319  0.00  0.00    +0.030 A 
ATOM     27  C   LIG    1       12.224  -1.276  -1.985  0.00  0.00    -0.020 A 
ATOM     28  C   LIG    1       11.670  -0.090  -1.595  0.00  0.00    +0.050 A 
ATOM     29  C   LIG    1       12.212   0.605  -0.512  0.00  0.00    -0.100 A 
ENDBRANCH  19  20
ENDBRANCH  18  19
ENDBRANCH  16  18
ENDBRANCH   4  16
TORSDOF 6
