REMARK  Name = ZINCqH0000007QtI.0
REMARK                            x       y       z     vdW  Elec       q    Type
REMARK                         _______ _______ _______ _____ _____    ______ ____
ROOT
ATOM      1  C   LIG    1       -0.042   1.081   0.119  0.00  0.00    +0.030 C 
ENDROOT
BRANCH   1   4
ATOM      2  N   LIG    1        2.390   1.267   0.532  0.00  0.00    -0.650 N 
ATOM      3  H   LIG    1        2.356   0.391   0.947  0.00  0.00    +0.420 HD
ATOM      4  C   LIG    1        1.278   1.796  -0.017  0.00  0.00    +0.530 C 
ATOM      5  O   LIG    1        1.340   2.846  -0.620  0.00  0.00    -0.500 OA
BRANCH   2  11
ATOM      6  C   LIG    1        4.805   1.321   0.688  0.00  0.00    +0.100 A 
ATOM      7  C   LIG    1        5.993   2.033   0.653  0.00  0.00    -0.060 A 
ATOM      8  C   LIG    1        5.973   3.400   0.449  0.00  0.00    +0.030 A 
ATOM      9  C   LIG    1        4.771   4.059   0.272  0.00  0.00    +0.000 A 
ATOM     10  C   LIG    1        3.582   3.355   0.299  0.00  0.00    +0.050 A 
ATOM     11  C   LIG    1        3.594   1.983   0.504  0.00  0.00    +0.130 A 
BRANCH   6  13
ATOM     12  C   LIG    1        6.101  -0.635   1.076  0.00  0.00    +0.250 C 
ATOM     13  O   LIG    1        4.823  -0.023   0.895  0.00  0.00    -0.320 OA
ENDBRANCH   6  13
ENDBRANCH   2  11
ENDBRANCH   1   4
BRANCH   1  14
ATOM     14  C   LIG    1       -0.694   1.464   1.449  0.00  0.00    +0.020 C 
ATOM     15  C   LIG    1        0.230   1.069   2.603  0.00  0.00    +0.030 C 
ATOM     16  C   LIG    1       -2.030   0.731   1.592  0.00  0.00    +0.050 C 
ENDBRANCH   1  14
BRANCH   1  17
ATOM     17  S   LIG    1       -1.130   1.560  -1.246  0.00  0.00    +0.060 S 
BRANCH  17  18
ATOM     18  C   LIG    1       -0.233   0.884  -2.603  0.00  0.00    +0.150 A 
ATOM     19  N   LIG    1        0.857   0.151  -2.536  0.00  0.00    -0.290 NA
ATOM     20  N   LIG    1        1.238  -0.177  -3.721  0.00  0.00    -0.280 NA
ATOM     21  C   LIG    1        0.425   0.325  -4.603  0.00  0.00    +0.190 A 
ATOM     22  C   LIG    1        0.494   0.171  -6.100  0.00  0.00    +0.150 C 
ATOM     23  C   LIG    1        0.296   1.542  -6.753  0.00  0.00    +0.030 C 
ATOM     24  C   LIG    1       -1.191   1.797  -6.972  0.00  0.00    +0.020 C 
ATOM     25  C   LIG    1       -2.018   1.157  -5.857  0.00  0.00    +0.030 C 
ATOM     26  C   LIG    1       -1.638   1.780  -4.511  0.00  0.00    +0.290 C 
ATOM     27  N   LIG    1       -0.531   1.026  -3.924  0.00  0.00    -0.460 N 
ENDBRANCH  17  18
ENDBRANCH   1  17
TORSDOF 6
