REMARK  Name = ZINCnE000001TyHT.0
REMARK                            x       y       z     vdW  Elec       q    Type
REMARK                         _______ _______ _______ _____ _____    ______ ____
ROOT
ATOM      1  C   LIG    1        2.366   1.129  -0.193  0.00  0.00    +0.210 C 
ATOM      2  C   LIG    1        3.275   1.327  -1.415  0.00  0.00    +0.020 C 
ATOM      3  C   LIG    1        3.347   2.818  -1.754  0.00  0.00    +0.000 C 
ATOM      4  C   LIG    1        1.949   3.331  -2.106  0.00  0.00    +0.010 C 
ATOM      5  C   LIG    1        1.025   3.154  -0.896  0.00  0.00    +0.260 C 
ATOM      6  N   LIG    1        1.063   1.747  -0.474  0.00  0.00    -0.600 N 
ATOM      7  C   LIG    1       -0.076   1.039  -0.342  0.00  0.00    +0.580 C 
ATOM      8  O   LIG    1       -0.027  -0.153  -0.103  0.00  0.00    -0.470 OA
ENDROOT
BRANCH   7   9
ATOM      9  C   LIG    1       -1.377   1.705  -0.493  0.00  0.00    -0.010 A 
ATOM     10  C   LIG    1       -2.579   1.073  -0.534  0.00  0.00    +0.060 A 
ATOM     11  C   LIG    1       -3.584   2.124  -0.693  0.00  0.00    -0.110 A 
ATOM     12  C   LIG    1       -4.977   2.130  -0.799  0.00  0.00    +0.040 A 
ATOM     13  C   LIG    1       -5.643   3.327  -0.943  0.00  0.00    +0.080 A 
ATOM     14  C   LIG    1       -4.935   4.523  -0.983  0.00  0.00    +0.030 A 
ATOM     15  C   LIG    1       -3.561   4.530  -0.879  0.00  0.00    +0.060 A 
ATOM     16  F   LIG    1       -6.990   3.340  -1.046  0.00  0.00    -0.140 F 
ATOM     17  C   LIG    1       -2.868   3.335  -0.734  0.00  0.00    +0.050 A 
ATOM     18  O   LIG    1       -1.559   3.038  -0.605  0.00  0.00    -0.170 OA
ENDBRANCH   7   9
BRANCH   1  19
ATOM     19  C   LIG    1        2.178  -0.366   0.072  0.00  0.00    +0.080 C 
BRANCH  19  20
ATOM     20  C   LIG    1        3.528  -0.997   0.416  0.00  0.00    -0.090 C 
BRANCH  20  22
ATOM     21  O   LIG    1        2.208  -2.928   0.767  0.00  0.00    -0.690 OA
ATOM     22  C   LIG    1        3.328  -2.445   0.781  0.00  0.00    +0.490 C 
ATOM     23  O   LIG    1        4.285  -3.134   1.090  0.00  0.00    -0.710 OA
ENDBRANCH  20  22
ENDBRANCH  19  20
ENDBRANCH   1  19
TORSDOF 4
