REMARK  Name = ZINCrD00000F5Ly4.0
REMARK                            x       y       z     vdW  Elec       q    Type
REMARK                         _______ _______ _______ _____ _____    ______ ____
ROOT
ATOM      1  N   LIG    1        7.609   0.283  -3.840  0.00  0.00    -0.560 N 
ATOM      2  C   LIG    1        8.179   0.680  -2.545  0.00  0.00    +0.320 C 
ATOM      3  C   LIG    1        8.369  -0.577  -1.686  0.00  0.00    +0.310 C 
ATOM      4  N   LIG    1        7.119  -1.349  -1.702  0.00  0.00    -1.000 NA
ATOM      5  C   LIG    1        6.551  -1.751  -2.997  0.00  0.00    +0.310 C 
ATOM      6  C   LIG    1        6.359  -0.490  -3.855  0.00  0.00    +0.260 C 
ENDROOT
BRANCH   4   7
ATOM      7  S   LIG    1        6.367  -1.765  -0.287  0.00  0.00    +2.680 S 
ATOM      8  O   LIG    1        5.571  -2.907  -0.575  0.00  0.00    -0.960 OA
ATOM      9  O   LIG    1        7.370  -1.751   0.720  0.00  0.00    -0.950 OA
BRANCH   7  10
ATOM     10  C   LIG    1        5.246  -0.465   0.110  0.00  0.00    -0.600 C 
ATOM     11  C   LIG    1        3.941  -0.695   0.121  0.00  0.00    +0.210 C 
BRANCH  11  12
ATOM     12  C   LIG    1        3.001   0.396   0.454  0.00  0.00    -0.100 A 
ATOM     13  C   LIG    1        1.626   0.156   0.466  0.00  0.00    +0.040 A 
ATOM     14  C   LIG    1        0.754   1.179   0.778  0.00  0.00    +0.000 A 
ATOM     15  C   LIG    1        1.239   2.439   1.079  0.00  0.00    +0.030 A 
ATOM     16  C   LIG    1        2.601   2.682   1.069  0.00  0.00    +0.000 A 
ATOM     17  C   LIG    1        3.484   1.669   0.758  0.00  0.00    +0.040 A 
ENDBRANCH  11  12
ENDBRANCH   7  10
ENDBRANCH   4   7
BRANCH   1  18
ATOM     18  C   LIG    1        8.220   0.621  -4.992  0.00  0.00    +0.560 C 
ATOM     19  S   LIG    1        9.594   1.643  -4.963  0.00  0.00    -0.610 S 
BRANCH  18  20
ATOM     20  N   LIG    1        7.751   0.155  -6.166  0.00  0.00    -0.630 N 
ATOM     21  H   LIG    1        6.922  -0.348  -6.192  0.00  0.00    +0.400 HD
BRANCH  20  27
ATOM     22  C   LIG    1        7.740   1.284 -10.951  0.00  0.00    +0.090 C 
ATOM     23  C   LIG    1        8.480   0.947  -9.682  0.00  0.00    -0.080 A 
ATOM     24  C   LIG    1        9.861   0.876  -9.685  0.00  0.00    +0.010 A 
ATOM     25  C   LIG    1       10.543   0.568  -8.523  0.00  0.00    +0.020 A 
ATOM     26  C   LIG    1        9.847   0.328  -7.354  0.00  0.00    +0.060 A 
ATOM     27  C   LIG    1        8.459   0.398  -7.348  0.00  0.00    +0.130 A 
ATOM     28  C   LIG    1        7.777   0.702  -8.518  0.00  0.00    -0.010 A 
ENDBRANCH  20  27
ENDBRANCH  18  20
ENDBRANCH   1  18
TORSDOF 6
