REMARK  Name = ZINCnE000001TQoR.0
REMARK                            x       y       z     vdW  Elec       q    Type
REMARK                         _______ _______ _______ _____ _____    ______ ____
ROOT
ATOM      1  C   LIG    1        1.387   0.757  -2.129  0.00  0.00    -0.140 A 
ATOM      2  C   LIG    1        1.930   0.178  -0.979  0.00  0.00    +0.040 A 
ATOM      3  C   LIG    1        3.218  -0.306  -0.994  0.00  0.00    +0.040 A 
ATOM      4  C   LIG    1        3.987  -0.207  -2.156  0.00  0.00    +0.040 A 
ATOM      5  C   LIG    1        3.447   0.377  -3.304  0.00  0.00    +0.050 A 
ATOM      6  C   LIG    1        2.157   0.855  -3.291  0.00  0.00    +0.080 A 
ENDROOT
BRANCH   1   8
ATOM      7  O   LIG    1       -0.476   1.756  -3.121  0.00  0.00    -0.520 OA
ATOM      8  C   LIG    1        0.003   1.272  -2.114  0.00  0.00    +0.580 C 
ATOM      9  N   LIG    1       -0.729   1.203  -0.985  0.00  0.00    -0.610 N 
ATOM     10  C   LIG    1       -0.193   1.035   0.378  0.00  0.00    +0.260 C 
ATOM     11  C   LIG    1       -1.280   1.625   1.311  0.00  0.00    +0.040 C 
ATOM     12  C   LIG    1       -2.582   1.186   0.583  0.00  0.00    +0.030 C 
ATOM     13  C   LIG    1       -2.195   1.284  -0.908  0.00  0.00    +0.230 C 
BRANCH  13  14
ATOM     14  C   LIG    1       -2.822   0.127  -1.688  0.00  0.00    -0.030 C 
ATOM     15  C   LIG    1       -1.937  -1.129  -1.744  0.00  0.00    +0.010 C 
ATOM     16  C   LIG    1       -2.385  -1.282  -3.209  0.00  0.00    -0.010 C 
ATOM     17  C   LIG    1       -2.631   0.236  -3.211  0.00  0.00    +0.010 C 
ENDBRANCH  13  14
ENDBRANCH   1   8
BRANCH   4  18
ATOM     18  C   LIG    1        5.372  -0.722  -2.170  0.00  0.00    +0.160 A 
ATOM     19  N   LIG    1        6.179  -0.690  -3.192  0.00  0.00    -0.290 NA
ATOM     20  N   LIG    1        7.394  -1.270  -2.796  0.00  0.00    -0.370 NA
ATOM     21  C   LIG    1        7.247  -1.644  -1.507  0.00  0.00    +0.350 A 
ATOM     22  S   LIG    1        8.430  -2.410  -0.534  0.00  0.00    -0.690 S 
ATOM     23  O   LIG    1        6.003  -1.304  -1.127  0.00  0.00    -0.260 OA
ENDBRANCH   4  18
TORSDOF 3
