REMARK  Name = ZINCrH000004ms63.1
REMARK                            x       y       z     vdW  Elec       q    Type
REMARK                         _______ _______ _______ _____ _____    ______ ____
ROOT
ATOM      1  C   LIG    1       -2.779   7.439   2.359  0.00  0.00    -0.040 C 
ATOM      2  C   LIG    1       -3.394   7.410   0.957  0.00  0.00    +0.080 C 
ATOM      3  C   LIG    1       -3.622   5.957   0.535  0.00  0.00    +0.260 C 
ATOM      4  N   LIG    1       -2.341   5.241   0.524  0.00  0.00    -0.360 N 
ATOM      5  C   LIG    1       -1.781   5.202   1.881  0.00  0.00    +0.230 C 
ATOM      6  H   LIG    1       -1.696   5.715  -0.091  0.00  0.00    +0.420 HD
ATOM      7  C   LIG    1       -1.481   6.626   2.353  0.00  0.00    +0.070 C 
ENDROOT
BRANCH   1   8
ATOM      8  C   LIG    1       -2.480   8.864   2.749  0.00  0.00    +0.410 C 
ATOM      9  O   LIG    1       -2.293   9.701   1.891  0.00  0.00    -0.440 OA
BRANCH   8  13
ATOM     10  C   LIG    1       -2.293   9.945   6.840  0.00  0.00    +0.170 A 
ATOM     11  C   LIG    1       -2.078  10.906   5.859  0.00  0.00    -0.020 A 
ATOM     12  C   LIG    1       -2.137  10.562   4.533  0.00  0.00    +0.120 A 
ATOM     13  C   LIG    1       -2.415   9.239   4.168  0.00  0.00    -0.220 A 
ATOM     14  C   LIG    1       -2.636   8.275   5.160  0.00  0.00    +0.100 A 
ATOM     15  C   LIG    1       -2.570   8.629   6.483  0.00  0.00    -0.080 A 
BRANCH  10  17
ATOM     16  C   LIG    1       -2.465   9.255   9.106  0.00  0.00    +0.250 C 
ATOM     17  O   LIG    1       -2.234  10.291   8.150  0.00  0.00    -0.310 OA
ENDBRANCH  10  17
ENDBRANCH   8  13
ENDBRANCH   1   8
BRANCH   4  18
ATOM     18  C   LIG    1       -2.553   3.869   0.044  0.00  0.00    +0.130 C 
BRANCH  18  19
ATOM     19  C   LIG    1       -1.238   3.133   0.029  0.00  0.00    -0.100 A 
ATOM     20  C   LIG    1       -0.050   3.840   0.023  0.00  0.00    -0.030 A 
ATOM     21  C   LIG    1        1.157   3.165   0.008  0.00  0.00    +0.010 A 
ATOM     22  C   LIG    1        1.175   1.783   0.000  0.00  0.00    +0.020 A 
ATOM     23  C   LIG    1       -0.013   1.076   0.008  0.00  0.00    +0.020 A 
ATOM     24  C   LIG    1       -1.219   1.750   0.017  0.00  0.00    -0.040 A 
ATOM     25  C   LIG    1       -2.514   0.979   0.019  0.00  0.00    +0.100 C 
ENDBRANCH  18  19
BRANCH  18  26
ATOM     26  C   LIG    1       -3.123   3.906  -1.350  0.00  0.00    +0.500 C 
ATOM     27  O   LIG    1       -3.165   4.959  -1.963  0.00  0.00    -0.660 OA
ATOM     28  O   LIG    1       -3.544   2.884  -1.864  0.00  0.00    -0.620 OA
ENDBRANCH  18  26
ENDBRANCH   4  18
TORSDOF 6
