REMARK  Name = ZINCqH0000035uu2.1
REMARK                            x       y       z     vdW  Elec       q    Type
REMARK                         _______ _______ _______ _____ _____    ______ ____
ROOT
ATOM      1  N   LIG    1       -1.040  -3.901  -2.202  0.00  0.00    -0.710 N 
ATOM      2  H   LIG    1       -1.942  -4.223  -2.047  0.00  0.00    +0.410 HD
ATOM      3  C   LIG    1       -0.673  -2.683  -1.756  0.00  0.00    +0.610 C 
ATOM      4  O   LIG    1        0.457  -2.279  -1.950  0.00  0.00    -0.510 OA
ENDROOT
BRANCH   3   5
ATOM      5  C   LIG    1       -1.644  -1.839  -1.031  0.00  0.00    -0.040 A 
ATOM      6  N   LIG    1       -2.902  -2.133  -0.739  0.00  0.00    -0.240 NA
ATOM      7  N   LIG    1       -3.422  -1.142  -0.108  0.00  0.00    -0.220 N 
ATOM      8  H   LIG    1       -4.338  -1.117   0.211  0.00  0.00    +0.480 HD
ATOM      9  N   LIG    1       -2.574  -0.189   0.049  0.00  0.00    -0.270 NA
ATOM     10  C   LIG    1       -1.427  -0.543  -0.498  0.00  0.00    +0.110 A 
BRANCH  10  11
ATOM     11  C   LIG    1       -0.174   0.251  -0.550  0.00  0.00    -0.030 A 
ATOM     12  C   LIG    1       -0.230   1.637  -0.687  0.00  0.00    +0.040 A 
ATOM     13  C   LIG    1        0.938   2.370  -0.735  0.00  0.00    +0.000 A 
ATOM     14  C   LIG    1        2.163   1.732  -0.647  0.00  0.00    +0.020 A 
ATOM     15  C   LIG    1        2.224   0.357  -0.511  0.00  0.00    +0.000 A 
ATOM     16  C   LIG    1        1.062  -0.386  -0.463  0.00  0.00    +0.080 A 
ENDBRANCH  10  11
ENDBRANCH   3   5
BRANCH   1  17
ATOM     17  C   LIG    1       -0.077  -4.738  -2.921  0.00  0.00    +0.260 C 
ATOM     18  C   LIG    1       -0.084  -4.365  -4.404  0.00  0.00    +0.030 C 
BRANCH  17  19
ATOM     19  C   LIG    1       -0.464  -6.210  -2.763  0.00  0.00    +0.200 C 
BRANCH  19  20
ATOM     20  C   LIG    1        0.604  -7.079  -3.378  0.00  0.00    -0.100 A 
ATOM     21  C   LIG    1        0.634  -7.274  -4.746  0.00  0.00    +0.060 A 
ATOM     22  C   LIG    1        1.615  -8.066  -5.310  0.00  0.00    +0.050 A 
ATOM     23  C   LIG    1        2.562  -8.672  -4.505  0.00  0.00    -0.080 A 
ATOM     24  C   LIG    1        2.530  -8.481  -3.135  0.00  0.00    +0.050 A 
ATOM     25 BR   LIG    1        3.902  -9.762  -5.276  0.00  0.00    -0.050 Br
ATOM     26  C   LIG    1        1.550  -7.684  -2.572  0.00  0.00    +0.030 A 
ENDBRANCH  19  20
BRANCH  19  28
ATOM     27  C   LIG    1       -2.515  -7.449  -2.797  0.00  0.00    +0.210 C 
ATOM     28  O   LIG    1       -1.709  -6.449  -3.422  0.00  0.00    -0.370 OA
ENDBRANCH  19  28
ENDBRANCH  17  19
ENDBRANCH   1  17
TORSDOF 6
