REMARK  Name = ZINCqH0000035uu2.0
REMARK                            x       y       z     vdW  Elec       q    Type
REMARK                         _______ _______ _______ _____ _____    ______ ____
ROOT
ATOM      1  N   LIG    1        3.805   4.812   2.380  0.00  0.00    -0.720 N 
ATOM      2  H   LIG    1        3.484   5.720   2.262  0.00  0.00    +0.400 HD
ATOM      3  C   LIG    1        3.256   3.806   1.671  0.00  0.00    +0.600 C 
ATOM      4  O   LIG    1        3.659   2.668   1.819  0.00  0.00    -0.490 OA
ENDROOT
BRANCH   3   5
ATOM      5  C   LIG    1        2.172   4.084   0.720  0.00  0.00    -0.070 A 
ATOM      6  C   LIG    1        1.427   3.159  -0.006  0.00  0.00    +0.110 A 
ATOM      7  N   LIG    1        0.556   3.876  -0.731  0.00  0.00    -0.250 NA
ATOM      8  N   LIG    1        0.732   5.126  -0.495  0.00  0.00    -0.040 NA
ATOM      9  N   LIG    1        1.679   5.311   0.355  0.00  0.00    -0.370 N 
ATOM     10  H   LIG    1        1.989   6.169   0.684  0.00  0.00    +0.450 HD
BRANCH   6  11
ATOM     11  C   LIG    1        1.565   1.683   0.021  0.00  0.00    -0.030 A 
ATOM     12  C   LIG    1        1.716   1.017   1.237  0.00  0.00    +0.060 A 
ATOM     13  C   LIG    1        1.842  -0.357   1.256  0.00  0.00    +0.010 A 
ATOM     14  C   LIG    1        1.820  -1.073   0.073  0.00  0.00    +0.020 A 
ATOM     15  C   LIG    1        1.671  -0.418  -1.136  0.00  0.00    +0.000 A 
ATOM     16  C   LIG    1        1.544   0.956  -1.168  0.00  0.00    +0.050 A 
ENDBRANCH   6  11
ENDBRANCH   3   5
BRANCH   1  17
ATOM     17  C   LIG    1        4.886   4.535   3.329  0.00  0.00    +0.270 C 
ATOM     18  C   LIG    1        4.290   4.145   4.683  0.00  0.00    +0.030 C 
BRANCH  17  19
ATOM     19  C   LIG    1        5.752   5.786   3.495  0.00  0.00    +0.200 C 
BRANCH  19  20
ATOM     20  C   LIG    1        6.939   5.463   4.366  0.00  0.00    -0.100 A 
ATOM     21  C   LIG    1        6.798   5.426   5.740  0.00  0.00    +0.060 A 
ATOM     22  C   LIG    1        7.886   5.125   6.539  0.00  0.00    +0.050 A 
ATOM     23  C   LIG    1        9.117   4.870   5.963  0.00  0.00    -0.080 A 
ATOM     24  C   LIG    1        9.259   4.913   4.587  0.00  0.00    +0.050 A 
ATOM     25 BR   LIG    1       10.607   4.466   7.055  0.00  0.00    -0.050 Br
ATOM     26  C   LIG    1        8.170   5.209   3.789  0.00  0.00    +0.030 A 
ENDBRANCH  19  20
BRANCH  19  28
ATOM     27  C   LIG    1        5.368   8.141   3.719  0.00  0.00    +0.210 C 
ATOM     28  O   LIG    1        4.981   6.822   4.107  0.00  0.00    -0.370 OA
ENDBRANCH  19  28
ENDBRANCH  17  19
ENDBRANCH   1  17
TORSDOF 6
