REMARK  Name = ZINCqH0000002y46.0
REMARK                            x       y       z     vdW  Elec       q    Type
REMARK                         _______ _______ _______ _____ _____    ______ ____
ROOT
ATOM      1  N   LIG    1        2.298   4.005   0.002  0.00  0.00    -0.360 N 
ATOM      2  N   LIG    1        1.245   3.278   0.008  0.00  0.00    -0.190 NA
ATOM      3  C   LIG    1        1.254   1.967   0.001  0.00  0.00    +0.050 A 
ATOM      4  C   LIG    1        2.543   1.258  -0.009  0.00  0.00    -0.030 A 
ATOM      5  C   LIG    1        2.640  -0.129  -0.024  0.00  0.00    +0.070 A 
ATOM      6  C   LIG    1        3.885  -0.721  -0.038  0.00  0.00    +0.050 A 
ATOM      7  C   LIG    1        5.039   0.051  -0.044  0.00  0.00    +0.030 A 
ATOM      8  C   LIG    1        4.966   1.428  -0.036  0.00  0.00    +0.090 A 
ATOM      9  C   LIG    1        3.719   2.044  -0.021  0.00  0.00    -0.140 A 
ATOM     10  C   LIG    1        3.550   3.504  -0.012  0.00  0.00    +0.520 A 
ATOM     11  O   LIG    1        4.517   4.243  -0.017  0.00  0.00    -0.500 OA
ENDROOT
BRANCH   3  12
ATOM     12  C   LIG    1       -0.014   1.212   0.009  0.00  0.00    +0.600 C 
ATOM     13  N   LIG    1       -1.191   1.870   0.018  0.00  0.00    -0.710 N 
ATOM     14  H   LIG    1       -1.204   2.840   0.023  0.00  0.00    +0.410 HD
ATOM     15  O   LIG    1        0.002  -0.004   0.002  0.00  0.00    -0.520 OA
BRANCH  13  16
ATOM     16  C   LIG    1       -2.449   1.120   0.020  0.00  0.00    +0.340 C 
BRANCH  16  17
ATOM     17  C   LIG    1       -3.608   2.083   0.030  0.00  0.00    -0.110 A 
ATOM     18  C   LIG    1       -4.137   2.514   1.233  0.00  0.00    +0.050 A 
ATOM     19  C   LIG    1       -5.197   3.402   1.243  0.00  0.00    +0.030 A 
ATOM     20  C   LIG    1       -5.735   3.851   0.050  0.00  0.00    -0.030 A 
ATOM     21  C   LIG    1       -5.208   3.415  -1.153  0.00  0.00    +0.030 A 
ATOM     22 CL   LIG    1       -7.070   4.959   0.062  0.00  0.00    -0.060 Cl
ATOM     23  C   LIG    1       -4.145   2.532  -1.162  0.00  0.00    +0.050 A 
ENDBRANCH  16  17
ENDBRANCH  13  16
ENDBRANCH   3  12
BRANCH   1  24
ATOM     24  C   LIG    1        2.134   5.461   0.011  0.00  0.00    +0.320 C 
BRANCH  24  25
ATOM     25  C   LIG    1        2.064   5.975  -1.429  0.00  0.00    +0.000 C 
BRANCH  25  27
ATOM     26  C   LIG    1        1.824   8.010  -2.859  0.00  0.00    +0.010 C 
ATOM     27  C   LIG    1        1.894   7.496  -1.419  0.00  0.00    +0.020 C 
ENDBRANCH  25  27
ENDBRANCH  24  25
ENDBRANCH   1  24
TORSDOF 6
