REMARK  Name = ZINCnE000001Oiya.0
REMARK                            x       y       z     vdW  Elec       q    Type
REMARK                         _______ _______ _______ _____ _____    ______ ____
ROOT
ATOM      1  C   LIG    1       -4.726   4.157  -0.021  0.00  0.00    +0.020 A 
ATOM      2  C   LIG    1       -4.403   5.462   0.128  0.00  0.00    -0.020 A 
ATOM      3  S   LIG    1       -2.701   5.615   0.176  0.00  0.00    +0.170 S 
ATOM      4  C   LIG    1       -2.520   3.876  -0.021  0.00  0.00    +0.080 A 
ATOM      5  N   LIG    1       -3.695   3.327  -0.098  0.00  0.00    -0.400 NA
ENDROOT
BRANCH   1  11
ATOM      6  C   LIG    1       -8.000   1.015   2.125  0.00  0.00    +0.030 C 
ATOM      7  C   LIG    1       -7.680   0.546   0.704  0.00  0.00    -0.140 C 
ATOM      8  C   LIG    1       -6.216   0.060   0.605  0.00  0.00    +0.030 C 
ATOM      9  C   LIG    1       -5.430   1.266   0.058  0.00  0.00    +0.260 C 
ATOM     10  N   LIG    1       -6.392   2.371  -0.106  0.00  0.00    -0.590 N 
ATOM     11  C   LIG    1       -6.122   3.692  -0.092  0.00  0.00    +0.600 C 
ATOM     12  O   LIG    1       -7.030   4.499  -0.137  0.00  0.00    -0.540 OA
ATOM     13  C   LIG    1       -7.717   1.734  -0.285  0.00  0.00    +0.280 C 
BRANCH   7  14
ATOM     14  C   LIG    1       -8.633  -0.539   0.275  0.00  0.00    +0.510 C 
ATOM     15  O   LIG    1       -8.288  -1.360  -0.558  0.00  0.00    -0.690 OA
ATOM     16  O   LIG    1       -9.751  -0.596   0.760  0.00  0.00    -0.690 OA
ENDBRANCH   7  14
ENDBRANCH   1  11
BRANCH   4  17
ATOM     17  C   LIG    1       -1.232   3.151  -0.084  0.00  0.00    -0.020 A 
ATOM     18  C   LIG    1       -0.030   3.858  -0.081  0.00  0.00    +0.040 A 
ATOM     19  C   LIG    1        1.168   3.176  -0.139  0.00  0.00    +0.010 A 
ATOM     20  C   LIG    1        1.180   1.794  -0.200  0.00  0.00    +0.050 A 
ATOM     21  C   LIG    1       -0.009   1.086  -0.203  0.00  0.00    +0.030 A 
ATOM     22  C   LIG    1       -1.215   1.756  -0.150  0.00  0.00    -0.010 A 
ATOM     23 CL   LIG    1       -2.706   0.867  -0.160  0.00  0.00    -0.010 Cl
ENDBRANCH   4  17
TORSDOF 3
