REMARK  Name = ZINCrg00000f5uQU.0
REMARK                            x       y       z     vdW  Elec       q    Type
REMARK                         _______ _______ _______ _____ _____    ______ ____
ROOT
ATOM      1  N   LIG    1        1.155   1.882   0.004  0.00  0.00    -0.660 N 
ATOM      2  H   LIG    1        1.159   2.850  -0.063  0.00  0.00    +0.400 HD
ATOM      3  C   LIG    1       -0.014   1.212   0.009  0.00  0.00    +0.720 C 
ATOM      4  N   LIG    1       -1.180   1.889   0.021  0.00  0.00    -0.620 N 
ATOM      5  C   LIG    1       -2.459   1.175   0.126  0.00  0.00    +0.320 C 
ATOM      6  C   LIG    1       -3.252   1.763   1.303  0.00  0.00    +0.020 C 
ATOM      7  C   LIG    1       -3.391   3.275   1.113  0.00  0.00    +0.270 C 
ATOM      8  C   LIG    1       -2.002   3.918   1.099  0.00  0.00    +0.020 C 
ATOM      9  C   LIG    1       -1.194   3.355  -0.075  0.00  0.00    +0.280 C 
ATOM     10  O   LIG    1       -0.018  -0.004  -0.003  0.00  0.00    -0.550 OA
ENDROOT
BRANCH   7  11
ATOM     11  N   LIG    1       -4.177   3.835   2.215  0.00  0.00    -0.550 N 
ATOM     12  C   LIG    1       -3.855   3.768   3.548  0.00  0.00    +0.490 A 
ATOM     13  N   LIG    1       -4.774   4.370   4.231  0.00  0.00    -0.280 NA
ATOM     14  N   LIG    1       -5.741   4.847   3.335  0.00  0.00    -0.550 N 
ATOM     15  H   LIG    1       -6.547   5.335   3.566  0.00  0.00    +0.460 HD
ATOM     16  C   LIG    1       -5.344   4.500   2.093  0.00  0.00    +0.650 A 
ATOM     17  O   LIG    1       -5.931   4.743   1.054  0.00  0.00    -0.550 OA
ENDBRANCH   7  11
BRANCH   1  23
ATOM     18  C   LIG    1        3.915   3.154   0.013  0.00  0.00    +0.360 C 
ATOM     19  N   LIG    1        3.598   1.727   0.101  0.00  0.00    -0.390 N 
ATOM     20  N   LIG    1        4.525   0.682   0.207  0.00  0.00    -0.280 NA
ATOM     21  C   LIG    1        3.868  -0.448   0.263  0.00  0.00    +0.100 A 
ATOM     22  C   LIG    1        2.501  -0.165   0.200  0.00  0.00    -0.100 A 
ATOM     23  C   LIG    1        2.359   1.185   0.095  0.00  0.00    +0.320 A 
BRANCH  21  24
ATOM     24  C   LIG    1        4.481  -1.820   0.381  0.00  0.00    +0.050 C 
ATOM     25  C   LIG    1        4.625  -2.438  -1.013  0.00  0.00    +0.030 C 
ATOM     26  C   LIG    1        5.176  -3.861  -0.874  0.00  0.00    -0.010 C 
ATOM     27  C   LIG    1        4.244  -4.674   0.029  0.00  0.00    +0.200 C 
ATOM     28  O   LIG    1        4.130  -4.028   1.298  0.00  0.00    -0.380 OA
ATOM     29  C   LIG    1        3.576  -2.712   1.236  0.00  0.00    +0.230 C 
ENDBRANCH  21  24
ENDBRANCH   1  23
TORSDOF 3
