REMARK  Name = ZINCrH00000tj1ea.0
REMARK                            x       y       z     vdW  Elec       q    Type
REMARK                         _______ _______ _______ _____ _____    ______ ____
ROOT
ATOM      1  S   LIG    1        5.946  -2.536  -0.731  0.00  0.00    -0.570 S 
ATOM      2  C   LIG    1        4.548  -1.640  -0.317  0.00  0.00    +0.480 A 
ATOM      3  N   LIG    1        3.313  -2.141  -0.111  0.00  0.00    -0.380 N 
ATOM      4  N   LIG    1        2.468  -1.068   0.204  0.00  0.00    -0.260 NA
ATOM      5  C   LIG    1        3.181   0.025   0.184  0.00  0.00    +0.350 A 
ATOM      6  N   LIG    1        4.481  -0.304  -0.144  0.00  0.00    -0.490 N 
ENDROOT
BRANCH   5   7
ATOM      7  C   LIG    1        2.679   1.387   0.461  0.00  0.00    -0.130 A 
ATOM      8  C   LIG    1        3.419   2.522   0.544  0.00  0.00    +0.280 A 
ATOM      9  N   LIG    1        2.606   3.583   0.813  0.00  0.00    -0.580 N 
ATOM     10  H   LIG    1        2.906   4.500   0.918  0.00  0.00    +0.430 HD
ATOM     11  C   LIG    1        1.296   3.166   0.914  0.00  0.00    +0.090 A 
ATOM     12  C   LIG    1        0.102   3.831   1.171  0.00  0.00    +0.000 A 
ATOM     13  C   LIG    1       -1.082   3.127   1.212  0.00  0.00    +0.040 A 
ATOM     14  C   LIG    1       -1.098   1.757   0.993  0.00  0.00    +0.000 A 
ATOM     15  C   LIG    1        0.075   1.079   0.744  0.00  0.00    +0.070 A 
ATOM     16  C   LIG    1        1.280   1.778   0.700  0.00  0.00    -0.070 A 
ENDBRANCH   5   7
BRANCH   3  17
ATOM     17  C   LIG    1        2.925  -3.551  -0.200  0.00  0.00    +0.510 C 
BRANCH  17  18
ATOM     18  N   LIG    1        2.177  -3.776  -1.445  0.00  0.00    -0.520 NA
ATOM     19  C   LIG    1        2.740  -2.968  -2.557  0.00  0.00    +0.160 C 
ATOM     20  C   LIG    1        2.218  -3.695  -3.822  0.00  0.00    +0.020 C 
ATOM     21  C   LIG    1        2.289  -5.186  -3.418  0.00  0.00    +0.020 C 
ATOM     22  C   LIG    1        2.279  -5.186  -1.878  0.00  0.00    +0.190 C 
ENDBRANCH  17  18
ENDBRANCH   3  17
BRANCH   6  23
ATOM     23  C   LIG    1        5.597   0.635  -0.278  0.00  0.00    +0.330 C 
BRANCH  23  24
ATOM     24  C   LIG    1        6.202   0.907   1.101  0.00  0.00    +0.140 C 
ATOM     25  C   LIG    1        7.299   1.987   0.987  0.00  0.00    +0.030 C 
ATOM     26  C   LIG    1        8.383   1.459   1.968  0.00  0.00    +0.020 C 
ATOM     27  C   LIG    1        8.225  -0.071   1.787  0.00  0.00    +0.210 C 
ATOM     28  O   LIG    1        6.816  -0.284   1.606  0.00  0.00    -0.350 OA
ENDBRANCH  23  24
ENDBRANCH   6  23
TORSDOF 5
