REMARK  Name = ZINCpe00000c96h2.0
REMARK                            x       y       z     vdW  Elec       q    Type
REMARK                         _______ _______ _______ _____ _____    ______ ____
ROOT
ATOM      1  O   LIG    1        4.662  -4.027   2.082  0.00  0.00    -0.520 OA
ATOM      2  C   LIG    1        4.229  -3.572   1.044  0.00  0.00    +0.510 C 
ATOM      3  N   LIG    1        3.255  -2.641   1.070  0.00  0.00    -0.610 N 
ATOM      4  C   LIG    1        2.708  -2.166   2.349  0.00  0.00    +0.300 C 
ATOM      5  C   LIG    1        2.800  -0.638   2.386  0.00  0.00    +0.050 C 
ATOM      6  C   LIG    1        2.107  -0.057   1.151  0.00  0.00    +0.130 C 
ATOM      7  C   LIG    1        2.171   1.471   1.204  0.00  0.00    +0.030 C 
ATOM      8  C   LIG    1        1.421   2.049  -0.001  0.00  0.00    +0.260 C 
ATOM      9  C   LIG    1       -0.019   1.527   0.010  0.00  0.00    +0.010 C 
ATOM     10  C   LIG    1        0.002  -0.004   0.002  0.00  0.00    +0.230 C 
ATOM     11  C   LIG    1        2.812  -0.553  -0.113  0.00  0.00    -0.000 C 
ATOM     12  O   LIG    1        0.741  -0.475   1.131  0.00  0.00    -0.360 OA
ATOM     13  C   LIG    1        2.720  -2.081  -0.178  0.00  0.00    +0.280 C 
ENDROOT
BRANCH   8  14
ATOM     14  N   LIG    1        1.413   3.511   0.082  0.00  0.00    -0.290 N 
ATOM     15  C   LIG    1        0.529   4.261   0.779  0.00  0.00    +0.160 A 
ATOM     16  C   LIG    1        0.888   5.551   0.580  0.00  0.00    -0.020 A 
ATOM     17  N   LIG    1        1.961   5.527  -0.219  0.00  0.00    -0.250 NA
ATOM     18  N   LIG    1        2.250   4.304  -0.491  0.00  0.00    -0.080 NA
BRANCH  16  19
ATOM     19  C   LIG    1        0.212   6.773   1.146  0.00  0.00    +0.250 C 
ATOM     20  C   LIG    1        1.238   7.633   1.909  0.00  0.00    +0.010 C 
ATOM     21  C   LIG    1        1.190   9.005   1.193  0.00  0.00    +0.010 C 
ATOM     22  C   LIG    1       -0.192   8.958   0.493  0.00  0.00    +0.210 C 
ATOM     23  O   LIG    1       -0.313   7.580   0.079  0.00  0.00    -0.360 OA
ENDBRANCH  16  19
ENDBRANCH   8  14
BRANCH   2  24
ATOM     24  C   LIG    1        4.780  -4.049  -0.275  0.00  0.00    +0.220 C 
BRANCH  24  25
ATOM     25  O   LIG    1        5.794  -5.029  -0.042  0.00  0.00    -0.550 OA
ATOM     26  H   LIG    1        6.194  -5.381  -0.849  0.00  0.00    +0.390 HD
ENDBRANCH  24  25
ENDBRANCH   2  24
TORSDOF 4
