REMARK  Name = ZINCkj000005jJh5.0
REMARK                            x       y       z     vdW  Elec       q    Type
REMARK                         _______ _______ _______ _____ _____    ______ ____
ROOT
ATOM      1  C   LIG    1        3.459   3.622  -0.404  0.00  0.00    +0.180 C 
ATOM      2  C   LIG    1        3.688   2.162  -0.011  0.00  0.00    +0.150 C 
ATOM      3  C   LIG    1        2.375   1.421  -0.011  0.00  0.00    -0.090 A 
ATOM      4  C   LIG    1        2.393   0.036  -0.019  0.00  0.00    +0.040 A 
ATOM      5  C   LIG    1        1.210  -0.677  -0.013  0.00  0.00    +0.050 A 
ATOM      6  C   LIG    1        0.002  -0.004   0.002  0.00  0.00    +0.040 A 
ATOM      7  C   LIG    1       -0.017   1.377   0.010  0.00  0.00    +0.050 A 
ATOM      8  C   LIG    1        1.170   2.093   0.002  0.00  0.00    -0.140 A 
ATOM      9  C   LIG    1        1.103   3.598   0.004  0.00  0.00    +0.340 C 
ATOM     10  N   LIG    1        2.382   4.170   0.434  0.00  0.00    -0.490 N 
ATOM     11  H   LIG    1        2.551   3.932   1.400  0.00  0.00    +0.440 HD
ATOM     12  H   LIG    1        2.353   5.174   0.333  0.00  0.00    +0.440 HD
ENDROOT
BRANCH   1  15
ATOM     13  N   LIG    1        5.847   4.082  -0.851  0.00  0.00    -0.690 N 
ATOM     14  H   LIG    1        5.842   3.339  -1.474  0.00  0.00    +0.410 HD
ATOM     15  C   LIG    1        4.724   4.410  -0.182  0.00  0.00    +0.510 C 
ATOM     16  O   LIG    1        4.731   5.339   0.597  0.00  0.00    -0.530 OA
BRANCH  13  18
ATOM     17  C   LIG    1        7.816   4.295   0.584  0.00  0.00    +0.040 C 
ATOM     18  C   LIG    1        7.077   4.848  -0.635  0.00  0.00    +0.250 C 
BRANCH  18  19
ATOM     19  C   LIG    1        7.973   4.733  -1.870  0.00  0.00    +0.150 C 
ATOM     20  C   LIG    1        9.257   5.581  -1.685  0.00  0.00    +0.030 C 
ATOM     21  C   LIG    1       10.234   4.849  -2.645  0.00  0.00    +0.010 C 
ATOM     22  C   LIG    1        9.782   3.379  -2.514  0.00  0.00    +0.190 C 
ATOM     23  O   LIG    1        8.436   3.382  -2.026  0.00  0.00    -0.380 OA
ENDBRANCH  18  19
ENDBRANCH  13  18
ENDBRANCH   1  15
TORSDOF 3
