REMARK  Name = ZINCpk00000y6ukT.0
REMARK                            x       y       z     vdW  Elec       q    Type
REMARK                         _______ _______ _______ _____ _____    ______ ____
ROOT
ATOM      1  N   LIG    1       -3.851   3.650   5.681  0.00  0.00    -0.630 N 
ATOM      2  C   LIG    1       -4.023   2.658   6.567  0.00  0.00    +0.710 C 
ATOM      3  N   LIG    1       -2.879   2.048   6.925  0.00  0.00    -0.740 N 
ATOM      4  H   LIG    1       -2.791   1.343   7.586  0.00  0.00    +0.430 HD
ATOM      5  C   LIG    1       -1.793   2.638   6.147  0.00  0.00    +0.200 C 
ATOM      6  C   LIG    1       -0.516   2.800   6.899  0.00  0.00    +0.280 C 
ATOM      7  N   LIG    1       -0.251   4.155   7.346  0.00  0.00    -0.600 N 
ATOM      8  C   LIG    1       -0.614   5.304   6.529  0.00  0.00    +0.290 C 
ATOM      9  C   LIG    1       -2.014   5.189   6.006  0.00  0.00    +0.010 C 
ATOM     10  C   LIG    1        0.342   4.354   8.540  0.00  0.00    +0.570 C 
ATOM     11  O   LIG    1        0.640   5.480   8.891  0.00  0.00    -0.520 OA
ATOM     12  O   LIG    1       -5.112   2.339   7.003  0.00  0.00    -0.570 OA
ATOM     13  C   LIG    1       -2.397   3.836   5.450  0.00  0.00    +0.240 C 
ENDROOT
BRANCH  10  14
ATOM     14  C   LIG    1        0.629   3.208   9.420  0.00  0.00    -0.090 A 
ATOM     15  C   LIG    1        0.206   3.218  10.764  0.00  0.00    -0.060 A 
ATOM     16  C   LIG    1       -0.520   4.177  11.593  0.00  0.00    -0.050 A 
ATOM     17  C   LIG    1       -0.634   3.631  12.817  0.00  0.00    +0.240 A 
ATOM     18  N   LIG    1       -0.039   2.402  12.836  0.00  0.00    -0.590 N 
ATOM     19  H   LIG    1        0.007   1.817  13.608  0.00  0.00    +0.420 HD
ATOM     20  C   LIG    1        0.486   2.118  11.595  0.00  0.00    +0.090 A 
ATOM     21  C   LIG    1        1.179   1.029  11.078  0.00  0.00    +0.030 A 
ATOM     22  C   LIG    1        1.589   1.027   9.760  0.00  0.00    +0.020 A 
ATOM     23  C   LIG    1        1.318   2.099   8.930  0.00  0.00    +0.020 A 
ENDBRANCH  10  14
BRANCH   1  24
ATOM     24  C   LIG    1       -4.922   4.426   5.049  0.00  0.00    +0.340 C 
BRANCH  24  25
ATOM     25  C   LIG    1       -5.344   3.745   3.746  0.00  0.00    +0.150 C 
BRANCH  25  27
ATOM     26  C   LIG    1       -6.354   1.748   2.885  0.00  0.00    +0.200 C 
ATOM     27  O   LIG    1       -5.923   2.471   4.040  0.00  0.00    -0.370 OA
ENDBRANCH  25  27
ENDBRANCH  24  25
ENDBRANCH   1  24
TORSDOF 4
