REMARK  Name = ZINCnE000001CUdw.1
REMARK                            x       y       z     vdW  Elec       q    Type
REMARK                         _______ _______ _______ _____ _____    ______ ____
ROOT
ATOM      1  C   LIG    1        6.170  -3.664   1.021  0.00  0.00    +0.660 C 
ATOM      2  N   LIG    1        5.212  -3.222   0.182  0.00  0.00    -0.590 N 
ATOM      3  C   LIG    1        4.327  -4.162  -0.523  0.00  0.00    +0.310 C 
ATOM      4  C   LIG    1        2.890  -3.954  -0.040  0.00  0.00    +0.120 C 
ATOM      5  C   LIG    1        2.576  -2.466  -0.034  0.00  0.00    +0.120 A 
ATOM      6  C   LIG    1        3.528  -1.517  -0.038  0.00  0.00    -0.380 A 
ATOM      7  S   LIG    1        2.753   0.062  -0.023  0.00  0.00    +0.050 S 
ATOM      8  C   LIG    1        1.215  -0.683  -0.013  0.00  0.00    +0.350 A 
ATOM      9  N   LIG    1        1.344  -1.968  -0.016  0.00  0.00    -0.570 NA
ATOM     10  C   LIG    1        5.016  -1.782  -0.058  0.00  0.00    +0.380 C 
ATOM     11  O   LIG    1        6.314  -4.856   1.205  0.00  0.00    -0.580 OA
ENDROOT
BRANCH   8  12
ATOM     12  N   LIG    1        0.002  -0.004   0.002  0.00  0.00    -0.660 NA
ATOM     13  C   LIG    1       -0.016   1.344   0.009  0.00  0.00    +0.460 C 
ATOM     14  O   LIG    1        1.026   1.964   0.003  0.00  0.00    -0.610 OA
BRANCH  13  15
ATOM     15  C   LIG    1       -1.331   2.079   0.020  0.00  0.00    -0.060 C 
ATOM     16  C   LIG    1       -2.123   1.692   1.271  0.00  0.00    +0.050 C 
ATOM     17  C   LIG    1       -2.135   1.706  -1.228  0.00  0.00    +0.050 C 
ATOM     18  C   LIG    1       -1.072   3.587   0.027  0.00  0.00    +0.030 C 
ENDBRANCH  13  15
ENDBRANCH   8  12
BRANCH   1  19
ATOM     19  O   LIG    1        6.966  -2.784   1.656  0.00  0.00    -0.360 OA
BRANCH  19  21
ATOM     20  C   LIG    1        8.917  -4.239   1.750  0.00  0.00    +0.040 C 
ATOM     21  C   LIG    1        7.976  -3.331   2.545  0.00  0.00    +0.130 C 
ATOM     22  C   LIG    1        7.297  -4.142   3.650  0.00  0.00    +0.040 C 
ATOM     23  C   LIG    1        8.778  -2.188   3.171  0.00  0.00    +0.080 C 
ENDBRANCH  19  21
ENDBRANCH   1  19
TORSDOF 4
