REMARK  Name = ZINCpe00000RyPpP.0
REMARK                            x       y       z     vdW  Elec       q    Type
REMARK                         _______ _______ _______ _____ _____    ______ ____
ROOT
ATOM      1  C   UNK A  0       -3.295   2.746  -3.131  0.00  0.00    +0.510 C 
ATOM      2  N   TYR A  1       -3.330   2.813  -1.785  0.00  0.00    -0.720 N 
ATOM      3  H   TYR A  1       -3.457   2.005  -1.263  0.00  0.00    +0.400 HD
ATOM      4  O   UNK A  0       -3.228   3.764  -3.787  0.00  0.00    -0.500 OA
ENDROOT
BRANCH   1   5
ATOM      5  C   UNK A  0       -3.337   1.407  -3.820  0.00  0.00    +0.290 C 
BRANCH   5   6
ATOM      6  N   UNK A  0       -2.931   1.564  -5.219  0.00  0.00    -0.620 N 
ATOM      7  C   UNK A  0       -1.883   0.785  -5.895  0.00  0.00    +0.250 C 
ATOM      8  C   UNK A  0       -1.869   1.350  -7.329  0.00  0.00    +0.250 C 
ATOM      9  N   UNK A  0       -2.910   2.389  -7.308  0.00  0.00    -0.750 N 
ATOM     10  H   UNK A  0       -3.162   2.946  -8.060  0.00  0.00    +0.430 HD
ATOM     11  C   UNK A  0       -3.459   2.437  -6.087  0.00  0.00    +0.700 C 
ATOM     12  O   UNK A  0       -4.352   3.207  -5.792  0.00  0.00    -0.540 OA
ENDBRANCH   5   6
BRANCH   5  14
ATOM     13  C   UNK A  0       -5.738   1.886  -4.317  0.00  0.00    +0.040 C 
ATOM     14  C   UNK A  0       -4.760   0.848  -3.763  0.00  0.00    -0.070 C 
ATOM     15  C   UNK A  0       -5.124   0.529  -2.311  0.00  0.00    +0.040 C 
ATOM     16  C   UNK A  0       -4.841  -0.429  -4.601  0.00  0.00    +0.040 C 
ENDBRANCH   5  14
ENDBRANCH   1   5
BRANCH   2  17
ATOM     17  CA  TYR A  1       -3.176   4.105  -1.112  0.00  0.00    +0.260 C 
BRANCH  17  18
ATOM     18  CB  TYR A  1       -2.638   3.881   0.303  0.00  0.00    +0.100 C 
BRANCH  18  19
ATOM     19  CG  TYR A  1       -1.248   3.304   0.226  0.00  0.00    -0.090 A 
ATOM     20  CD2 TYR A  1       -1.071   1.933   0.186  0.00  0.00    +0.020 A 
ATOM     21  CE2 TYR A  1        0.202   1.401   0.120  0.00  0.00    -0.010 A 
ATOM     22  CZ  TYR A  1        1.304   2.243   0.084  0.00  0.00    +0.100 A 
ATOM     23  CE1 TYR A  1        1.124   3.619   0.120  0.00  0.00    -0.010 A 
ATOM     24  CD1 TYR A  1       -0.151   4.146   0.191  0.00  0.00    +0.030 A 
BRANCH  22  25
ATOM     25  OH  TYR A  1        2.557   1.723   0.014  0.00  0.00    -0.500 OA
ATOM     26  HH  TYR A  1        2.877   1.589  -0.888  0.00  0.00    +0.390 HD
ENDBRANCH  22  25
ENDBRANCH  18  19
ENDBRANCH  17  18
BRANCH  17  27
ATOM     27  C   TYR A  1       -4.534   4.805  -1.036  0.00  0.00    +0.170 C 
BRANCH  27  28
ATOM     28  O   TYR A  1       -5.415   4.047  -0.204  0.00  0.00    -0.570 OA
ATOM     29  H   TYR A  1       -6.297   4.433  -0.110  0.00  0.00    +0.380 HD
ENDBRANCH  27  28
ENDBRANCH  17  27
ENDBRANCH   2  17
TORSDOF 9
