REMARK  Name = ZINCvU0000000EJg.0
REMARK                            x       y       z     vdW  Elec       q    Type
REMARK                         _______ _______ _______ _____ _____    ______ ____
ROOT
ATOM      1  C   LIG    1       -1.014  -0.919  -0.053  0.00  0.00    +0.050 C 
ENDROOT
BRANCH   1   2
ATOM      2  C   LIG    1       -1.746  -0.980  -1.370  0.00  0.00    -0.090 A 
ATOM      3  C   LIG    1       -1.086  -1.406  -2.508  0.00  0.00    +0.040 A 
ATOM      4  C   LIG    1       -1.758  -1.466  -3.714  0.00  0.00    +0.010 A 
ATOM      5  C   LIG    1       -3.087  -1.092  -3.785  0.00  0.00    +0.010 A 
ATOM      6  C   LIG    1       -3.745  -0.661  -2.648  0.00  0.00    +0.000 A 
ATOM      7  C   LIG    1       -3.074  -0.605  -1.440  0.00  0.00    +0.040 A 
ENDBRANCH   1   2
BRANCH   1   8
ATOM      8  C   LIG    1        0.159   0.020  -0.173  0.00  0.00    +0.550 C 
ATOM      9  N   LIG    1       -0.016   1.344   0.009  0.00  0.00    -0.660 N 
ATOM     10  H   LIG    1       -0.908   1.702   0.138  0.00  0.00    +0.420 HD
ATOM     11  O   LIG    1        1.260  -0.416  -0.435  0.00  0.00    -0.490 OA
BRANCH   9  12
ATOM     12  C   LIG    1        1.090   2.203   0.007  0.00  0.00    +0.140 A 
ATOM     13  C   LIG    1        2.311   1.765   0.503  0.00  0.00    +0.060 A 
ATOM     14  C   LIG    1        3.402   2.612   0.495  0.00  0.00    +0.010 A 
ATOM     15  C   LIG    1        3.275   3.901   0.004  0.00  0.00    +0.090 A 
ATOM     16  C   LIG    1        2.057   4.341  -0.485  0.00  0.00    +0.010 A 
ATOM     17  F   LIG    1        4.342   4.729   0.002  0.00  0.00    -0.140 F 
ATOM     18  C   LIG    1        0.965   3.495  -0.484  0.00  0.00    +0.030 A 
ENDBRANCH   9  12
ENDBRANCH   1   8
BRANCH   1  19
ATOM     19  S   LIG    1       -0.421  -2.576   0.386  0.00  0.00    +0.110 S 
BRANCH  19  22
ATOM     20  C   LIG    1       -3.257  -5.127   1.061  0.00  0.00    +0.350 A 
ATOM     21  N   LIG    1       -1.992  -4.770   0.961  0.00  0.00    -0.510 NA
ATOM     22  C   LIG    1       -1.913  -3.481   0.625  0.00  0.00    +0.200 A 
ATOM     23  N   LIG    1       -3.127  -2.998   0.496  0.00  0.00    -0.300 NA
ATOM     24  N   LIG    1       -4.018  -4.047   0.774  0.00  0.00    -0.470 N 
ATOM     25  H   LIG    1       -4.987  -4.005   0.762  0.00  0.00    +0.440 HD
BRANCH  20  29
ATOM     26  C   LIG    1       -4.691  -8.993   2.088  0.00  0.00    +0.150 A 
ATOM     27  C   LIG    1       -3.324  -8.755   2.025  0.00  0.00    -0.010 A 
ATOM     28  C   LIG    1       -2.855  -7.503   1.692  0.00  0.00    +0.130 A 
ATOM     29  C   LIG    1       -3.756  -6.473   1.418  0.00  0.00    -0.080 A 
ATOM     30  C   LIG    1       -5.129  -6.714   1.488  0.00  0.00    +0.070 A 
ATOM     31  C   LIG    1       -5.590  -7.970   1.816  0.00  0.00    -0.070 A 
BRANCH  26  33
ATOM     32  C   LIG    1       -6.567 -10.403   2.464  0.00  0.00    +0.240 C 
ATOM     33  O   LIG    1       -5.149 -10.229   2.417  0.00  0.00    -0.310 OA
ENDBRANCH  26  33
ENDBRANCH  20  29
ENDBRANCH  19  22
ENDBRANCH   1  19
TORSDOF 7
