REMARK  Name = ZINCvU0000000EJg.1
REMARK                            x       y       z     vdW  Elec       q    Type
REMARK                         _______ _______ _______ _____ _____    ______ ____
ROOT
ATOM      1  C   LIG    1       -1.178   2.091  -0.024  0.00  0.00    +0.080 C 
ENDROOT
BRANCH   1   2
ATOM      2  C   LIG    1        0.038   1.206  -0.122  0.00  0.00    -0.090 A 
ATOM      3  C   LIG    1        1.294   1.769  -0.245  0.00  0.00    +0.040 A 
ATOM      4  C   LIG    1        2.409   0.957  -0.342  0.00  0.00    +0.000 A 
ATOM      5  C   LIG    1        2.267  -0.418  -0.315  0.00  0.00    +0.020 A 
ATOM      6  C   LIG    1        1.010  -0.981  -0.191  0.00  0.00    +0.000 A 
ATOM      7  C   LIG    1       -0.105  -0.169  -0.095  0.00  0.00    +0.060 A 
ENDBRANCH   1   2
BRANCH   1   8
ATOM      8  C   LIG    1       -1.276   2.949  -1.260  0.00  0.00    +0.540 C 
ATOM      9  N   LIG    1       -1.875   2.468  -2.367  0.00  0.00    -0.660 N 
ATOM     10  H   LIG    1       -2.175   1.546  -2.395  0.00  0.00    +0.420 HD
ATOM     11  O   LIG    1       -0.816   4.071  -1.257  0.00  0.00    -0.500 OA
BRANCH   9  12
ATOM     12  C   LIG    1       -2.065   3.300  -3.477  0.00  0.00    +0.130 A 
ATOM     13  C   LIG    1       -2.313   4.654  -3.297  0.00  0.00    +0.050 A 
ATOM     14  C   LIG    1       -2.495   5.474  -4.393  0.00  0.00    +0.010 A 
ATOM     15  C   LIG    1       -2.441   4.945  -5.671  0.00  0.00    +0.090 A 
ATOM     16  C   LIG    1       -2.199   3.594  -5.854  0.00  0.00    +0.010 A 
ATOM     17  F   LIG    1       -2.625   5.748  -6.742  0.00  0.00    -0.140 F 
ATOM     18  C   LIG    1       -2.012   2.771  -4.760  0.00  0.00    +0.030 A 
ENDBRANCH   9  12
ENDBRANCH   1   8
BRANCH   1  19
ATOM     19  S   LIG    1       -1.036   3.151   1.436  0.00  0.00    +0.090 S 
BRANCH  19  24
ATOM     20  C   LIG    1       -1.213   0.013   3.716  0.00  0.00    +0.290 A 
ATOM     21  N   LIG    1       -1.103   0.914   4.666  0.00  0.00    -0.300 NA
ATOM     22  N   LIG    1       -1.017   2.165   4.036  0.00  0.00    -0.460 N 
ATOM     23  H   LIG    1       -0.925   3.028   4.469  0.00  0.00    +0.450 HD
ATOM     24  C   LIG    1       -1.091   1.931   2.706  0.00  0.00    +0.250 A 
ATOM     25  N   LIG    1       -1.205   0.634   2.527  0.00  0.00    -0.520 NA
BRANCH  20  29
ATOM     26  C   LIG    1       -1.542  -4.186   4.312  0.00  0.00    +0.150 A 
ATOM     27  C   LIG    1       -1.430  -3.337   5.405  0.00  0.00    -0.010 A 
ATOM     28  C   LIG    1       -1.323  -1.976   5.215  0.00  0.00    +0.100 A 
ATOM     29  C   LIG    1       -1.327  -1.451   3.924  0.00  0.00    -0.060 A 
ATOM     30  C   LIG    1       -1.445  -2.305   2.828  0.00  0.00    +0.110 A 
ATOM     31  C   LIG    1       -1.547  -3.666   3.025  0.00  0.00    -0.080 A 
BRANCH  26  33
ATOM     32  C   LIG    1       -1.761  -6.341   3.334  0.00  0.00    +0.240 C 
ATOM     33  O   LIG    1       -1.648  -5.527   4.503  0.00  0.00    -0.310 OA
ENDBRANCH  26  33
ENDBRANCH  20  29
ENDBRANCH  19  24
ENDBRANCH   1  19
TORSDOF 7
