REMARK  Name = ZINCrD00000F5LCd.0
REMARK                            x       y       z     vdW  Elec       q    Type
REMARK                         _______ _______ _______ _____ _____    ______ ____
ROOT
ATOM      1  C   LIG    1       -1.376   3.095   1.657  0.00  0.00    +0.180 C 
ATOM      2  C   LIG    1       -2.208   3.859   2.708  0.00  0.00    +0.250 C 
ATOM      3  C   LIG    1       -2.626   5.149   1.953  0.00  0.00    +0.030 C 
ATOM      4  C   LIG    1       -2.836   4.614   0.514  0.00  0.00    +0.200 C 
ATOM      5  N   LIG    1       -1.779   3.597   0.331  0.00  0.00    -0.470 N 
ENDROOT
BRANCH   5   6
ATOM      6  C   LIG    1       -2.223   2.558  -0.481  0.00  0.00    +0.230 A 
ATOM      7  C   LIG    1       -1.466   2.158  -1.582  0.00  0.00    +0.070 A 
ATOM      8  C   LIG    1       -1.952   1.119  -2.359  0.00  0.00    +0.040 A 
ATOM      9  C   LIG    1       -3.160   0.540  -1.994  0.00  0.00    +0.070 A 
ATOM     10  N   LIG    1       -3.809   0.982  -0.936  0.00  0.00    -0.230 NA
ATOM     11  C   LIG    1       -3.729  -0.593  -2.808  0.00  0.00    +0.140 C 
ATOM     12  N   LIG    1       -3.363   1.941  -0.209  0.00  0.00    -0.260 NA
ENDBRANCH   5   6
BRANCH   2  13
ATOM     13  N   LIG    1       -1.391   4.186   3.879  0.00  0.00    -0.720 N 
ATOM     14  H   LIG    1       -0.428   4.264   3.792  0.00  0.00    +0.400 HD
ATOM     15  C   LIG    1       -1.977   4.380   5.077  0.00  0.00    +0.550 C 
ATOM     16  O   LIG    1       -3.181   4.283   5.186  0.00  0.00    -0.530 OA
BRANCH  15  17
ATOM     17  C   LIG    1       -1.136   4.716   6.282  0.00  0.00    -0.050 C 
ATOM     18  C   LIG    1       -1.025   3.660   7.383  0.00  0.00    +0.080 C 
ATOM     19  C   LIG    1       -1.860   4.922   7.614  0.00  0.00    +0.050 C 
BRANCH  19  20
ATOM     20  C   LIG    1       -1.306   5.961   8.554  0.00  0.00    -0.060 A 
ATOM     21  C   LIG    1       -0.014   5.843   9.031  0.00  0.00    +0.000 A 
ATOM     22  C   LIG    1        0.494   6.797   9.893  0.00  0.00    +0.000 A 
ATOM     23  C   LIG    1       -0.289   7.868  10.278  0.00  0.00    +0.000 A 
ATOM     24  C   LIG    1       -1.581   7.987   9.800  0.00  0.00    +0.000 A 
ATOM     25  C   LIG    1       -2.088   7.036   8.934  0.00  0.00    -0.070 A 
ATOM     26  C   LIG    1       -3.494   7.168   8.409  0.00  0.00    +0.090 C 
ENDBRANCH  19  20
ENDBRANCH  15  17
ENDBRANCH   2  13
BRANCH   1  28
ATOM     27  C   LIG    1       -1.111   1.057   3.078  0.00  0.00    +0.030 C 
ATOM     28  C   LIG    1       -1.663   1.595   1.756  0.00  0.00    +0.010 C 
ENDBRANCH   1  28
TORSDOF 5
