REMARK  Name = ZINCri00000VuPFX.0
REMARK                            x       y       z     vdW  Elec       q    Type
REMARK                         _______ _______ _______ _____ _____    ______ ____
ROOT
ATOM      1  C   LIG    1        2.423   1.053  -0.015  0.00  0.00    +0.530 C 
ATOM      2  N   LIG    1        3.581   1.742  -0.023  0.00  0.00    -1.110 NA
ATOM      3  O   LIG    1        2.440  -0.165  -0.022  0.00  0.00    -0.650 OA
ENDROOT
BRANCH   2   4
ATOM      4  S   LIG    1        5.027   0.934  -0.041  0.00  0.00    +2.680 S 
ATOM      5  O   LIG    1        5.099   0.270  -1.295  0.00  0.00    -1.030 OA
ATOM      6  O   LIG    1        5.123   0.256   1.204  0.00  0.00    -1.040 OA
BRANCH   4   7
ATOM      7  C   LIG    1        6.303   2.148  -0.047  0.00  0.00    -0.490 A 
ATOM      8  C   LIG    1        6.890   2.690   1.058  0.00  0.00    -0.150 A 
ATOM      9  C   LIG    1        6.780   2.588   2.558  0.00  0.00    +0.110 C 
ATOM     10  C   LIG    1        8.066   3.101   3.237  0.00  0.00    -0.320 C 
ATOM     11  S   LIG    1        8.661   4.310   1.991  0.00  0.00    +2.490 S 
ATOM     12  O   LIG    1        8.059   5.585   2.169  0.00  0.00    -0.970 OA
ATOM     13  O   LIG    1       10.053   4.164   1.746  0.00  0.00    -0.980 OA
ATOM     14  C   LIG    1        7.854   3.598   0.581  0.00  0.00    -0.760 A 
ATOM     15  C   LIG    1        7.820   3.594  -0.761  0.00  0.00    +0.190 A 
ATOM     16  N   LIG    1        6.872   2.696  -1.154  0.00  0.00    -0.470 NA
ENDBRANCH   4   7
ENDBRANCH   2   4
BRANCH   1  18
ATOM     17  C   LIG    1       -0.013   1.076   0.008  0.00  0.00    +0.010 C 
ATOM     18  C   LIG    1        1.147   1.766   0.001  0.00  0.00    +0.030 C 
BRANCH  17  22
ATOM     19  C   LIG    1       -3.714   3.146   0.037  0.00  0.00    +0.110 A 
ATOM     20  C   LIG    1       -3.698   1.756   0.029  0.00  0.00    -0.020 A 
ATOM     21  C   LIG    1       -2.499   1.079   0.020  0.00  0.00    +0.050 A 
ATOM     22  C   LIG    1       -1.296   1.793   0.018  0.00  0.00    -0.060 A 
ATOM     23  C   LIG    1       -1.317   3.193   0.031  0.00  0.00    +0.060 A 
ATOM     24  C   LIG    1       -2.521   3.860   0.035  0.00  0.00    -0.080 A 
BRANCH  19  25
ATOM     25  O   LIG    1       -4.899   3.809   0.045  0.00  0.00    -0.320 OA
BRANCH  25  27
ATOM     26  C   LIG    1       -6.265   5.803   0.062  0.00  0.00    +0.050 C 
ATOM     27  C   LIG    1       -4.843   5.237   0.053  0.00  0.00    +0.170 C 
ENDBRANCH  25  27
ENDBRANCH  19  25
ENDBRANCH  17  22
ENDBRANCH   1  18
TORSDOF 6
