REMARK  Name = ZINCpk00000l736h.0
REMARK                            x       y       z     vdW  Elec       q    Type
REMARK                         _______ _______ _______ _____ _____    ______ ____
ROOT
ATOM      1  O   LIG    1       -0.613   2.434   3.253  0.00  0.00    -0.530 OA
ATOM      2  C   LIG    1       -0.018   2.049   2.269  0.00  0.00    +0.530 C 
ATOM      3  N   LIG    1       -0.703   1.561   1.216  0.00  0.00    -0.610 N 
ATOM      4  C   LIG    1       -0.013   1.086   0.008  0.00  0.00    +0.330 C 
ATOM      5  C   LIG    1       -0.742   1.585  -1.208  0.00  0.00    -0.040 C 
ATOM      6  C   LIG    1       -1.928   2.144  -1.161  0.00  0.00    -0.060 C 
ATOM      7  C   LIG    1       -2.705   2.376   0.101  0.00  0.00    +0.070 C 
ATOM      8  C   LIG    1       -2.175   1.482   1.226  0.00  0.00    +0.290 C 
ENDROOT
BRANCH   6   9
ATOM      9  C   LIG    1       -2.539   2.574  -2.436  0.00  0.00    -0.110 A 
ATOM     10  C   LIG    1       -1.960   3.599  -3.192  0.00  0.00    +0.070 A 
ATOM     11  C   LIG    1       -2.569   3.961  -4.381  0.00  0.00    -0.030 A 
ATOM     12  C   LIG    1       -3.725   3.312  -4.775  0.00  0.00    +0.260 A 
ATOM     13  N   LIG    1       -4.251   2.352  -4.039  0.00  0.00    -0.480 NA
ATOM     14  C   LIG    1       -3.706   1.968  -2.903  0.00  0.00    +0.270 A 
ENDBRANCH   6   9
BRANCH   2  15
ATOM     15  C   LIG    1        1.487   2.115   2.223  0.00  0.00    +0.000 C 
ATOM     16  C   LIG    1        2.103   0.697   2.224  0.00  0.00    +0.090 C 
ATOM     17  C   LIG    1        3.350   0.835   3.070  0.00  0.00    +0.520 C 
ATOM     18  N   LIG    1        3.298   1.970   3.788  0.00  0.00    -0.530 N 
ATOM     19  O   LIG    1        4.263   0.036   3.097  0.00  0.00    -0.520 OA
ATOM     20  C   LIG    1        2.054   2.705   3.533  0.00  0.00    +0.310 C 
BRANCH  18  21
ATOM     21  C   LIG    1        4.307   2.397   4.671  0.00  0.00    +0.000 A 
ATOM     22  C   LIG    1        5.469   1.746   4.933  0.00  0.00    +0.240 A 
ATOM     23  N   LIG    1        6.161   2.489   5.835  0.00  0.00    -0.470 N 
ATOM     24  H   LIG    1        7.029   2.271   6.208  0.00  0.00    +0.450 HD
ATOM     25  N   LIG    1        5.398   3.626   6.132  0.00  0.00    -0.270 NA
ATOM     26  C   LIG    1        4.294   3.575   5.433  0.00  0.00    +0.230 A 
ENDBRANCH  18  21
ENDBRANCH   2  15
TORSDOF 3
