REMARK  Name = ZINCrH00000No4Zd.0
REMARK                            x       y       z     vdW  Elec       q    Type
REMARK                         _______ _______ _______ _____ _____    ______ ____
ROOT
ATOM      1  N   LIG    1       -0.545   4.070   4.782  0.00  0.00    -0.610 N 
ATOM      2  C   LIG    1        0.726   4.510   4.702  0.00  0.00    +0.710 C 
ATOM      3  N   LIG    1        0.986   5.831   4.766  0.00  0.00    -0.690 N 
ATOM      4  H   LIG    1        0.256   6.468   4.803  0.00  0.00    +0.410 HD
ATOM      5  O   LIG    1        1.637   3.717   4.572  0.00  0.00    -0.570 OA
ENDROOT
BRANCH   3   6
ATOM      6  C   LIG    1        2.311   6.284   4.780  0.00  0.00    +0.170 A 
ATOM      7  C   LIG    1        2.654   7.407   5.522  0.00  0.00    +0.010 A 
ATOM      8  C   LIG    1        3.961   7.855   5.544  0.00  0.00    +0.040 A 
ATOM      9  C   LIG    1        4.933   7.196   4.820  0.00  0.00    +0.040 A 
ATOM     10  C   LIG    1        4.598   6.068   4.066  0.00  0.00    -0.010 A 
ATOM     11  C   LIG    1        3.279   5.614   4.049  0.00  0.00    +0.080 A 
BRANCH  10  12
ATOM     12  C   LIG    1        5.605   5.382   3.313  0.00  0.00    +0.260 C 
ATOM     13  N   LIG    1        6.403   4.838   2.716  0.00  0.00    -0.410 NA
ENDBRANCH  10  12
ENDBRANCH   3   6
BRANCH   1  14
ATOM     14  C   LIG    1       -0.829   2.634   4.713  0.00  0.00    +0.380 C 
BRANCH  14  18
ATOM     15  C   LIG    1        0.022   1.071   0.015  0.00  0.00    +0.310 C 
ATOM     16  N   LIG    1       -0.673   1.548   1.214  0.00  0.00    -0.420 N 
ATOM     17  C   LIG    1       -0.092   1.817   2.411  0.00  0.00    +0.240 A 
ATOM     18  C   LIG    1       -1.046   2.234   3.276  0.00  0.00    -0.200 A 
ATOM     19  C   LIG    1       -2.271   2.228   2.599  0.00  0.00    +0.050 A 
ATOM     20  C   LIG    1       -2.021   1.803   1.312  0.00  0.00    +0.040 A 
BRANCH  20  21
ATOM     21  C   LIG    1       -2.989   1.651   0.267  0.00  0.00    +0.280 C 
ATOM     22  N   LIG    1       -3.756   1.531  -0.561  0.00  0.00    -0.410 NA
ENDBRANCH  20  21
ENDBRANCH  14  18
ENDBRANCH   1  14
BRANCH   1  23
ATOM     23  C   LIG    1       -1.644   5.026   4.939  0.00  0.00    +0.280 C 
BRANCH  23  24
ATOM     24  C   LIG    1       -1.904   5.265   6.427  0.00  0.00    -0.040 C 
ATOM     25  C   LIG    1       -2.593   4.042   7.074  0.00  0.00    +0.060 C 
ATOM     26  C   LIG    1       -3.570   4.630   8.066  0.00  0.00    -0.050 C 
ATOM     27  C   LIG    1       -3.777   5.896   7.826  0.00  0.00    -0.050 C 
ATOM     28  C   LIG    1       -2.973   6.363   6.635  0.00  0.00    +0.050 C 
ENDBRANCH  23  24
ENDBRANCH   1  23
TORSDOF 7
