REMARK  Name = ZINCqH0000008aZO.0
REMARK                            x       y       z     vdW  Elec       q    Type
REMARK                         _______ _______ _______ _____ _____    ______ ____
ROOT
ATOM      1  N   LIG    1        0.365   1.357  -7.176  0.00  0.00    -0.630 N 
ATOM      2  H   LIG    1        1.202   0.873  -7.094  0.00  0.00    +0.410 HD
ATOM      3  C   LIG    1       -0.336   1.683  -6.072  0.00  0.00    +0.560 C 
ATOM      4  O   LIG    1       -1.385   2.289  -6.175  0.00  0.00    -0.510 OA
ENDROOT
BRANCH   3   5
ATOM      5  C   LIG    1        0.171   1.302  -4.734  0.00  0.00    -0.060 A 
ATOM      6  C   LIG    1        1.376   0.604  -4.594  0.00  0.00    -0.040 A 
ATOM      7  C   LIG    1        1.815   0.267  -3.330  0.00  0.00    +0.290 A 
ATOM      8  N   LIG    1        1.120   0.598  -2.259  0.00  0.00    -0.500 NA
ATOM      9  C   LIG    1       -0.027   1.253  -2.342  0.00  0.00    +0.320 A 
ATOM     10  C   LIG    1       -0.540   1.630  -3.578  0.00  0.00    +0.020 A 
BRANCH   9  11
ATOM     11  N   LIG    1       -0.723   1.572  -1.182  0.00  0.00    -0.480 N 
ATOM     12  C   LIG    1       -2.095   1.052  -1.231  0.00  0.00    +0.200 C 
ATOM     13  C   LIG    1       -2.873   1.544  -0.009  0.00  0.00    +0.040 C 
ATOM     14  C   LIG    1       -2.170   1.064   1.264  0.00  0.00    +0.010 C 
ATOM     15  C   LIG    1       -0.729   1.579   1.267  0.00  0.00    -0.010 C 
ATOM     16  C   LIG    1       -0.002   1.054   2.507  0.00  0.00    +0.020 C 
ATOM     17  C   LIG    1       -0.013   1.086   0.008  0.00  0.00    +0.210 C 
ENDBRANCH   9  11
ENDBRANCH   3   5
BRANCH   1  20
ATOM     18  N   LIG    1       -0.300   1.971 -10.616  0.00  0.00    -0.360 N 
ATOM     19  C   LIG    1        0.486   1.456  -9.636  0.00  0.00    +0.200 A 
ATOM     20  C   LIG    1       -0.117   1.719  -8.448  0.00  0.00    -0.010 A 
ATOM     21  C   LIG    1       -1.308   2.411  -8.714  0.00  0.00    +0.250 A 
ATOM     22  N   LIG    1       -1.413   2.566 -10.009  0.00  0.00    -0.280 NA
BRANCH  18  24
ATOM     23  C   LIG    1        1.476   2.024 -12.297  0.00  0.00    +0.070 C 
ATOM     24  C   LIG    1       -0.030   1.915 -12.055  0.00  0.00    +0.290 C 
BRANCH  24  25
ATOM     25  C   LIG    1       -0.542   0.587 -12.618  0.00  0.00    -0.070 C 
ATOM     26  C   LIG    1       -1.456   0.645 -13.844  0.00  0.00    +0.040 C 
ATOM     27  C   LIG    1       -2.036   0.288 -12.474  0.00  0.00    +0.030 C 
ENDBRANCH  24  25
ENDBRANCH  18  24
ENDBRANCH   1  20
TORSDOF 5
