REMARK  Name = ZINCpk000000mZYd.0
REMARK                            x       y       z     vdW  Elec       q    Type
REMARK                         _______ _______ _______ _____ _____    ______ ____
ROOT
ATOM      1  C   LIG    1        3.587  -0.008   0.739  0.00  0.00    +0.600 C 
ATOM      2  N   LIG    1        4.027  -1.049   0.004  0.00  0.00    -0.650 N 
ATOM      3  H   LIG    1        3.391  -1.635  -0.436  0.00  0.00    +0.420 HD
ATOM      4  O   LIG    1        4.378   0.669   1.368  0.00  0.00    -0.510 OA
ENDROOT
BRANCH   2   5
ATOM      5  C   LIG    1        5.399  -1.284  -0.126  0.00  0.00    +0.170 A 
ATOM      6  C   LIG    1        6.288  -0.217  -0.149  0.00  0.00    +0.010 A 
ATOM      7  C   LIG    1        7.645  -0.449  -0.271  0.00  0.00    +0.060 A 
ATOM      8  C   LIG    1        8.120  -1.741  -0.382  0.00  0.00    +0.000 A 
ATOM      9  C   LIG    1        7.236  -2.812  -0.365  0.00  0.00    +0.150 A 
ATOM     10  C   LIG    1        5.874  -2.583  -0.237  0.00  0.00    +0.010 A 
BRANCH   9  11
ATOM     11  N   LIG    1        7.720  -4.123  -0.477  0.00  0.00    -0.520 N 
ATOM     12  C   LIG    1        9.027  -4.449  -0.493  0.00  0.00    +0.520 C 
ATOM     13  C   LIG    1        9.072  -5.958  -0.626  0.00  0.00    +0.320 C 
ATOM     14  N   LIG    1        7.652  -6.343  -0.681  0.00  0.00    -0.720 N 
ATOM     15  H   LIG    1        7.298  -7.242  -0.768  0.00  0.00    +0.450 HD
ATOM     16  O   LIG    1        9.972  -3.692  -0.417  0.00  0.00    -0.450 OA
ATOM     17  C   LIG    1        6.941  -5.205  -0.587  0.00  0.00    +0.700 C 
ATOM     18  O   LIG    1        5.726  -5.164  -0.601  0.00  0.00    -0.530 OA
ENDBRANCH   9  11
ENDBRANCH   2   5
BRANCH   1  21
ATOM     19  C   LIG    1        0.012  -0.006   0.241  0.00  0.00    +0.250 A 
ATOM     20  N   LIG    1        1.239  -0.402   0.110  0.00  0.00    -0.480 NA
ATOM     21  C   LIG    1        2.151   0.309   0.781  0.00  0.00    +0.020 A 
ATOM     22  C   LIG    1        1.656   1.338   1.499  0.00  0.00    -0.070 A 
ATOM     23  S   LIG    1       -0.042   1.394   1.306  0.00  0.00    +0.300 S 
BRANCH  19  26
ATOM     24  C   LIG    1       -3.519  -0.737  -0.810  0.00  0.00    +0.140 C 
ATOM     25  C   LIG    1       -2.323  -0.097  -0.153  0.00  0.00    +0.510 C 
ATOM     26  N   LIG    1       -1.090  -0.597  -0.364  0.00  0.00    -0.620 N 
ATOM     27  H   LIG    1       -0.971  -1.370  -0.939  0.00  0.00    +0.430 HD
ATOM     28  O   LIG    1       -2.471   0.869   0.565  0.00  0.00    -0.510 OA
ENDBRANCH  19  26
ENDBRANCH   1  21
TORSDOF 4
