REMARK  Name = ZINCrH000004phM8.0
REMARK                            x       y       z     vdW  Elec       q    Type
REMARK                         _______ _______ _______ _____ _____    ______ ____
ROOT
ATOM      1  C   LIG    1        1.659   1.808  -0.465  0.00  0.00    +0.200 C 
ENDROOT
BRANCH   1   4
ATOM      2  N   LIG    1        3.917   1.809   0.545  0.00  0.00    -0.730 N 
ATOM      3  H   LIG    1        4.257   2.161  -0.293  0.00  0.00    +0.400 HD
ATOM      4  C   LIG    1        2.601   1.551   0.683  0.00  0.00    +0.520 C 
ATOM      5  O   LIG    1        2.176   1.112   1.730  0.00  0.00    -0.520 OA
BRANCH   2   7
ATOM      6  C   LIG    1        5.269   0.093   1.644  0.00  0.00    +0.040 C 
ATOM      7  C   LIG    1        4.833   1.560   1.661  0.00  0.00    +0.280 C 
BRANCH   7   8
ATOM      8  C   LIG    1        6.045   2.446   1.523  0.00  0.00    -0.080 A 
ATOM      9  C   LIG    1        6.608   2.658   0.279  0.00  0.00    +0.020 A 
ATOM     10  C   LIG    1        7.716   3.475   0.152  0.00  0.00    +0.050 A 
ATOM     11  C   LIG    1        8.267   4.071   1.272  0.00  0.00    -0.090 A 
ATOM     12  C   LIG    1        7.706   3.854   2.518  0.00  0.00    +0.060 A 
ATOM     13 BR   LIG    1        9.788   5.182   1.100  0.00  0.00    -0.050 Br
ATOM     14  C   LIG    1        6.595   3.041   2.643  0.00  0.00    +0.040 A 
ENDBRANCH   7   8
ENDBRANCH   2   7
ENDBRANCH   1   4
BRANCH   1  15
ATOM     15  N   LIG    1        0.291   1.448  -0.065  0.00  0.00    -0.510 NA
ATOM     16  C   LIG    1        0.174   0.002   0.167  0.00  0.00    +0.210 C 
BRANCH  15  17
ATOM     17  C   LIG    1       -0.685   1.902  -1.064  0.00  0.00    +0.170 C 
ATOM     18  C   LIG    1       -2.088   1.461  -0.642  0.00  0.00    +0.060 C 
BRANCH  17  19
ATOM     19  C   LIG    1       -0.641   3.405  -1.163  0.00  0.00    -0.030 A 
ATOM     20  C   LIG    1       -0.627   4.174  -0.014  0.00  0.00    +0.030 A 
ATOM     21  C   LIG    1       -0.582   5.553  -0.105  0.00  0.00    +0.110 A 
ATOM     22  C   LIG    1       -0.559   6.163  -1.345  0.00  0.00    -0.660 A 
ATOM     23  C   LIG    1       -0.578   5.395  -2.494  0.00  0.00    +0.120 A 
ATOM     24  C   LIG    1       -0.619   4.016  -2.403  0.00  0.00    -0.010 A 
BRANCH  22  25
ATOM     25  S   LIG    1       -0.507   7.920  -1.461  0.00  0.00    +2.500 S 
ATOM     26  O   LIG    1        0.110   8.171  -2.716  0.00  0.00    -0.940 OA
ATOM     27  O   LIG    1        0.106   8.334  -0.248  0.00  0.00    -0.940 OA
ATOM     28  C   LIG    1       -2.250   8.423  -1.497  0.00  0.00    -0.260 C 
ENDBRANCH  22  25
ENDBRANCH  17  19
ENDBRANCH  15  17
ENDBRANCH   1  15
TORSDOF 7
