REMARK  Name = ZINCpe00000zbXmy.0
REMARK                            x       y       z     vdW  Elec       q    Type
REMARK                         _______ _______ _______ _____ _____    ______ ____
ROOT
ATOM      1  C   LIG    1        2.257   3.568  -0.987  0.00  0.00    +0.570 C 
ATOM      2  N   LIG    1        1.714   2.961   0.087  0.00  0.00    -0.610 N 
ATOM      3  C   LIG    1        0.263   2.747   0.170  0.00  0.00    +0.270 C 
ATOM      4  C   LIG    1       -0.000   1.254   0.402  0.00  0.00    +0.290 C 
ATOM      5  N   LIG    1        0.849   0.794   1.510  0.00  0.00    -0.600 N 
ATOM      6  C   LIG    1        2.300   1.008   1.426  0.00  0.00    +0.280 C 
ATOM      7  C   LIG    1        0.305   0.187   2.584  0.00  0.00    +0.610 C 
ATOM      8  O   LIG    1       -0.903   0.118   2.696  0.00  0.00    -0.520 OA
ATOM      9  C   LIG    1        2.563   2.501   1.195  0.00  0.00    +0.280 C 
ATOM     10  O   LIG    1        3.466   3.647  -1.094  0.00  0.00    -0.510 OA
ENDROOT
BRANCH   1  15
ATOM     11  C   LIG    1        3.159   2.508  -6.386  0.00  0.00    +0.240 C 
ATOM     12  C   LIG    1        2.337   3.192  -5.324  0.00  0.00    +0.260 A 
ATOM     13  N   LIG    1        2.564   3.117  -4.045  0.00  0.00    -0.470 NA
ATOM     14  C   LIG    1        1.631   3.854  -3.391  0.00  0.00    +0.070 A 
ATOM     15  C   LIG    1        1.386   4.134  -2.033  0.00  0.00    -0.080 A 
ATOM     16  C   LIG    1        0.316   4.957  -1.687  0.00  0.00    +0.050 A 
ATOM     17  C   LIG    1       -0.500   5.488  -2.668  0.00  0.00    +0.050 A 
ATOM     18  C   LIG    1       -0.269   5.212  -4.002  0.00  0.00    +0.080 A 
ATOM     19  C   LIG    1        0.789   4.398  -4.373  0.00  0.00    +0.000 A 
ATOM     20  O   LIG    1        1.260   3.956  -5.560  0.00  0.00    -0.210 OA
ENDBRANCH   1  15
BRANCH   7  21
ATOM     21  C   LIG    1        1.179  -0.394   3.625  0.00  0.00    -0.040 A 
ATOM     22  N   LIG    1        2.495  -0.532   3.581  0.00  0.00    -0.250 NA
ATOM     23  N   LIG    1        2.886  -1.077   4.678  0.00  0.00    -0.230 N 
ATOM     24  H   LIG    1        3.810  -1.282   4.890  0.00  0.00    +0.470 HD
ATOM     25  N   LIG    1        1.890  -1.321   5.454  0.00  0.00    -0.280 NA
ATOM     26  C   LIG    1        0.785  -0.924   4.870  0.00  0.00    +0.250 A 
ENDBRANCH   7  21
TORSDOF 2
