REMARK  Name = ZINCrH00000No4T3.0
REMARK                            x       y       z     vdW  Elec       q    Type
REMARK                         _______ _______ _______ _____ _____    ______ ____
ROOT
ATOM      1  C   LIG    1        2.671   5.412   0.239  0.00  0.00    +0.160 C 
ATOM      2  C   LIG    1        4.033   5.591   0.914  0.00  0.00    +0.060 C 
ATOM      3  C   LIG    1        4.534   7.011   0.618  0.00  0.00    +0.270 C 
ATOM      4  O   LIG    1        4.758   7.125  -0.788  0.00  0.00    -0.300 OA
ATOM      5  C   LIG    1        3.771   6.708  -1.625  0.00  0.00    +0.120 A 
ATOM      6  C   LIG    1        3.804   7.128  -2.952  0.00  0.00    +0.100 A 
ATOM      7  C   LIG    1        2.821   6.721  -3.835  0.00  0.00    +0.020 A 
ATOM      8  C   LIG    1        1.800   5.894  -3.398  0.00  0.00    +0.100 A 
ATOM      9  C   LIG    1        1.765   5.478  -2.080  0.00  0.00    +0.040 A 
ATOM     10  F   LIG    1        0.839   5.495  -4.259  0.00  0.00    -0.130 F 
ATOM     11  F   LIG    1        4.800   7.934  -3.379  0.00  0.00    -0.120 F 
ATOM     12  C   LIG    1        2.748   5.885  -1.191  0.00  0.00    -0.130 A 
ENDROOT
BRANCH   1  13
ATOM     13  C   LIG    1        2.285   3.956   0.266  0.00  0.00    +0.500 C 
ATOM     14  N   LIG    1        1.697   3.435   1.361  0.00  0.00    -0.650 N 
ATOM     15  H   LIG    1        1.505   4.002   2.124  0.00  0.00    +0.420 HD
ATOM     16  O   LIG    1        2.505   3.252  -0.697  0.00  0.00    -0.490 OA
BRANCH  14  17
ATOM     17  C   LIG    1        1.363   2.079   1.396  0.00  0.00    +0.100 A 
ATOM     18  C   LIG    1        1.266   1.346   0.233  0.00  0.00    +0.240 A 
ATOM     19  N   LIG    1        0.950   0.059   0.247  0.00  0.00    -0.460 NA
ATOM     20  C   LIG    1        0.710  -0.603   1.355  0.00  0.00    +0.290 A 
ATOM     21  C   LIG    1        0.782   0.049   2.597  0.00  0.00    -0.090 A 
ATOM     22  C   LIG    1        0.533  -0.623   3.804  0.00  0.00    +0.060 A 
ATOM     23  C   LIG    1        0.618   0.058   4.981  0.00  0.00    +0.010 A 
ATOM     24  C   LIG    1        0.947   1.412   5.006  0.00  0.00    +0.040 A 
ATOM     25  C   LIG    1        1.200   2.094   3.853  0.00  0.00    +0.010 A 
ATOM     26  C   LIG    1        1.117   1.427   2.625  0.00  0.00    -0.040 A 
ENDBRANCH  14  17
ENDBRANCH   1  13
BRANCH   1  28
ATOM     27  C   LIG    1        0.357   6.001   0.452  0.00  0.00    +0.230 C 
ATOM     28  O   LIG    1        1.689   6.178   0.940  0.00  0.00    -0.360 OA
ENDBRANCH   1  28
TORSDOF 3
