REMARK  Name = ZINCpk00000RNgDw.0
REMARK                            x       y       z     vdW  Elec       q    Type
REMARK                         _______ _______ _______ _____ _____    ______ ____
ROOT
ATOM      1  C   LIG    1        5.257  -0.990  -3.284  0.00  0.00    -0.100 A 
ATOM      2  C   LIG    1        5.297  -0.579  -1.981  0.00  0.00    +0.330 A 
ATOM      3  N   LIG    1        4.125  -0.939  -1.422  0.00  0.00    -0.360 N 
ATOM      4  N   LIG    1        3.380  -1.582  -2.420  0.00  0.00    -0.040 NA
ATOM      5  N   LIG    1        4.074  -1.589  -3.504  0.00  0.00    -0.200 NA
ENDROOT
BRANCH   1   7
ATOM      6  O   LIG    1        7.362  -0.246  -3.965  0.00  0.00    -0.510 OA
ATOM      7  C   LIG    1        6.330  -0.806  -4.279  0.00  0.00    +0.620 C 
ATOM      8  N   LIG    1        6.166  -1.260  -5.538  0.00  0.00    -0.490 N 
ATOM      9  H   LIG    1        5.342  -1.707  -5.789  0.00  0.00    +0.450 HD
BRANCH   8  10
ATOM     10  N   LIG    1        7.185  -1.086  -6.484  0.00  0.00    -0.100 N 
ATOM     11  C   LIG    1        8.376  -0.482  -6.264  0.00  0.00    +0.190 A 
ATOM     12  C   LIG    1        9.047  -0.534  -7.438  0.00  0.00    +0.150 A 
ATOM     13  N   LIG    1        8.245  -1.159  -8.307  0.00  0.00    -0.250 NA
ATOM     14  N   LIG    1        7.151  -1.477  -7.709  0.00  0.00    -0.090 NA
ENDBRANCH   8  10
ENDBRANCH   1   7
BRANCH   3  15
ATOM     15  C   LIG    1        3.711  -0.707  -0.036  0.00  0.00    +0.420 C 
BRANCH  15  16
ATOM     16  C   LIG    1        2.396   0.029  -0.020  0.00  0.00    -0.140 A 
ATOM     17  C   LIG    1        1.209  -0.678  -0.013  0.00  0.00    +0.130 A 
ATOM     18  C   LIG    1        0.002  -0.004   0.002  0.00  0.00    +0.010 A 
ATOM     19  C   LIG    1       -0.017   1.380   0.010  0.00  0.00    +0.170 A 
ATOM     20  C   LIG    1        1.174   2.088   0.002  0.00  0.00    -0.230 A 
ATOM     21  F   LIG    1       -1.195   2.040   0.019  0.00  0.00    -0.120 F 
ATOM     22  C   LIG    1        2.379   1.412  -0.013  0.00  0.00    +0.130 A 
BRANCH  20  23
ATOM     23  C   LIG    1        1.155   3.595   0.010  0.00  0.00    +0.510 C 
ATOM     24  F   LIG    1        0.500   4.047   1.161  0.00  0.00    -0.170 F 
ATOM     25  F   LIG    1        0.479   4.058  -1.124  0.00  0.00    -0.170 F 
ATOM     26  F   LIG    1        2.468   4.077   0.000  0.00  0.00    -0.170 F 
ENDBRANCH  20  23
ENDBRANCH  15  16
ENDBRANCH   3  15
TORSDOF 5
