REMARK  Name = ZINCqH0000001Kbk.0
REMARK                            x       y       z     vdW  Elec       q    Type
REMARK                         _______ _______ _______ _____ _____    ______ ____
ROOT
ATOM      1  N   LIG    1       -4.090  -7.159  -2.358  0.00  0.00    -0.310 N 
ATOM      2  N   LIG    1       -4.485  -8.300  -1.638  0.00  0.00    -0.060 NA
ATOM      3  N   LIG    1       -4.369  -8.012  -0.387  0.00  0.00    -0.020 NA
ATOM      4  N   LIG    1       -3.937  -6.812  -0.239  0.00  0.00    -0.320 NA
ATOM      5  C   LIG    1       -3.754  -6.240  -1.410  0.00  0.00    +0.210 A 
ENDROOT
BRANCH   1   9
ATOM      6  C   LIG    1       -3.971  -6.691  -6.499  0.00  0.00    -0.060 A 
ATOM      7  C   LIG    1       -3.669  -7.916  -5.934  0.00  0.00    +0.040 A 
ATOM      8  C   LIG    1       -3.708  -8.074  -4.562  0.00  0.00    +0.050 A 
ATOM      9  C   LIG    1       -4.050  -7.002  -3.751  0.00  0.00    +0.110 A 
ATOM     10  C   LIG    1       -4.358  -5.774  -4.321  0.00  0.00    +0.030 A 
ATOM     11  C   LIG    1       -4.312  -5.620  -5.693  0.00  0.00    +0.050 A 
BRANCH   6  13
ATOM     12  C   LIG    1       -5.309  -6.102  -8.502  0.00  0.00    +0.030 C 
ATOM     13  C   LIG    1       -3.928  -6.521  -7.996  0.00  0.00    +0.020 C 
ATOM     14  C   LIG    1       -2.904  -5.443  -8.357  0.00  0.00    +0.030 C 
ENDBRANCH   6  13
ENDBRANCH   1   9
BRANCH   5  15
ATOM     15  S   LIG    1       -3.177  -4.600  -1.698  0.00  0.00    +0.100 S 
BRANCH  15  16
ATOM     16  C   LIG    1       -2.960  -4.039   0.009  0.00  0.00    +0.270 C 
BRANCH  16  17
ATOM     17  C   LIG    1       -2.457  -2.619   0.011  0.00  0.00    +0.170 A 
ATOM     18  N   LIG    1       -3.192  -1.543   0.024  0.00  0.00    -0.240 NA
ATOM     19  N   LIG    1       -2.435  -0.503   0.028  0.00  0.00    -0.250 NA
ATOM     20  C   LIG    1       -1.176  -0.884   0.009  0.00  0.00    +0.260 A 
ATOM     21  O   LIG    1       -1.168  -2.233   0.001  0.00  0.00    -0.210 OA
BRANCH  20  22
ATOM     22  C   LIG    1        0.002  -0.004   0.002  0.00  0.00    +0.020 A 
ATOM     23  C   LIG    1       -0.016   1.359   0.009  0.00  0.00    +0.070 A 
ATOM     24  C   LIG    1        1.326   1.782  -0.001  0.00  0.00    -0.050 A 
ATOM     25  C   LIG    1        2.091   0.672  -0.014  0.00  0.00    +0.230 A 
ATOM     26  O   LIG    1        1.289  -0.405  -0.012  0.00  0.00    -0.160 OA
ENDBRANCH  20  22
ENDBRANCH  16  17
ENDBRANCH  15  16
ENDBRANCH   5  15
TORSDOF 6
