REMARK  Name = ZINCpe00000VViPo.0
REMARK                            x       y       z     vdW  Elec       q    Type
REMARK                         _______ _______ _______ _____ _____    ______ ____
ROOT
ATOM      1  N   LIG    1       -0.288   1.272  -2.443  0.00  0.00    -0.730 N 
ATOM      2  H   LIG    1        0.507   0.726  -2.543  0.00  0.00    +0.400 HD
ATOM      3  C   LIG    1       -0.742   1.585  -1.213  0.00  0.00    +0.520 C 
ATOM      4  O   LIG    1       -1.736   2.268  -1.088  0.00  0.00    -0.530 OA
ENDROOT
BRANCH   1   5
ATOM      5  C   LIG    1       -0.997   1.758  -3.630  0.00  0.00    +0.320 C 
BRANCH   5   9
ATOM      6  C   LIG    1        1.004   0.379  -7.149  0.00  0.00    -0.120 A 
ATOM      7  C   LIG    1       -0.008  -0.390  -6.570  0.00  0.00    +0.090 A 
ATOM      8  C   LIG    1       -0.649   0.060  -5.435  0.00  0.00    +0.030 A 
ATOM      9  C   LIG    1       -0.292   1.272  -4.870  0.00  0.00    -0.080 A 
ATOM     10  C   LIG    1        0.706   2.041  -5.441  0.00  0.00    +0.030 A 
ATOM     11  C   LIG    1        1.360   1.600  -6.572  0.00  0.00    +0.080 A 
BRANCH   6  12
ATOM     12  C   LIG    1        1.695  -0.097  -8.364  0.00  0.00    +0.510 C 
ATOM     13  O   LIG    1        1.383  -1.160  -8.864  0.00  0.00    -0.500 OA
BRANCH  12  15
ATOM     14  C   LIG    1        3.306   0.117 -10.113  0.00  0.00    +0.290 C 
ATOM     15  O   LIG    1        2.671   0.647  -8.920  0.00  0.00    -0.350 OA
ENDBRANCH  12  15
ENDBRANCH   6  12
ENDBRANCH   5   9
ENDBRANCH   1   5
BRANCH   3  16
ATOM     16  C   LIG    1       -0.013   1.086   0.008  0.00  0.00    +0.040 C 
BRANCH  16  17
ATOM     17  C   LIG    1       -0.729   1.579   1.267  0.00  0.00    +0.350 C 
BRANCH  17  18
ATOM     18  N   LIG    1       -0.020   1.094   2.454  0.00  0.00    -0.580 N 
ATOM     19  C   LIG    1       -0.287  -0.065   3.067  0.00  0.00    +0.700 C 
ATOM     20  N   LIG    1        0.507  -0.278   4.131  0.00  0.00    -0.720 N 
ATOM     21  H   LIG    1        0.494  -1.049   4.720  0.00  0.00    +0.440 HD
ATOM     22  C   LIG    1        1.400   0.890   4.232  0.00  0.00    +0.120 C 
ATOM     23  C   LIG    1        1.185   1.623   5.558  0.00  0.00    +0.090 C 
ATOM     24  C   LIG    1        2.862   0.465   4.083  0.00  0.00    +0.090 C 
ATOM     25  O   LIG    1       -1.149  -0.840   2.702  0.00  0.00    -0.540 OA
ATOM     26  C   LIG    1        0.977   1.762   3.066  0.00  0.00    +0.530 C 
ATOM     27  O   LIG    1        1.441   2.837   2.750  0.00  0.00    -0.460 OA
ENDBRANCH  17  18
ENDBRANCH  16  17
ENDBRANCH   3  16
TORSDOF 7
