REMARK  Name = ZINCrH000004m9eS.0
REMARK                            x       y       z     vdW  Elec       q    Type
REMARK                         _______ _______ _______ _____ _____    ______ ____
ROOT
ATOM      1  N   LIG    1        0.663  -0.477  -1.440  0.00  0.00    -0.990 NA
ATOM      2  C   LIG    1        2.097  -0.711  -1.693  0.00  0.00    +0.290 C 
ATOM      3  C   LIG    1        2.268  -0.514  -3.220  0.00  0.00    +0.040 C 
ATOM      4  C   LIG    1        0.949  -1.123  -3.763  0.00  0.00    +0.060 C 
ATOM      5  C   LIG    1       -0.083  -0.740  -2.680  0.00  0.00    +0.320 C 
ENDROOT
BRANCH   5   6
ATOM      6  C   LIG    1       -1.050  -1.875  -2.465  0.00  0.00    +0.270 A 
ATOM      7  N   LIG    1       -0.765  -2.993  -1.863  0.00  0.00    -0.480 NA
ATOM      8  C   LIG    1       -1.863  -3.792  -1.840  0.00  0.00    +0.050 A 
ATOM      9  C   LIG    1       -2.116  -5.068  -1.331  0.00  0.00    +0.070 A 
ATOM     10  C   LIG    1       -3.356  -5.624  -1.472  0.00  0.00    +0.000 A 
ATOM     11  C   LIG    1       -4.372  -4.933  -2.117  0.00  0.00    +0.030 A 
ATOM     12  C   LIG    1       -4.146  -3.672  -2.627  0.00  0.00    +0.010 A 
ATOM     13  C   LIG    1       -2.892  -3.092  -2.493  0.00  0.00    +0.050 A 
ATOM     14  N   LIG    1       -2.346  -1.883  -2.877  0.00  0.00    -0.480 N 
ATOM     15  C   LIG    1       -3.036  -0.808  -3.595  0.00  0.00    +0.330 C 
ENDBRANCH   5   6
BRANCH   1  16
ATOM     16  S   LIG    1        0.002  -0.004   0.002  0.00  0.00    +2.710 S 
ATOM     17  O   LIG    1       -1.355  -0.424  -0.022  0.00  0.00    -0.940 OA
ATOM     18  O   LIG    1        0.920  -0.399   1.013  0.00  0.00    -0.930 OA
BRANCH  16  25
ATOM     19  C   LIG    1        1.170   2.468   0.004  0.00  0.00    +0.240 A 
ATOM     20  C   LIG    1        1.149   3.855   0.011  0.00  0.00    -0.070 A 
ATOM     21  C   LIG    1       -0.060   4.526   0.026  0.00  0.00    +0.060 A 
ATOM     22  C   LIG    1       -1.247   3.815   0.034  0.00  0.00    -0.020 A 
ATOM     23  C   LIG    1       -1.227   2.432   0.021  0.00  0.00    +0.190 A 
ATOM     24 CL   LIG    1       -0.089   6.262   0.035  0.00  0.00    -0.050 Cl
ATOM     25  C   LIG    1       -0.022   1.758   0.012  0.00  0.00    -0.720 A 
BRANCH  19  27
ATOM     26  C   LIG    1        3.544   2.602  -0.018  0.00  0.00    +0.270 C 
ATOM     27  O   LIG    1        2.357   1.806  -0.011  0.00  0.00    -0.300 OA
ENDBRANCH  19  27
ENDBRANCH  16  25
ENDBRANCH   1  16
TORSDOF 4
