REMARK  Name = ZINCrD00000hQ6fD.0
REMARK                            x       y       z     vdW  Elec       q    Type
REMARK                         _______ _______ _______ _____ _____    ______ ____
ROOT
ATOM      1  C   LIG    1       -0.518   0.991  -0.130  0.00  0.00    +0.070 C 
ATOM      2  C   LIG    1       -0.729   1.579   1.267  0.00  0.00    +0.130 C 
ENDROOT
BRANCH   2   3
ATOM      3  N   LIG    1       -1.988   1.072   1.827  0.00  0.00    -0.510 NA
ATOM      4  C   LIG    1       -2.185   1.552   3.203  0.00  0.00    +0.160 C 
ATOM      5  C   LIG    1       -3.533   1.050   3.725  0.00  0.00    +0.220 C 
ATOM      6  O   LIG    1       -3.570  -0.377   3.640  0.00  0.00    -0.370 OA
ATOM      7  C   LIG    1       -3.383  -0.880   2.314  0.00  0.00    +0.160 C 
ATOM      8  C   LIG    1       -3.406  -2.409   2.339  0.00  0.00    +0.060 C 
ATOM      9  C   LIG    1       -2.033  -0.397   1.777  0.00  0.00    +0.170 C 
BRANCH   5  10
ATOM     10  C   LIG    1       -3.705   1.473   5.162  0.00  0.00    -0.100 A 
ATOM     11  C   LIG    1       -3.092   0.754   6.171  0.00  0.00    +0.080 A 
ATOM     12  C   LIG    1       -3.245   1.144   7.488  0.00  0.00    -0.020 A 
ATOM     13  C   LIG    1       -4.021   2.248   7.797  0.00  0.00    +0.100 A 
ATOM     14  C   LIG    1       -4.640   2.963   6.786  0.00  0.00    -0.010 A 
ATOM     15  F   LIG    1       -4.176   2.627   9.085  0.00  0.00    -0.140 F 
ATOM     16  C   LIG    1       -4.481   2.575   5.469  0.00  0.00    +0.060 A 
ENDBRANCH   5  10
ENDBRANCH   2   3
BRANCH   2  17
ATOM     17  C   LIG    1       -0.789   3.082   1.175  0.00  0.00    +0.520 C 
ATOM     18  N   LIG    1        0.346   3.807   1.228  0.00  0.00    -0.730 N 
ATOM     19  H   LIG    1        1.202   3.361   1.325  0.00  0.00    +0.410 HD
ATOM     20  O   LIG    1       -1.860   3.640   1.054  0.00  0.00    -0.500 OA
BRANCH  18  21
ATOM     21  C   LIG    1        0.287   5.268   1.139  0.00  0.00    +0.280 C 
ATOM     22  C   LIG    1       -0.348   5.673  -0.192  0.00  0.00    +0.050 C 
ATOM     23  C   LIG    1       -0.410   7.199  -0.285  0.00  0.00    +0.020 C 
ATOM     24  C   LIG    1        1.006   7.772  -0.200  0.00  0.00    +0.020 C 
ATOM     25  C   LIG    1        1.641   7.367   1.131  0.00  0.00    +0.020 C 
ATOM     26  C   LIG    1        1.703   5.842   1.224  0.00  0.00    +0.050 C 
BRANCH  21  27
ATOM     27  C   LIG    1       -0.523   5.795   2.250  0.00  0.00    +0.200 C 
ATOM     28  N   LIG    1       -1.149   6.202   3.107  0.00  0.00    -0.410 NA
ENDBRANCH  21  27
ENDBRANCH  18  21
ENDBRANCH   2  17
TORSDOF 5
