REMARK  Name = ZINCqH00000h0hUw.0
REMARK                            x       y       z     vdW  Elec       q    Type
REMARK                         _______ _______ _______ _____ _____    ______ ____
ROOT
ATOM      1  C   LIG    1        4.260   0.603  -0.567  0.00  0.00    +0.290 C 
ENDROOT
BRANCH   1   4
ATOM      2  N   LIG    1        7.116  -0.317  -2.628  0.00  0.00    -0.240 N 
ATOM      3  C   LIG    1        6.478   0.592  -1.841  0.00  0.00    +0.160 A 
ATOM      4  C   LIG    1        5.321   0.005  -1.454  0.00  0.00    -0.000 A 
ATOM      5  N   LIG    1        5.303  -1.208  -2.017  0.00  0.00    -0.240 NA
ATOM      6  N   LIG    1        6.378  -1.369  -2.705  0.00  0.00    -0.080 NA
BRANCH   2  11
ATOM      7  C   LIG    1       12.123   0.533  -5.061  0.00  0.00    +0.140 C 
ATOM      8  C   LIG    1       10.781   0.284  -4.422  0.00  0.00    +0.140 A 
ATOM      9  C   LIG    1       10.092  -0.879  -4.713  0.00  0.00    +0.000 A 
ATOM     10  C   LIG    1        8.862  -1.104  -4.118  0.00  0.00    +0.100 A 
ATOM     11  C   LIG    1        8.360  -0.137  -3.251  0.00  0.00    +0.060 A 
ATOM     12  C   LIG    1        9.111   1.005  -3.009  0.00  0.00    +0.290 A 
ATOM     13  N   LIG    1       10.280   1.178  -3.592  0.00  0.00    -0.460 NA
ENDBRANCH   2  11
ENDBRANCH   1   4
BRANCH   1  14
ATOM     14  N   LIG    1        3.237   1.253  -1.398  0.00  0.00    -0.530 NA
BRANCH  14  15
ATOM     15  C   LIG    1        2.384   0.257  -2.058  0.00  0.00    +0.180 C 
BRANCH  15  16
ATOM     16  C   LIG    1        2.964  -0.082  -3.432  0.00  0.00    -0.010 C 
ATOM     17  C   LIG    1        2.926   1.161  -4.322  0.00  0.00    +0.010 C 
ATOM     18  C   LIG    1        2.135  -1.196  -4.076  0.00  0.00    +0.010 C 
ENDBRANCH  15  16
ENDBRANCH  14  15
BRANCH  14  19
ATOM     19  C   LIG    1        2.433   2.192  -0.604  0.00  0.00    +0.240 C 
BRANCH  19  20
ATOM     20  C   LIG    1        1.568   3.014  -1.524  0.00  0.00    -0.110 A 
ATOM     21  C   LIG    1        0.214   2.752  -1.617  0.00  0.00    +0.040 A 
ATOM     22  C   LIG    1       -0.579   3.502  -2.465  0.00  0.00    +0.000 A 
ATOM     23  C   LIG    1       -0.022   4.524  -3.211  0.00  0.00    +0.040 A 
ATOM     24  C   LIG    1        1.332   4.788  -3.119  0.00  0.00    -0.030 A 
ATOM     25  C   LIG    1        2.128   4.034  -2.275  0.00  0.00    +0.130 A 
ATOM     26  F   LIG    1        3.451   4.291  -2.184  0.00  0.00    -0.130 F 
ENDBRANCH  19  20
ENDBRANCH  14  19
ENDBRANCH   1  14
TORSDOF 7
