REMARK  Name = ZINCpk00000y6xg5.0
REMARK                            x       y       z     vdW  Elec       q    Type
REMARK                         _______ _______ _______ _____ _____    ______ ____
ROOT
ATOM      1  N   LIG    1       -5.346   2.899   8.676  0.00  0.00    -0.610 N 
ATOM      2  C   LIG    1       -4.289   2.072   8.618  0.00  0.00    +0.520 C 
ATOM      3  C   LIG    1       -3.180   2.701   7.803  0.00  0.00    +0.060 C 
ATOM      4  C   LIG    1       -3.879   3.846   7.033  0.00  0.00    +0.000 C 
ATOM      5  O   LIG    1       -4.231   0.980   9.142  0.00  0.00    -0.520 OA
ATOM      6  C   LIG    1       -5.090   4.145   7.944  0.00  0.00    +0.300 C 
ENDROOT
BRANCH   6   7
ATOM      7  C   LIG    1       -4.756   5.256   8.907  0.00  0.00    -0.160 A 
ATOM      8  C   LIG    1       -5.182   6.552   8.658  0.00  0.00    +0.080 A 
ATOM      9  C   LIG    1       -4.853   7.542   9.571  0.00  0.00    -0.030 A 
ATOM     10  C   LIG    1       -4.116   7.206  10.691  0.00  0.00    +0.260 A 
ATOM     11  N   LIG    1       -3.728   5.963  10.896  0.00  0.00    -0.480 NA
ATOM     12  C   LIG    1       -4.028   4.995  10.052  0.00  0.00    +0.270 A 
ENDBRANCH   6   7
BRANCH   1  14
ATOM     13  C   LIG    1       -6.498   3.085  10.826  0.00  0.00    +0.020 C 
ATOM     14  C   LIG    1       -6.595   2.596   9.379  0.00  0.00    +0.290 C 
ENDBRANCH   1  14
BRANCH   4  15
ATOM     15  C   LIG    1       -4.337   3.377   5.651  0.00  0.00    +0.290 C 
BRANCH  15  16
ATOM     16  N   LIG    1       -3.165   3.076   4.824  0.00  0.00    -0.720 N 
ATOM     17  H   LIG    1       -2.273   3.189   5.188  0.00  0.00    +0.410 HD
ATOM     18  C   LIG    1       -3.326   2.643   3.558  0.00  0.00    +0.600 C 
ATOM     19  O   LIG    1       -4.439   2.591   3.071  0.00  0.00    -0.530 OA
BRANCH  18  20
ATOM     20  C   LIG    1       -2.156   2.233   2.766  0.00  0.00    -0.040 A 
ATOM     21  C   LIG    1       -0.848   2.131   3.208  0.00  0.00    -0.020 A 
ATOM     22  C   LIG    1       -0.114   1.712   2.096  0.00  0.00    +0.030 A 
ATOM     23  N   LIG    1       -0.944   1.577   1.094  0.00  0.00    -0.270 NA
ATOM     24  C   LIG    1        1.371   1.456   2.058  0.00  0.00    +0.160 C 
ATOM     25  N   LIG    1       -2.143   1.873   1.449  0.00  0.00    -0.250 N 
ATOM     26  C   LIG    1       -3.317   1.829   0.574  0.00  0.00    +0.370 C 
ENDBRANCH  18  20
ENDBRANCH  15  16
ENDBRANCH   4  15
TORSDOF 5
