REMARK  Name = ZINCfA000000bmby.0
REMARK                            x       y       z     vdW  Elec       q    Type
REMARK                         _______ _______ _______ _____ _____    ______ ____
ROOT
ATOM      1  N   LIG    1       -0.012   1.005   0.008  0.00  0.00    -0.510 N 
ATOM      2  H   LIG    1        0.935   1.354   0.000  0.00  0.00    +0.430 HD
ATOM      3  H   LIG    1        0.002  -0.004   0.002  0.00  0.00    +0.430 HD
ENDROOT
BRANCH   1   5
ATOM      4  C   LIG    1       -2.092   0.849   1.290  0.00  0.00    +0.120 C 
ATOM      5  C   LIG    1       -0.699   1.479   1.216  0.00  0.00    +0.290 C 
BRANCH   5   6
ATOM      6  C   LIG    1        0.096   1.084   2.434  0.00  0.00    -0.050 A 
ATOM      7  N   LIG    1        0.353   1.860   3.432  0.00  0.00    -0.420 NA
ATOM      8  C   LIG    1        1.063   1.355   4.420  0.00  0.00    +0.240 A 
ATOM      9  C   LIG    1        1.427   0.080   4.245  0.00  0.00    +0.000 A 
ATOM     10  S   LIG    1        0.783  -0.460   2.696  0.00  0.00    +0.150 S 
ENDBRANCH   5   6
ENDBRANCH   1   5
BRANCH   1  11
ATOM     11  C   LIG    1       -0.722   1.492  -1.183  0.00  0.00    +0.270 C 
BRANCH  11  12
ATOM     12  C   LIG    1       -0.006   0.998  -2.441  0.00  0.00    -0.010 C 
ATOM     13  C   LIG    1        1.387   1.627  -2.516  0.00  0.00    +0.050 C 
BRANCH  12  14
ATOM     14  C   LIG    1       -0.813   1.399  -3.678  0.00  0.00    +0.040 C 
BRANCH  14  15
ATOM     15  C   LIG    1       -0.165   0.799  -4.927  0.00  0.00    +0.370 C 
ATOM     16  F   LIG    1       -0.835   1.258  -6.066  0.00  0.00    -0.200 F 
ATOM     17  F   LIG    1       -0.243  -0.596  -4.870  0.00  0.00    -0.200 F 
ENDBRANCH  14  15
ENDBRANCH  12  14
ENDBRANCH  11  12
ENDBRANCH   1  11
TORSDOF 6
