REMARK  Name = ZINCvU0000000ALS.0
REMARK                            x       y       z     vdW  Elec       q    Type
REMARK                         _______ _______ _______ _____ _____    ______ ____
ROOT
ATOM      1  C   LIG    1        3.506  -1.859   7.758  0.00  0.00    +0.570 C 
ATOM      2  N   LIG    1        2.514  -0.978   7.518  0.00  0.00    -0.660 N 
ATOM      3  H   LIG    1        2.045  -0.563   8.259  0.00  0.00    +0.410 HD
ATOM      4  O   LIG    1        4.147  -2.318   6.833  0.00  0.00    -0.500 OA
ENDROOT
BRANCH   1  13
ATOM      5  C   LIG    1        3.345  -2.248  11.503  0.00  0.00    +0.160 A 
ATOM      6  N   LIG    1        4.375  -3.018  11.754  0.00  0.00    -0.450 NA
ATOM      7  C   LIG    1        5.177  -3.460  10.782  0.00  0.00    +0.130 A 
ATOM      8  C   LIG    1        6.277  -4.287  11.071  0.00  0.00    +0.040 A 
ATOM      9  C   LIG    1        7.069  -4.737  10.060  0.00  0.00    +0.040 A 
ATOM     10  C   LIG    1        6.817  -4.379   8.737  0.00  0.00    +0.020 A 
ATOM     11  C   LIG    1        5.763  -3.575   8.419  0.00  0.00    +0.060 A 
ATOM     12  C   LIG    1        4.922  -3.103   9.434  0.00  0.00    -0.070 A 
ATOM     13  C   LIG    1        3.814  -2.265   9.145  0.00  0.00    -0.080 A 
ATOM     14  C   LIG    1        3.026  -1.845  10.208  0.00  0.00    +0.010 A 
BRANCH   5  16
ATOM     15  C   LIG    1        2.947  -0.403  13.111  0.00  0.00    +0.050 C 
ATOM     16  C   LIG    1        2.482  -1.784  12.648  0.00  0.00    +0.050 C 
ATOM     17  C   LIG    1        1.025  -1.704  12.188  0.00  0.00    +0.040 C 
ENDBRANCH   5  16
ENDBRANCH   1  13
BRANCH   2  18
ATOM     18  C   LIG    1        2.159  -0.664   6.201  0.00  0.00    +0.150 A 
ATOM     19  C   LIG    1        0.829  -0.411   5.877  0.00  0.00    +0.020 A 
ATOM     20  C   LIG    1        0.472  -0.102   4.589  0.00  0.00    +0.090 A 
ATOM     21  C   LIG    1        1.447  -0.034   3.572  0.00  0.00    +0.090 A 
ATOM     22  N   LIG    1        1.283   0.258   2.265  0.00  0.00    -0.500 NA
ATOM     23  C   LIG    1        2.328   0.258   1.511  0.00  0.00    +0.290 A 
ATOM     24  S   LIG    1        3.761  -0.134   2.451  0.00  0.00    +0.090 S 
ATOM     25  C   LIG    1        2.780  -0.290   3.907  0.00  0.00    -0.160 A 
ATOM     26  C   LIG    1        3.131  -0.603   5.217  0.00  0.00    +0.080 A 
BRANCH  23  27
ATOM     27  N   LIG    1        2.324   0.531   0.158  0.00  0.00    -0.450 N 
ATOM     28  C   LIG    1        0.962   0.819  -0.317  0.00  0.00    +0.200 C 
ATOM     29  C   LIG    1        1.011   1.174  -1.806  0.00  0.00    +0.230 C 
ATOM     30  O   LIG    1        1.620   0.100  -2.527  0.00  0.00    -0.380 OA
ATOM     31  C   LIG    1        2.948  -0.206  -2.092  0.00  0.00    +0.240 C 
ATOM     32  C   LIG    1        2.919  -0.575  -0.606  0.00  0.00    +0.190 C 
ENDBRANCH  23  27
ENDBRANCH   2  18
TORSDOF 4
