REMARK  Name = ZINCfA000000b7u2.1
REMARK                            x       y       z     vdW  Elec       q    Type
REMARK                         _______ _______ _______ _____ _____    ______ ____
ROOT
ATOM      1  N   LIG    1       -0.732   1.979  -1.175  0.00  0.00    -0.390 N 
ATOM      2  C   LIG    1       -0.400   1.744  -2.465  0.00  0.00    +0.540 C 
ATOM      3  N   LIG    1       -1.271   2.336  -3.239  0.00  0.00    -0.470 N 
ATOM      4  C   LIG    1       -2.177   2.961  -2.481  0.00  0.00    +0.030 C 
ATOM      5  C   LIG    1       -3.367   3.770  -2.931  0.00  0.00    +0.140 C 
ATOM      6  C   LIG    1       -4.324   3.927  -1.743  0.00  0.00    +0.050 C 
ATOM      7  C   LIG    1       -3.545   4.415  -0.519  0.00  0.00    +0.050 C 
ATOM      8  C   LIG    1       -2.630   3.292  -0.015  0.00  0.00    +0.140 C 
ATOM      9  H   LIG    1       -1.262   2.325  -4.209  0.00  0.00    +0.460 HD
ATOM     10  C   LIG    1       -1.857   2.744  -1.187  0.00  0.00    +0.050 C 
ENDROOT
BRANCH   1  13
ATOM     11  C   LIG    1        1.040  -0.717   0.304  0.00  0.00    +0.050 C 
ATOM     12  C   LIG    1        0.002  -0.004   0.002  0.00  0.00    -0.100 C 
ATOM     13  C   LIG    1       -0.018   1.496   0.010  0.00  0.00    +0.290 C 
ATOM     14  C   LIG    1        1.411   2.043  -0.000  0.00  0.00    +0.040 C 
ATOM     15  C   LIG    1        2.213   1.326   1.094  0.00  0.00    +0.050 C 
ATOM     16  C   LIG    1        2.370  -0.143   0.695  0.00  0.00    +0.070 C 
ENDBRANCH   1  13
TORSDOF 1
