REMARK  Name = ZINCqH00000503pS.0
REMARK                            x       y       z     vdW  Elec       q    Type
REMARK                         _______ _______ _______ _____ _____    ______ ____
ROOT
ATOM      1  N   LIG    1        1.589   2.440  -4.717  0.00  0.00    -0.700 N 
ATOM      2  H   LIG    1        1.363   3.200  -4.158  0.00  0.00    +0.410 HD
ATOM      3  C   LIG    1        1.183   1.203  -4.367  0.00  0.00    +0.710 C 
ATOM      4  N   LIG    1        0.551   1.008  -3.193  0.00  0.00    -0.740 N 
ATOM      5  H   LIG    1        0.388   1.758  -2.600  0.00  0.00    +0.390 HD
ATOM      6  O   LIG    1        1.388   0.263  -5.111  0.00  0.00    -0.570 OA
ENDROOT
BRANCH   1  12
ATOM      7  C   LIG    1        1.737   3.369  -9.548  0.00  0.00    +0.130 C 
ATOM      8  C   LIG    1        2.434   3.079  -8.244  0.00  0.00    -0.110 A 
ATOM      9  C   LIG    1        3.814   2.999  -8.202  0.00  0.00    +0.020 A 
ATOM     10  C   LIG    1        4.459   2.733  -7.006  0.00  0.00    +0.010 A 
ATOM     11  C   LIG    1        3.724   2.553  -5.848  0.00  0.00    +0.150 A 
ATOM     12  C   LIG    1        2.337   2.628  -5.888  0.00  0.00    +0.090 A 
ATOM     13  F   LIG    1        4.354   2.299  -4.680  0.00  0.00    -0.120 F 
ATOM     14 CL   LIG    1        4.740   3.231  -9.652  0.00  0.00    -0.030 Cl
ATOM     15  C   LIG    1        1.693   2.894  -7.090  0.00  0.00    +0.150 A 
ATOM     16  F   LIG    1        0.345   2.973  -7.133  0.00  0.00    -0.110 F 
ENDBRANCH   1  12
BRANCH   4  17
ATOM     17  C   LIG    1        0.110  -0.337  -2.813  0.00  0.00    +0.260 C 
ATOM     18  C   LIG    1       -1.262  -0.620  -3.430  0.00  0.00    -0.000 C 
ATOM     19  C   LIG    1       -2.283   0.369  -2.861  0.00  0.00    +0.210 C 
ATOM     20  O   LIG    1       -2.313   0.254  -1.437  0.00  0.00    -0.360 OA
ATOM     21  C   LIG    1       -1.069   0.554  -0.801  0.00  0.00    +0.250 C 
ATOM     22  C   LIG    1        0.001  -0.428  -1.288  0.00  0.00    +0.040 C 
BRANCH  21  23
ATOM     23  C   LIG    1       -1.224   0.428   0.692  0.00  0.00    +0.200 A 
ATOM     24  N   LIG    1       -1.828  -0.548   1.315  0.00  0.00    -0.460 NA
ATOM     25  C   LIG    1       -1.773  -0.330   2.637  0.00  0.00    +0.140 A 
ATOM     26  C   LIG    1       -1.111   0.825   2.842  0.00  0.00    +0.130 A 
ATOM     27  N   LIG    1       -0.758   1.303   1.609  0.00  0.00    -0.460 N 
ATOM     28  C   LIG    1       -0.015   2.536   1.335  0.00  0.00    +0.320 C 
ENDBRANCH  21  23
ENDBRANCH   4  17
TORSDOF 3
