REMARK  Name = ZINCvU0000000EGG.1
REMARK                            x       y       z     vdW  Elec       q    Type
REMARK                         _______ _______ _______ _____ _____    ______ ____
ROOT
ATOM      1  N   LIG    1       -1.129  -0.804   0.009  0.00  0.00    -0.620 N 
ATOM      2  H   LIG    1       -1.040  -1.770   0.003  0.00  0.00    +0.420 HD
ATOM      3  C   LIG    1       -2.353  -0.240   0.023  0.00  0.00    +0.530 C 
ATOM      4  O   LIG    1       -2.465   0.968   0.030  0.00  0.00    -0.480 OA
ENDROOT
BRANCH   1   6
ATOM      5  C   LIG    1        1.287  -0.478  -0.013  0.00  0.00    -0.180 A 
ATOM      6  C   LIG    1        0.002  -0.004   0.002  0.00  0.00    +0.040 A 
ATOM      7  S   LIG    1       -0.021   1.699   0.011  0.00  0.00    +0.340 S 
ATOM      8  C   LIG    1        1.730   1.807  -0.005  0.00  0.00    -0.080 A 
ATOM      9  C   LIG    1        2.280   0.585  -0.017  0.00  0.00    +0.020 A 
BRANCH   9  10
ATOM     10  C   LIG    1        3.737   0.343  -0.033  0.00  0.00    -0.140 A 
ATOM     11  C   LIG    1        4.612   0.915  -0.885  0.00  0.00    +0.030 A 
ATOM     12  C   LIG    1        5.927   0.535  -0.702  0.00  0.00    +0.010 A 
ATOM     13  C   LIG    1        6.130  -0.345   0.281  0.00  0.00    -0.040 A 
ATOM     14  S   LIG    1        4.600  -0.740   1.052  0.00  0.00    +0.130 S 
ENDBRANCH   9  10
BRANCH   5  15
ATOM     15  C   LIG    1        1.625  -1.901  -0.024  0.00  0.00    +0.530 C 
ATOM     16  O   LIG    1        1.755  -2.487  -1.082  0.00  0.00    -0.480 OA
BRANCH  15  17
ATOM     17  O   LIG    1        1.792  -2.563   1.140  0.00  0.00    -0.340 OA
BRANCH  17  19
ATOM     18  C   LIG    1        2.270  -4.528   2.464  0.00  0.00    +0.070 C 
ATOM     19  C   LIG    1        2.121  -3.951   1.054  0.00  0.00    +0.200 C 
ENDBRANCH  17  19
ENDBRANCH  15  17
ENDBRANCH   5  15
ENDBRANCH   1   6
BRANCH   3  20
ATOM     20  C   LIG    1       -3.584  -1.110   0.030  0.00  0.00    +0.130 C 
BRANCH  20  21
ATOM     21  S   LIG    1       -5.062  -0.065   0.049  0.00  0.00    +0.110 S 
BRANCH  21  22
ATOM     22  C   LIG    1       -6.313  -1.305   0.054  0.00  0.00    +0.250 A 
ATOM     23  N   LIG    1       -6.113  -2.605   0.046  0.00  0.00    -0.530 NA
ATOM     24  C   LIG    1       -7.293  -3.243   0.055  0.00  0.00    +0.280 A 
ATOM     25  N   LIG    1       -8.258  -2.352   0.068  0.00  0.00    -0.290 NA
ATOM     26  N   LIG    1       -7.647  -1.087   0.073  0.00  0.00    -0.460 N 
ATOM     27  H   LIG    1       -8.094  -0.227   0.086  0.00  0.00    +0.450 HD
BRANCH  24  28
ATOM     28  C   LIG    1       -7.478  -4.715   0.049  0.00  0.00    -0.020 A 
ATOM     29  C   LIG    1       -6.369  -5.559   0.028  0.00  0.00    +0.050 A 
ATOM     30  C   LIG    1       -6.547  -6.928   0.029  0.00  0.00    +0.010 A 
ATOM     31  C   LIG    1       -7.823  -7.462   0.038  0.00  0.00    +0.030 A 
ATOM     32  C   LIG    1       -8.927  -6.629   0.053  0.00  0.00    +0.010 A 
ATOM     33  C   LIG    1       -8.761  -5.259   0.059  0.00  0.00    +0.050 A 
ENDBRANCH  24  28
ENDBRANCH  21  22
ENDBRANCH  20  21
ENDBRANCH   3  20
TORSDOF 9
