REMARK  Name = ZINCvU0000000EGG.0
REMARK                            x       y       z     vdW  Elec       q    Type
REMARK                         _______ _______ _______ _____ _____    ______ ____
ROOT
ATOM      1  N   LIG    1       -1.174   2.468   0.021  0.00  0.00    -0.630 N 
ATOM      2  H   LIG    1       -1.111   3.436   0.026  0.00  0.00    +0.420 HD
ATOM      3  C   LIG    1       -2.382   1.871   0.024  0.00  0.00    +0.530 C 
ATOM      4  O   LIG    1       -2.461   0.661   0.019  0.00  0.00    -0.480 OA
ENDROOT
BRANCH   1   6
ATOM      5  C   LIG    1        1.251   2.208   0.002  0.00  0.00    -0.180 A 
ATOM      6  C   LIG    1       -0.021   1.699   0.011  0.00  0.00    +0.050 A 
ATOM      7  S   LIG    1        0.002  -0.004   0.002  0.00  0.00    +0.340 S 
ATOM      8  C   LIG    1        1.755  -0.064  -0.015  0.00  0.00    -0.080 A 
ATOM      9  C   LIG    1        2.272   1.173  -0.013  0.00  0.00    +0.020 A 
BRANCH   9  10
ATOM     10  C   LIG    1        3.723   1.454  -0.025  0.00  0.00    -0.140 A 
ATOM     11  C   LIG    1        4.628   0.907   0.811  0.00  0.00    +0.030 A 
ATOM     12  C   LIG    1        5.929   1.322   0.602  0.00  0.00    +0.010 A 
ATOM     13  C   LIG    1        6.089   2.207  -0.385  0.00  0.00    -0.040 A 
ATOM     14  S   LIG    1        4.534   2.559  -1.127  0.00  0.00    +0.130 S 
ENDBRANCH   9  10
BRANCH   5  15
ATOM     15  C   LIG    1        1.550   3.640   0.006  0.00  0.00    +0.530 C 
ATOM     16  O   LIG    1        1.684   4.230   1.062  0.00  0.00    -0.480 OA
BRANCH  15  17
ATOM     17  O   LIG    1        1.676   4.306  -1.160  0.00  0.00    -0.340 OA
BRANCH  17  19
ATOM     18  C   LIG    1        2.074   6.282  -2.493  0.00  0.00    +0.070 C 
ATOM     19  C   LIG    1        1.968   5.702  -1.081  0.00  0.00    +0.200 C 
ENDBRANCH  17  19
ENDBRANCH  15  17
ENDBRANCH   5  15
ENDBRANCH   1   6
BRANCH   3  20
ATOM     20  C   LIG    1       -3.636   2.708   0.035  0.00  0.00    +0.100 C 
BRANCH  20  21
ATOM     21  S   LIG    1       -5.088   1.620   0.037  0.00  0.00    +0.130 S 
BRANCH  21  22
ATOM     22  C   LIG    1       -6.434   2.757   0.050  0.00  0.00    +0.200 A 
ATOM     23  N   LIG    1       -6.327   4.066   0.062  0.00  0.00    -0.320 NA
ATOM     24  N   LIG    1       -7.632   4.584   0.066  0.00  0.00    -0.470 N 
ATOM     25  H   LIG    1       -7.886   5.520   0.073  0.00  0.00    +0.440 HD
ATOM     26  C   LIG    1       -8.465   3.519   0.065  0.00  0.00    +0.350 A 
ATOM     27  N   LIG    1       -7.727   2.427   0.055  0.00  0.00    -0.500 NA
BRANCH  26  28
ATOM     28  C   LIG    1       -9.943   3.571   0.072  0.00  0.00    -0.040 A 
ATOM     29  C   LIG    1      -10.601   4.801   0.088  0.00  0.00    +0.020 A 
ATOM     30  C   LIG    1      -11.980   4.842   0.090  0.00  0.00    +0.010 A 
ATOM     31  C   LIG    1      -12.711   3.667   0.087  0.00  0.00    +0.040 A 
ATOM     32  C   LIG    1      -12.064   2.444   0.077  0.00  0.00    +0.010 A 
ATOM     33  C   LIG    1      -10.685   2.389   0.070  0.00  0.00    +0.080 A 
ENDBRANCH  26  28
ENDBRANCH  21  22
ENDBRANCH  20  21
ENDBRANCH   3  20
TORSDOF 9
