REMARK  Name = ZINCpk00000xIi9f.0
REMARK                            x       y       z     vdW  Elec       q    Type
REMARK                         _______ _______ _______ _____ _____    ______ ____
ROOT
ATOM      1  N   LIG    1        3.825  10.160  -2.901  0.00  0.00    -0.680 N 
ATOM      2  H   LIG    1        4.472  10.392  -2.217  0.00  0.00    +0.410 HD
ATOM      3  C   LIG    1        2.956   9.151  -2.692  0.00  0.00    +0.510 C 
ATOM      4  O   LIG    1        2.085   8.923  -3.505  0.00  0.00    -0.510 OA
ENDROOT
BRANCH   1   8
ATOM      5  C   LIG    1        3.729  12.284  -6.483  0.00  0.00    -0.160 A 
ATOM      6  C   LIG    1        4.075  12.931  -5.294  0.00  0.00    +0.100 A 
ATOM      7  C   LIG    1        4.106  12.227  -4.112  0.00  0.00    -0.030 A 
ATOM      8  C   LIG    1        3.793  10.871  -4.100  0.00  0.00    +0.180 A 
ATOM      9  C   LIG    1        3.453  10.222  -5.283  0.00  0.00    +0.010 A 
ATOM     10  C   LIG    1        3.415  10.922  -6.467  0.00  0.00    +0.070 A 
BRANCH   5  14
ATOM     11  N   LIG    1        3.361  12.410  -8.898  0.00  0.00    -0.850 N 
ATOM     12  H   LIG    1        3.339  12.905  -9.732  0.00  0.00    +0.410 HD
ATOM     13  H   LIG    1        3.143  11.465  -8.889  0.00  0.00    +0.400 HD
ATOM     14  C   LIG    1        3.695  13.036  -7.752  0.00  0.00    +0.570 C 
ATOM     15  O   LIG    1        3.969  14.221  -7.764  0.00  0.00    -0.540 OA
ENDBRANCH   5  14
ENDBRANCH   1   8
BRANCH   3  16
ATOM     16  C   LIG    1        3.067   8.306  -1.449  0.00  0.00    +0.060 C 
BRANCH  16  17
ATOM     17  C   LIG    1        1.970   7.240  -1.458  0.00  0.00    +0.040 C 
BRANCH  17  18
ATOM     18  C   LIG    1        2.082   6.382  -0.196  0.00  0.00    +0.020 C 
BRANCH  18  19
ATOM     19  C   LIG    1        0.985   5.316  -0.204  0.00  0.00    +0.050 C 
BRANCH  19  20
ATOM     20  C   LIG    1        1.097   4.458   1.058  0.00  0.00    +0.090 C 
ATOM     21  S   LIG    1        2.573   3.354   0.970  0.00  0.00    -0.240 S 
ATOM     22  C   LIG    1        1.642   1.748   0.842  0.00  0.00    +0.160 C 
ATOM     23  C   LIG    1        0.334   2.252   0.249  0.00  0.00    +0.200 C 
ATOM     24  N   LIG    1       -0.904   1.513   0.350  0.00  0.00    -0.730 N 
ATOM     25  H   LIG    1       -1.014   0.549   0.349  0.00  0.00    +0.430 HD
ATOM     26  C   LIG    1       -1.887   2.458   0.440  0.00  0.00    +0.710 C 
ATOM     27  N   LIG    1       -1.394   3.703   0.732  0.00  0.00    -0.720 N 
ATOM     28  H   LIG    1       -1.860   4.551   0.671  0.00  0.00    +0.430 HD
ATOM     29  O   LIG    1       -3.069   2.220   0.283  0.00  0.00    -0.550 OA
ATOM     30  C   LIG    1       -0.039   3.480   1.141  0.00  0.00    +0.180 C 
ENDBRANCH  19  20
ENDBRANCH  18  19
ENDBRANCH  17  18
ENDBRANCH  16  17
ENDBRANCH   3  16
TORSDOF 7
