REMARK  Name = ZINCtV00000vxv5G.0
REMARK                            x       y       z     vdW  Elec       q    Type
REMARK                         _______ _______ _______ _____ _____    ______ ____
ROOT
ATOM      1  C   LIG    1        3.755  -0.758  -0.036  0.00  0.00    +0.530 C 
ATOM      2  O   LIG    1        4.273  -1.052  -1.097  0.00  0.00    -0.480 OA
ENDROOT
BRANCH   1   3
ATOM      3  C   LIG    1        2.473  -0.047  -0.019  0.00  0.00    -0.100 A 
ATOM      4  C   LIG    1        1.259  -0.765  -0.003  0.00  0.00    +0.000 A 
ATOM      5  C   LIG    1        1.247  -2.170  -0.002  0.00  0.00    +0.000 A 
ATOM      6  C   LIG    1        0.059  -2.833   0.013  0.00  0.00    +0.040 A 
ATOM      7  C   LIG    1       -1.157  -2.153   0.029  0.00  0.00    +0.010 A 
ATOM      8  C   LIG    1       -1.215  -0.795   0.029  0.00  0.00    +0.050 A 
ATOM      9  C   LIG    1       -0.018  -0.048   0.013  0.00  0.00    -0.060 A 
ATOM     10  C   LIG    1       -0.042   1.348   0.013  0.00  0.00    +0.090 A 
ATOM     11  C   LIG    1        1.154   2.066  -0.003  0.00  0.00    -0.060 A 
ATOM     12  C   LIG    1        1.154   3.477  -0.000  0.00  0.00    +0.050 A 
ATOM     13  C   LIG    1        2.336   4.147  -0.015  0.00  0.00    +0.010 A 
ATOM     14  C   LIG    1        3.557   3.476  -0.031  0.00  0.00    +0.040 A 
ATOM     15  C   LIG    1        3.624   2.117  -0.033  0.00  0.00    +0.000 A 
ATOM     16  C   LIG    1        2.439   1.363  -0.018  0.00  0.00    +0.000 A 
ENDBRANCH   1   3
BRANCH   1  17
ATOM     17  O   LIG    1        4.360  -1.086   1.124  0.00  0.00    -0.320 OA
BRANCH  17  18
ATOM     18  C   LIG    1        5.627  -1.789   1.031  0.00  0.00    +0.270 C 
BRANCH  18  20
ATOM     19  O   LIG    1        5.516  -1.712   3.387  0.00  0.00    -0.490 OA
ATOM     20  C   LIG    1        6.149  -2.069   2.416  0.00  0.00    +0.520 C 
ATOM     21  N   LIG    1        7.320  -2.717   2.577  0.00  0.00    -0.670 N 
ATOM     22  H   LIG    1        7.795  -3.061   1.804  0.00  0.00    +0.420 HD
BRANCH  21  23
ATOM     23  C   LIG    1        7.851  -2.895   3.861  0.00  0.00    +0.160 A 
ATOM     24  C   LIG    1        7.005  -3.100   4.941  0.00  0.00    +0.060 A 
ATOM     25  C   LIG    1        7.532  -3.281   6.205  0.00  0.00    +0.070 A 
ATOM     26  C   LIG    1        8.902  -3.247   6.397  0.00  0.00    -0.040 A 
ATOM     27  C   LIG    1        9.748  -3.037   5.323  0.00  0.00    +0.070 A 
ATOM     28 CL   LIG    1        9.560  -3.469   7.988  0.00  0.00    -0.050 Cl
ATOM     29  C   LIG    1        9.227  -2.861   4.055  0.00  0.00    -0.050 A 
ATOM     30 CL   LIG    1       10.289  -2.597   2.708  0.00  0.00    -0.050 Cl
ENDBRANCH  21  23
ENDBRANCH  18  20
ENDBRANCH  17  18
ENDBRANCH   1  17
TORSDOF 5
