REMARK  Name = ZINCpe00000VVGbM.0
REMARK                            x       y       z     vdW  Elec       q    Type
REMARK                         _______ _______ _______ _____ _____    ______ ____
ROOT
ATOM      1  S   LIG    1       -2.396   7.519   1.189  0.00  0.00    +2.640 S 
ATOM      2  O   LIG    1       -3.001   8.004  -0.002  0.00  0.00    -0.940 OA
ATOM      3  O   LIG    1       -1.133   8.006   1.619  0.00  0.00    -0.940 OA
ENDROOT
BRANCH   1   4
ATOM      4  N   LIG    1       -3.440   7.973   2.392  0.00  0.00    -1.050 NA
ATOM      5  C   LIG    1       -4.878   8.268   2.490  0.00  0.00    +0.320 C 
ATOM      6  C   LIG    1       -4.806   7.840   3.965  0.00  0.00    +0.260 C 
ATOM      7  C   LIG    1       -3.337   8.264   3.829  0.00  0.00    +0.320 C 
BRANCH   6   8
ATOM      8  N   LIG    1       -5.593   8.681   4.871  0.00  0.00    -0.370 N 
ATOM      9  N   LIG    1       -5.827  10.061   4.748  0.00  0.00    -0.320 NA
ATOM     10  C   LIG    1       -6.574  10.409   5.763  0.00  0.00    +0.230 A 
ATOM     11  N   LIG    1       -6.818   9.333   6.509  0.00  0.00    -0.540 NA
ATOM     12  C   LIG    1       -7.075  11.802   6.043  0.00  0.00    +0.190 C 
ATOM     13  C   LIG    1       -6.238   8.286   5.981  0.00  0.00    +0.280 A 
ATOM     14  C   LIG    1       -6.283   6.881   6.526  0.00  0.00    +0.190 C 
ENDBRANCH   6   8
ENDBRANCH   1   4
BRANCH   1  15
ATOM     15  C   LIG    1       -2.425   5.706   1.224  0.00  0.00    -0.380 C 
BRANCH  15  16
ATOM     16  C   LIG    1       -1.488   5.159   0.145  0.00  0.00    +0.100 C 
BRANCH  16  24
ATOM     17  C   LIG    1        0.888   3.403  -2.812  0.00  0.00    +0.100 C 
ATOM     18  C   LIG    1        0.099   3.928  -1.641  0.00  0.00    +0.510 C 
ATOM     19  N   LIG    1       -0.739   3.111  -0.972  0.00  0.00    -0.610 N 
ATOM     20  C   LIG    1       -0.806   1.679  -1.297  0.00  0.00    +0.270 C 
ATOM     21  C   LIG    1       -2.264   1.305  -1.581  0.00  0.00    +0.010 C 
ATOM     22  C   LIG    1       -3.135   1.722  -0.394  0.00  0.00    +0.020 C 
ATOM     23  C   LIG    1       -3.053   3.239  -0.206  0.00  0.00    +0.010 C 
ATOM     24  C   LIG    1       -1.603   3.635   0.094  0.00  0.00    +0.240 C 
ATOM     25  O   LIG    1        0.217   5.086  -1.300  0.00  0.00    -0.540 OA
ENDBRANCH  16  24
ENDBRANCH  15  16
ENDBRANCH   1  15
TORSDOF 5
