REMARK  Name = ZINCpe000000Xo5Y.0
REMARK                            x       y       z     vdW  Elec       q    Type
REMARK                         _______ _______ _______ _____ _____    ______ ____
ROOT
ATOM      1  C   LIG    1        1.371   5.948   5.490  0.00  0.00    +0.060 C 
ATOM      2  C   LIG    1        0.788   7.101   4.671  0.00  0.00    +0.230 C 
ATOM      3  C   LIG    1        1.823   7.591   3.684  0.00  0.00    +0.030 C 
ATOM      4  C   LIG    1        1.355   8.792   2.872  0.00  0.00    +0.190 C 
ATOM      5  N   LIG    1        0.298   8.422   1.932  0.00  0.00    -0.490 N 
ATOM      6  C   LIG    1       -0.973   8.510   2.537  0.00  0.00    +0.110 A 
ATOM      7  C   LIG    1       -1.862   9.496   2.142  0.00  0.00    -0.020 A 
ATOM      8  C   LIG    1       -3.119   9.555   2.718  0.00  0.00    +0.040 A 
ATOM      9  C   LIG    1       -3.486   8.634   3.681  0.00  0.00    +0.010 A 
ATOM     10  C   LIG    1       -2.597   7.656   4.088  0.00  0.00    +0.020 A 
ATOM     11  C   LIG    1       -1.329   7.599   3.520  0.00  0.00    +0.110 A 
ATOM     12  C   LIG    1        0.361   9.246   0.718  0.00  0.00    +0.220 C 
ATOM     13  N   LIG    1       -0.410   6.633   3.951  0.00  0.00    -0.550 N 
ATOM     14  C   LIG    1       -0.612   5.322   3.712  0.00  0.00    +0.520 C 
ATOM     15  O   LIG    1        0.244   4.513   4.002  0.00  0.00    -0.510 OA
ENDROOT
BRANCH  14  16
ATOM     16  C   LIG    1       -1.902   4.861   3.084  0.00  0.00    +0.350 C 
BRANCH  16  17
ATOM     17  N   LIG    1       -1.877   3.404   2.930  0.00  0.00    -0.520 N 
ATOM     18  C   LIG    1       -2.346   2.607   3.938  0.00  0.00    +0.360 A 
ATOM     19  C   LIG    1       -2.322   1.265   3.796  0.00  0.00    -0.120 A 
ATOM     20  C   LIG    1       -1.809   0.708   2.600  0.00  0.00    +0.550 A 
ATOM     21  N   LIG    1       -1.356   1.527   1.630  0.00  0.00    -0.550 N 
ATOM     22  C   LIG    1       -0.822   0.963   0.388  0.00  0.00    +0.340 C 
ATOM     23  O   LIG    1       -1.777  -0.500   2.448  0.00  0.00    -0.510 OA
ATOM     24  C   LIG    1       -1.387   2.862   1.800  0.00  0.00    +0.700 A 
ATOM     25  O   LIG    1       -0.970   3.589   0.919  0.00  0.00    -0.530 OA
ENDBRANCH  16  17
ENDBRANCH  14  16
TORSDOF 2
