REMARK  Name = ZINCvU0000000Gp1.0
REMARK                            x       y       z     vdW  Elec       q    Type
REMARK                         _______ _______ _______ _____ _____    ______ ____
ROOT
ATOM      1  N   LIG    1        9.065  -2.331   2.820  0.00  0.00    -0.740 N 
ATOM      2  H   LIG    1        8.681  -1.847   3.568  0.00  0.00    +0.400 HD
ATOM      3  C   LIG    1        8.768  -1.966   1.557  0.00  0.00    +0.710 C 
ATOM      4  N   LIG    1        7.936  -0.929   1.333  0.00  0.00    -0.750 N 
ATOM      5  H   LIG    1        7.551  -0.446   2.081  0.00  0.00    +0.400 HD
ATOM      6  O   LIG    1        9.249  -2.572   0.620  0.00  0.00    -0.590 OA
ENDROOT
BRANCH   1   7
ATOM      7  C   LIG    1        9.969  -3.458   3.063  0.00  0.00    +0.300 C 
ATOM      8  C   LIG    1        9.175  -4.765   3.028  0.00  0.00    +0.040 C 
BRANCH   7  13
ATOM      9  C   LIG    1       12.547  -3.469   5.827  0.00  0.00    +0.150 A 
ATOM     10  C   LIG    1       11.800  -3.005   6.901  0.00  0.00    +0.020 A 
ATOM     11  C   LIG    1       10.466  -2.691   6.727  0.00  0.00    +0.030 A 
ATOM     12  C   LIG    1        9.877  -2.833   5.485  0.00  0.00    -0.010 A 
ATOM     13  C   LIG    1       10.617  -3.300   4.414  0.00  0.00    -0.070 A 
ATOM     14  C   LIG    1       11.951  -3.616   4.581  0.00  0.00    +0.000 A 
BRANCH   9  17
ATOM     15  C   LIG    1       16.136  -3.346   6.957  0.00  0.00    +0.110 C 
ATOM     16  C   LIG    1       14.658  -3.070   6.848  0.00  0.00    +0.510 C 
ATOM     17  N   LIG    1       13.899  -3.789   5.999  0.00  0.00    -0.680 N 
ATOM     18  H   LIG    1       14.289  -4.529   5.507  0.00  0.00    +0.410 HD
ATOM     19  O   LIG    1       14.153  -2.200   7.526  0.00  0.00    -0.520 OA
ENDBRANCH   9  17
ENDBRANCH   7  13
ENDBRANCH   1   7
BRANCH   4  20
ATOM     20  C   LIG    1        7.612  -0.532  -0.039  0.00  0.00    +0.420 C 
BRANCH  20  21
ATOM     21  C   LIG    1        6.670   0.644  -0.013  0.00  0.00    -0.010 A 
ATOM     22  C   LIG    1        7.034   1.943  -0.003  0.00  0.00    -0.020 A 
ATOM     23  C   LIG    1        5.851   2.703   0.015  0.00  0.00    +0.000 A 
ATOM     24  C   LIG    1        4.815   1.817   0.024  0.00  0.00    +0.050 A 
ATOM     25  O   LIG    1        5.330   0.572   0.003  0.00  0.00    -0.140 OA
BRANCH  24  26
ATOM     26  C   LIG    1        3.386   2.160   0.045  0.00  0.00    +0.170 A 
ATOM     27  N   LIG    1        2.420   1.300   0.049  0.00  0.00    -0.450 NA
ATOM     28  C   LIG    1        1.161   1.770   0.069  0.00  0.00    +0.080 A 
ATOM     29  C   LIG    1       -0.052   1.046   0.077  0.00  0.00    +0.080 A 
ATOM     30  C   LIG    1       -1.254   1.706   0.093  0.00  0.00    +0.030 A 
ATOM     31  C   LIG    1       -1.300   3.093   0.114  0.00  0.00    +0.050 A 
ATOM     32  C   LIG    1       -0.131   3.820   0.107  0.00  0.00    +0.060 A 
ATOM     33  C   LIG    1        1.100   3.168   0.084  0.00  0.00    -0.170 A 
ATOM     34  S   LIG    1        2.746   3.797   0.071  0.00  0.00    +0.120 S 
ENDBRANCH  24  26
ENDBRANCH  20  21
ENDBRANCH   4  20
TORSDOF 6
