REMARK  Name = ZINCvU0000000Fac.0
REMARK                            x       y       z     vdW  Elec       q    Type
REMARK                         _______ _______ _______ _____ _____    ______ ____
ROOT
ATOM      1  C   LIG    1       -2.813   3.692   0.078  0.00  0.00    +0.150 A 
ATOM      2  N   LIG    1       -3.380   2.517   0.240  0.00  0.00    -0.270 NA
ATOM      3  N   LIG    1       -2.506   1.583   0.118  0.00  0.00    -0.260 NA
ATOM      4  C   LIG    1       -1.326   2.103  -0.131  0.00  0.00    +0.240 A 
ATOM      5  N   LIG    1       -1.484   3.471  -0.159  0.00  0.00    -0.410 N 
ENDROOT
BRANCH   4   6
ATOM      6  C   LIG    1       -0.064   1.360  -0.335  0.00  0.00    -0.020 A 
ATOM      7  C   LIG    1        1.023   1.981  -0.951  0.00  0.00    +0.030 A 
ATOM      8  C   LIG    1        2.196   1.280  -1.143  0.00  0.00    +0.010 A 
ATOM      9  C   LIG    1        2.295  -0.036  -0.728  0.00  0.00    +0.030 A 
ATOM     10  C   LIG    1        1.221  -0.658  -0.117  0.00  0.00    +0.010 A 
ATOM     11  C   LIG    1        0.042   0.032   0.082  0.00  0.00    +0.070 A 
ENDBRANCH   4   6
BRANCH   5  12
ATOM     12  C   LIG    1       -0.492   4.435  -0.385  0.00  0.00    +0.100 A 
ATOM     13  C   LIG    1        0.509   4.636   0.555  0.00  0.00    +0.040 A 
ATOM     14  C   LIG    1        1.489   5.583   0.327  0.00  0.00    +0.040 A 
ATOM     15  C   LIG    1        1.467   6.337  -0.833  0.00  0.00    +0.040 A 
ATOM     16  C   LIG    1        0.468   6.142  -1.768  0.00  0.00    +0.040 A 
ATOM     17  C   LIG    1       -0.511   5.193  -1.548  0.00  0.00    +0.030 A 
ENDBRANCH   5  12
BRANCH   1  18
ATOM     18  S   LIG    1       -3.615   5.259   0.157  0.00  0.00    +0.100 S 
BRANCH  18  19
ATOM     19  C   LIG    1       -5.310   4.728   0.504  0.00  0.00    +0.060 C 
BRANCH  19  20
ATOM     20  C   LIG    1       -5.362   4.066   1.857  0.00  0.00    -0.090 A 
ATOM     21  C   LIG    1       -4.990   4.771   2.986  0.00  0.00    +0.040 A 
ATOM     22  C   LIG    1       -5.042   4.165   4.228  0.00  0.00    +0.000 A 
ATOM     23  C   LIG    1       -5.457   2.851   4.339  0.00  0.00    +0.010 A 
ATOM     24  C   LIG    1       -5.824   2.145   3.209  0.00  0.00    +0.000 A 
ATOM     25  C   LIG    1       -5.776   2.752   1.968  0.00  0.00    +0.060 A 
ENDBRANCH  19  20
BRANCH  19  27
ATOM     26  O   LIG    1       -5.764   7.040   0.642  0.00  0.00    -0.520 OA
ATOM     27  C   LIG    1       -6.223   5.927   0.496  0.00  0.00    +0.550 C 
ATOM     28  N   LIG    1       -7.550   5.762   0.327  0.00  0.00    -0.690 N 
ATOM     29  H   LIG    1       -7.917   4.872   0.211  0.00  0.00    +0.410 HD
BRANCH  28  30
ATOM     30  C   LIG    1       -8.438   6.927   0.319  0.00  0.00    +0.220 C 
ATOM     31  C   LIG    1       -9.746   6.824   1.105  0.00  0.00    +0.010 C 
ATOM     32  C   LIG    1       -9.768   6.797  -0.425  0.00  0.00    +0.020 C 
ENDBRANCH  28  30
ENDBRANCH  19  27
ENDBRANCH  18  19
ENDBRANCH   1  18
TORSDOF 7
