REMARK  Name = ZINCvU0000000Fj4.0
REMARK                            x       y       z     vdW  Elec       q    Type
REMARK                         _______ _______ _______ _____ _____    ______ ____
ROOT
ATOM      1  C   LIG    1        4.997  -2.210  -0.853  0.00  0.00    +0.560 C 
ATOM      2  N   LIG    1        4.906  -0.867  -0.788  0.00  0.00    -0.470 N 
ATOM      3  N   LIG    1        3.815  -0.150  -0.301  0.00  0.00    -0.230 NA
ATOM      4  C   LIG    1        3.963   1.128  -0.344  0.00  0.00    +0.140 C 
ATOM      5  C   LIG    1        5.322   1.460  -0.917  0.00  0.00    +0.100 C 
ATOM      6  C   LIG    1        5.947   0.083  -1.213  0.00  0.00    +0.310 C 
ATOM      7  O   LIG    1        6.001  -2.730  -1.292  0.00  0.00    -0.480 OA
ENDROOT
BRANCH   4   8
ATOM      8  C   LIG    1        2.963   2.116   0.104  0.00  0.00    -0.030 A 
ATOM      9  C   LIG    1        1.737   1.689   0.620  0.00  0.00    +0.070 A 
ATOM     10  C   LIG    1        0.805   2.618   1.032  0.00  0.00    +0.030 A 
ATOM     11  C   LIG    1        1.087   3.971   0.946  0.00  0.00    -0.020 A 
ATOM     12  C   LIG    1        2.301   4.401   0.436  0.00  0.00    +0.030 A 
ATOM     13 CL   LIG    1       -0.090   5.134   1.473  0.00  0.00    -0.060 Cl
ATOM     14  C   LIG    1        3.239   3.483   0.015  0.00  0.00    +0.060 A 
ENDBRANCH   4   8
BRANCH   6  15
ATOM     15  C   LIG    1        6.234  -0.065  -2.685  0.00  0.00    -0.030 A 
ATOM     16  C   LIG    1        7.433   0.098  -3.273  0.00  0.00    -0.030 A 
ATOM     17  C   LIG    1        7.247  -0.134  -4.655  0.00  0.00    -0.060 A 
ATOM     18  C   LIG    1        5.945  -0.423  -4.829  0.00  0.00    +0.170 A 
ATOM     19  O   LIG    1        5.338  -0.386  -3.632  0.00  0.00    -0.170 OA
ENDBRANCH   6  15
BRANCH   1  20
ATOM     20  C   LIG    1        3.850  -3.066  -0.381  0.00  0.00    +0.250 C 
BRANCH  20  31
ATOM     21  C   LIG    1        2.353  -4.811  -1.889  0.00  0.00    +0.050 C 
ATOM     22  C   LIG    1        3.118  -5.351  -0.678  0.00  0.00    +0.190 C 
ATOM     23  C   LIG    1        2.194  -5.376   0.545  0.00  0.00    +0.000 C 
ATOM     24  C   LIG    1        2.927  -6.105   1.674  0.00  0.00    +0.080 C 
ATOM     25  C   LIG    1        4.332  -5.570   1.794  0.00  0.00    -0.120 A 
ATOM     26  C   LIG    1        5.045  -5.859   2.946  0.00  0.00    +0.010 A 
ATOM     27  C   LIG    1        6.338  -5.401   3.104  0.00  0.00    -0.010 A 
ATOM     28  C   LIG    1        6.929  -4.648   2.106  0.00  0.00    +0.010 A 
ATOM     29  C   LIG    1        6.225  -4.354   0.958  0.00  0.00    +0.030 A 
ATOM     30  C   LIG    1        4.917  -4.813   0.793  0.00  0.00    +0.110 A 
ATOM     31  N   LIG    1        4.257  -4.478  -0.388  0.00  0.00    -0.480 N 
ENDBRANCH  20  31
ENDBRANCH   1  20
TORSDOF 4
