REMARK  Name = ZINCvU000000054l.0
REMARK                            x       y       z     vdW  Elec       q    Type
REMARK                         _______ _______ _______ _____ _____    ______ ____
ROOT
ATOM      1  C   LIG    1        5.588  -8.130  -0.255  0.00  0.00    +0.240 C 
ENDROOT
BRANCH   1   3
ATOM      2  O   LIG    1        4.892 -10.379  -0.419  0.00  0.00    -0.490 OA
ATOM      3  C   LIG    1        5.825  -9.618  -0.271  0.00  0.00    +0.510 C 
ATOM      4  N   LIG    1        7.073 -10.104  -0.120  0.00  0.00    -0.670 N 
ATOM      5  H   LIG    1        7.828  -9.496  -0.078  0.00  0.00    +0.420 HD
BRANCH   4   6
ATOM      6  C   LIG    1        7.281 -11.486  -0.024  0.00  0.00    +0.150 A 
ATOM      7  C   LIG    1        8.439 -12.051  -0.539  0.00  0.00    +0.010 A 
ATOM      8  C   LIG    1        8.647 -13.415  -0.446  0.00  0.00    +0.050 A 
ATOM      9  C   LIG    1        7.697 -14.216   0.163  0.00  0.00    +0.050 A 
ATOM     10  O   LIG    1        7.893 -15.564   0.259  0.00  0.00    -0.320 OA
ATOM     11  C   LIG    1        8.108 -16.073   1.577  0.00  0.00    +0.230 C 
ATOM     12  C   LIG    1        6.784 -16.328   2.279  0.00  0.00    -0.010 C 
ATOM     13  C   LIG    1        5.999 -15.048   2.517  0.00  0.00    +0.230 C 
ATOM     14  O   LIG    1        5.608 -14.455   1.277  0.00  0.00    -0.320 OA
ATOM     15  C   LIG    1        6.538 -13.654   0.680  0.00  0.00    +0.090 A 
ATOM     16  C   LIG    1        6.329 -12.289   0.594  0.00  0.00    +0.030 A 
ENDBRANCH   4   6
ENDBRANCH   1   3
BRANCH   1  17
ATOM     17  O   LIG    1        4.195  -7.868  -0.432  0.00  0.00    -0.280 OA
BRANCH  17  18
ATOM     18  C   LIG    1        3.809  -6.565  -0.442  0.00  0.00    +0.150 A 
ATOM     19  C   LIG    1        2.469  -6.241  -0.610  0.00  0.00    -0.010 A 
ATOM     20  C   LIG    1        2.074  -4.921  -0.621  0.00  0.00    +0.130 A 
ATOM     21  C   LIG    1        3.022  -3.909  -0.463  0.00  0.00    -0.080 A 
ATOM     22  C   LIG    1        4.369  -4.239  -0.299  0.00  0.00    +0.080 A 
ATOM     23  C   LIG    1        4.756  -5.561  -0.284  0.00  0.00    -0.070 A 
BRANCH  21  24
ATOM     24  C   LIG    1        2.602  -2.492  -0.474  0.00  0.00    +0.170 A 
ATOM     25  N   LIG    1        1.387  -2.084  -0.624  0.00  0.00    -0.460 NA
ATOM     26  C   LIG    1        1.161  -0.759  -0.612  0.00  0.00    +0.090 A 
ATOM     27  C   LIG    1       -0.063  -0.069  -0.754  0.00  0.00    +0.080 A 
ATOM     28  C   LIG    1       -0.098   1.291  -0.715  0.00  0.00    +0.030 A 
ATOM     29  C   LIG    1        1.064   2.027  -0.537  0.00  0.00    +0.040 A 
ATOM     30  C   LIG    1        2.273   1.382  -0.397  0.00  0.00    +0.060 A 
ATOM     31  C   LIG    1        2.329  -0.009  -0.433  0.00  0.00    -0.170 A 
ATOM     32  S   LIG    1        3.688  -1.122  -0.286  0.00  0.00    +0.060 S 
ENDBRANCH  21  24
ENDBRANCH  17  18
ENDBRANCH   1  17
TORSDOF 5
