REMARK  Name = ZINCrg00001JduYP.0
REMARK                            x       y       z     vdW  Elec       q    Type
REMARK                         _______ _______ _______ _____ _____    ______ ____
ROOT
ATOM      1  C   LIG    1       -5.251   6.004   1.633  0.00  0.00    +0.510 C 
ATOM      2  N   LIG    1       -4.613   5.207   0.753  0.00  0.00    -0.610 N 
ATOM      3  C   LIG    1       -5.307   4.679  -0.432  0.00  0.00    +0.250 C 
ATOM      4  C   LIG    1       -5.079   3.164  -0.491  0.00  0.00    +0.220 C 
ATOM      5  O   LIG    1       -3.678   2.895  -0.404  0.00  0.00    -0.360 OA
ATOM      6  C   LIG    1       -3.077   3.317   0.823  0.00  0.00    +0.170 C 
ATOM      7  C   LIG    1       -3.202   4.839   0.949  0.00  0.00    +0.260 C 
ATOM      8  O   LIG    1       -4.637   6.513   2.546  0.00  0.00    -0.510 OA
ENDROOT
BRANCH   1  10
ATOM      9  C   LIG    1       -6.960   7.227   0.316  0.00  0.00    +0.090 C 
ATOM     10  C   LIG    1       -6.728   6.263   1.481  0.00  0.00    +0.280 C 
BRANCH  10  11
ATOM     11  N   LIG    1       -7.249   6.855   2.716  0.00  0.00    -0.350 N 
ATOM     12  C   LIG    1       -7.226   8.166   3.040  0.00  0.00    +0.270 A 
ATOM     13  C   LIG    1       -7.805   8.300   4.256  0.00  0.00    -0.190 A 
ATOM     14  C   LIG    1       -8.187   7.027   4.694  0.00  0.00    +0.260 A 
ATOM     15 CL   LIG    1       -8.029   9.788   5.122  0.00  0.00    -0.040 Cl
ATOM     16  N   LIG    1       -7.854   6.161   3.771  0.00  0.00    -0.280 NA
ENDBRANCH  10  11
ENDBRANCH   1  10
BRANCH   6  17
ATOM     17  C   LIG    1       -1.598   2.923   0.829  0.00  0.00    +0.070 C 
BRANCH  17  18
ATOM     18  C   LIG    1       -1.478   1.421   0.823  0.00  0.00    +0.520 C 
ATOM     19  N   LIG    1       -0.261   0.842   0.827  0.00  0.00    -0.610 N 
ATOM     20  C   LIG    1        0.956   1.657   0.713  0.00  0.00    +0.270 C 
ATOM     21  C   LIG    1        1.891   1.311   1.876  0.00  0.00    +0.030 C 
ATOM     22  C   LIG    1        2.144  -0.198   1.891  0.00  0.00    -0.010 C 
ATOM     23  C   LIG    1        0.821  -0.937   2.099  0.00  0.00    +0.160 C 
ATOM     24  C   LIG    1       -0.127  -0.617   0.939  0.00  0.00    +0.230 C 
ATOM     25  C   LIG    1       -1.498  -1.240   1.210  0.00  0.00    +0.050 C 
ATOM     26  O   LIG    1       -2.477   0.733   0.814  0.00  0.00    -0.520 OA
BRANCH  23  27
ATOM     27  O   LIG    1        0.228  -0.516   3.329  0.00  0.00    -0.550 OA
ATOM     28  H   LIG    1        0.774  -0.688   4.108  0.00  0.00    +0.380 HD
ENDBRANCH  23  27
ENDBRANCH  17  18
ENDBRANCH   6  17
TORSDOF 5
