REMARK  Name = ZINCqH0000051aQx.0
REMARK                            x       y       z     vdW  Elec       q    Type
REMARK                         _______ _______ _______ _____ _____    ______ ____
ROOT
ATOM      1  O   LIG    1       -2.469  -0.344   0.013  0.00  0.00    -0.330 OA
ENDROOT
BRANCH   1   2
ATOM      2  C   LIG    1       -2.486   1.004   0.020  0.00  0.00    +0.510 C 
ATOM      3  O   LIG    1       -3.546   1.597   0.028  0.00  0.00    -0.490 OA
BRANCH   2   4
ATOM      4  C   LIG    1       -1.219   1.757   0.017  0.00  0.00    -0.150 A 
ATOM      5  C   LIG    1       -0.013   1.076   0.008  0.00  0.00    +0.140 A 
ATOM      6  C   LIG    1        1.189   1.798   0.000  0.00  0.00    -0.080 A 
ATOM      7  C   LIG    1        2.432   1.139  -0.015  0.00  0.00    +0.040 A 
ATOM      8  C   LIG    1        3.581   1.868  -0.022  0.00  0.00    +0.010 A 
ATOM      9  C   LIG    1        3.547   3.261  -0.015  0.00  0.00    +0.040 A 
ATOM     10  C   LIG    1        2.363   3.934   0.001  0.00  0.00    +0.010 A 
ATOM     11  C   LIG    1        1.155   3.217   0.008  0.00  0.00    -0.010 A 
ATOM     12  C   LIG    1       -0.082   3.884   0.023  0.00  0.00    -0.010 A 
ATOM     13  C   LIG    1       -1.243   3.169   0.030  0.00  0.00    +0.170 A 
BRANCH  13  14
ATOM     14  O   LIG    1       -2.433   3.821   0.045  0.00  0.00    -0.480 OA
ATOM     15  H   LIG    1       -2.787   4.014  -0.834  0.00  0.00    +0.400 HD
ENDBRANCH  13  14
ENDBRANCH   2   4
ENDBRANCH   1   2
BRANCH   1  16
ATOM     16  C   LIG    1       -3.754  -1.020   0.016  0.00  0.00    +0.250 C 
BRANCH  16  18
ATOM     17  O   LIG    1       -2.410  -2.960  -0.001  0.00  0.00    -0.510 OA
ATOM     18  C   LIG    1       -3.537  -2.511   0.007  0.00  0.00    +0.520 C 
ATOM     19  N   LIG    1       -4.595  -3.346   0.008  0.00  0.00    -0.730 N 
ATOM     20  H   LIG    1       -5.496  -2.987   0.014  0.00  0.00    +0.400 HD
BRANCH  19  21
ATOM     21  C   LIG    1       -4.384  -4.796  -0.001  0.00  0.00    +0.270 C 
BRANCH  21  22
ATOM     22  C   LIG    1       -5.738  -5.508   0.003  0.00  0.00    +0.060 C 
BRANCH  22  23
ATOM     23  C   LIG    1       -5.521  -6.999  -0.006  0.00  0.00    -0.120 C 
ATOM     24  C   LIG    1       -5.522  -7.619   1.130  0.00  0.00    -0.040 C 
ATOM     25  C   LIG    1       -5.314  -9.098   1.281  0.00  0.00    +0.050 C 
ATOM     26  C   LIG    1       -5.518  -9.800  -0.063  0.00  0.00    +0.010 C 
ATOM     27  C   LIG    1       -4.699  -9.059  -1.127  0.00  0.00    +0.020 C 
ATOM     28  C   LIG    1       -5.312  -7.672  -1.331  0.00  0.00    +0.060 C 
ENDBRANCH  22  23
ENDBRANCH  21  22
ENDBRANCH  19  21
ENDBRANCH  16  18
ENDBRANCH   1  16
TORSDOF 8
