REMARK  Name = ZINCvU00000009rL.0
REMARK                            x       y       z     vdW  Elec       q    Type
REMARK                         _______ _______ _______ _____ _____    ______ ____
ROOT
ATOM      1  C   LIG    1        1.657  -3.894   1.227  0.00  0.00    +0.050 A 
ATOM      2  C   LIG    1        2.372  -4.213   2.361  0.00  0.00    +0.010 A 
ATOM      3  C   LIG    1        3.506  -4.938   1.960  0.00  0.00    +0.140 A 
ATOM      4  N   LIG    1        3.487  -5.048   0.645  0.00  0.00    -0.230 NA
ATOM      5  N   LIG    1        2.343  -4.406   0.156  0.00  0.00    -0.290 N 
ENDROOT
BRANCH   5   6
ATOM      6  C   LIG    1        1.967  -4.304  -1.188  0.00  0.00    +0.130 A 
ATOM      7  C   LIG    1        2.014  -5.422  -2.011  0.00  0.00    +0.040 A 
ATOM      8  C   LIG    1        1.637  -5.319  -3.335  0.00  0.00    +0.020 A 
ATOM      9  C   LIG    1        1.223  -4.102  -3.845  0.00  0.00    +0.020 A 
ATOM     10  C   LIG    1        1.180  -2.986  -3.030  0.00  0.00    +0.030 A 
ATOM     11  C   LIG    1        1.550  -3.083  -1.703  0.00  0.00    +0.040 A 
ENDBRANCH   5   6
BRANCH   3  12
ATOM     12  C   LIG    1        4.548  -5.481   2.858  0.00  0.00    -0.130 A 
ATOM     13  C   LIG    1        5.632  -6.176   2.462  0.00  0.00    +0.050 A 
ATOM     14  C   LIG    1        6.466  -6.578   3.485  0.00  0.00    +0.010 A 
ATOM     15  C   LIG    1        6.067  -6.225   4.711  0.00  0.00    -0.030 A 
ATOM     16  S   LIG    1        4.559  -5.326   4.610  0.00  0.00    +0.150 S 
ENDBRANCH   3  12
BRANCH   1  17
ATOM     17  C   LIG    1        0.396  -3.141   1.174  0.00  0.00    +0.540 C 
ATOM     18  O   LIG    1       -0.051  -2.634   2.184  0.00  0.00    -0.450 OA
BRANCH  17  19
ATOM     19  O   LIG    1       -0.264  -3.012   0.006  0.00  0.00    -0.260 OA
BRANCH  19  26
ATOM     20  C   LIG    1       -1.401  -0.928  -0.198  0.00  0.00    +0.150 A 
ATOM     21  C   LIG    1       -2.579  -0.206  -0.182  0.00  0.00    +0.020 A 
ATOM     22  C   LIG    1       -3.791  -0.858   0.065  0.00  0.00    +0.040 A 
ATOM     23  C   LIG    1       -3.806  -2.235   0.296  0.00  0.00    +0.090 A 
ATOM     24  C   LIG    1       -2.626  -2.950   0.278  0.00  0.00    -0.060 A 
ATOM     25 BR   LIG    1       -2.648  -4.815   0.590  0.00  0.00    -0.000 Br
ATOM     26  C   LIG    1       -1.423  -2.303   0.027  0.00  0.00    +0.100 A 
BRANCH  22  27
ATOM     27  C   LIG    1       -5.015  -0.114   0.084  0.00  0.00    +0.250 C 
ATOM     28  N   LIG    1       -5.986   0.476   0.098  0.00  0.00    -0.380 NA
ENDBRANCH  22  27
BRANCH  20  29
ATOM     29  O   LIG    1       -0.221  -0.297  -0.439  0.00  0.00    -0.300 OA
BRANCH  29  31
ATOM     30  C   LIG    1        1.140   1.641  -0.919  0.00  0.00    +0.070 C 
ATOM     31  C   LIG    1       -0.274   1.112  -0.667  0.00  0.00    +0.190 C 
ENDBRANCH  29  31
ENDBRANCH  20  29
ENDBRANCH  19  26
ENDBRANCH  17  19
ENDBRANCH   1  17
TORSDOF 8
