REMARK  Name = ZINCrH000004tF2O.0
REMARK                            x       y       z     vdW  Elec       q    Type
REMARK                         _______ _______ _______ _____ _____    ______ ____
ROOT
ATOM      1  C   LIG    1       -2.164  -7.390  -0.016  0.00  0.00    +0.060 C 
ENDROOT
BRANCH   1   3
ATOM      2  O   LIG    1       -3.812  -5.701   0.009  0.00  0.00    -0.530 OA
ATOM      3  C   LIG    1       -2.626  -5.956  -0.004  0.00  0.00    +0.520 C 
ATOM      4  N   LIG    1       -1.722  -4.957  -0.007  0.00  0.00    -0.730 N 
ATOM      5  H   LIG    1       -0.773  -5.161  -0.018  0.00  0.00    +0.400 HD
BRANCH   4   6
ATOM      6  C   LIG    1       -2.171  -3.562   0.004  0.00  0.00    +0.300 C 
BRANCH   6   7
ATOM      7  C   LIG    1       -0.954  -2.634  -0.003  0.00  0.00    +0.070 C 
BRANCH   7   8
ATOM      8  S   LIG    1       -1.510  -0.908   0.012  0.00  0.00    -0.090 S 
BRANCH   8   9
ATOM      9  C   LIG    1        0.002  -0.004   0.002  0.00  0.00    -0.090 A 
ATOM     10  C   LIG    1       -0.017   1.385   0.010  0.00  0.00    +0.030 A 
ATOM     11  C   LIG    1        1.171   2.091   0.002  0.00  0.00    +0.030 A 
ATOM     12  C   LIG    1        2.377   1.415  -0.013  0.00  0.00    +0.010 A 
ATOM     13  C   LIG    1        2.400   0.033  -0.021  0.00  0.00    +0.030 A 
ATOM     14  C   LIG    1        1.217  -0.679  -0.013  0.00  0.00    -0.010 A 
ENDBRANCH   8   9
ENDBRANCH   7   8
ENDBRANCH   6   7
ENDBRANCH   4   6
ENDBRANCH   1   3
BRANCH   1  15
ATOM     15  C   LIG    1       -3.380  -8.318  -0.009  0.00  0.00    +0.040 C 
BRANCH  15  16
ATOM     16  C   LIG    1       -2.911  -9.774  -0.021  0.00  0.00    +0.310 C 
BRANCH  16  17
ATOM     17  N   LIG    1       -4.076 -10.663  -0.015  0.00  0.00    -0.570 N 
ATOM     18  C   LIG    1       -4.667 -11.135   1.098  0.00  0.00    +0.580 C 
ATOM     19  C   LIG    1       -5.804 -11.991   0.701  0.00  0.00    -0.130 A 
ATOM     20  C   LIG    1       -6.753 -12.723   1.396  0.00  0.00    +0.110 A 
ATOM     21  C   LIG    1       -7.710 -13.444   0.700  0.00  0.00    +0.090 A 
ATOM     22  C   LIG    1       -7.724 -13.438  -0.683  0.00  0.00    -0.080 A 
ATOM     23  C   LIG    1       -6.780 -12.708  -1.392  0.00  0.00    +0.130 A 
ATOM     24 BR   LIG    1       -9.039 -14.429  -1.613  0.00  0.00    -0.020 Br
ATOM     25  C   LIG    1       -5.818 -11.983  -0.709  0.00  0.00    -0.130 A 
ATOM     26  O   LIG    1       -4.324 -10.896   2.238  0.00  0.00    -0.450 OA
ATOM     27  C   LIG    1       -4.692 -11.118  -1.120  0.00  0.00    +0.580 C 
ATOM     28  O   LIG    1       -4.376 -10.862  -2.265  0.00  0.00    -0.450 OA
ENDBRANCH  16  17
ENDBRANCH  15  16
ENDBRANCH   1  15
TORSDOF 8
