REMARK  Name = ZINCrD000000AMme.0
REMARK                            x       y       z     vdW  Elec       q    Type
REMARK                         _______ _______ _______ _____ _____    ______ ____
ROOT
ATOM      1  C   LIG    1        4.280  -4.779  -1.129  0.00  0.00    +0.250 C 
ATOM      2  C   LIG    1        5.388  -3.728  -1.231  0.00  0.00    +0.030 C 
ATOM      3  C   LIG    1        5.268  -2.750  -0.058  0.00  0.00    +0.300 C 
ATOM      4  N   LIG    1        3.909  -2.194  -0.043  0.00  0.00    -0.610 N 
ATOM      5  C   LIG    1        2.767  -3.119  -0.031  0.00  0.00    +0.280 C 
ATOM      6  C   LIG    1        3.712  -0.861  -0.035  0.00  0.00    +0.520 C 
ATOM      7  O   LIG    1        4.663  -0.108  -0.040  0.00  0.00    -0.510 OA
ATOM      8  C   LIG    1        2.914  -4.093  -1.210  0.00  0.00    +0.010 C 
ENDROOT
BRANCH   1  11
ATOM      9  O   LIG    1        3.365  -7.316  -1.072  0.00  0.00    -0.530 OA
ATOM     10  C   LIG    1        3.918  -6.984  -2.102  0.00  0.00    +0.560 C 
ATOM     11  N   LIG    1        4.411  -5.736  -2.231  0.00  0.00    -0.720 N 
ATOM     12  H   LIG    1        4.852  -5.471  -3.053  0.00  0.00    +0.400 HD
BRANCH  10  13
ATOM     13  C   LIG    1        4.051  -7.949  -3.214  0.00  0.00    -0.140 A 
ATOM     14  C   LIG    1        4.680  -7.569  -4.401  0.00  0.00    +0.030 A 
ATOM     15  C   LIG    1        4.805  -8.477  -5.433  0.00  0.00    +0.000 A 
ATOM     16  C   LIG    1        4.298  -9.757  -5.297  0.00  0.00    +0.040 A 
ATOM     17  C   LIG    1        3.668 -10.138  -4.126  0.00  0.00    +0.000 A 
ATOM     18  C   LIG    1        3.542  -9.242  -3.084  0.00  0.00    +0.080 A 
ENDBRANCH  10  13
ENDBRANCH   1  11
BRANCH   6  19
ATOM     19  C   LIG    1        2.312  -0.305  -0.020  0.00  0.00    +0.240 C 
BRANCH  19  20
ATOM     20  O   LIG    1        2.365   1.123  -0.014  0.00  0.00    -0.280 OA
BRANCH  20  21
ATOM     21  C   LIG    1        1.178   1.785   0.000  0.00  0.00    +0.110 A 
ATOM     22  C   LIG    1       -0.013   1.076   0.008  0.00  0.00    -0.030 A 
ATOM     23  C   LIG    1       -1.219   1.751   0.017  0.00  0.00    +0.090 A 
ATOM     24  C   LIG    1       -1.239   3.134   0.030  0.00  0.00    -0.100 A 
ATOM     25  C   LIG    1       -0.053   3.845   0.022  0.00  0.00    +0.070 A 
ATOM     26 BR   LIG    1       -2.892   4.053   0.050  0.00  0.00    -0.030 Br
ATOM     27  C   LIG    1        1.157   3.175   0.008  0.00  0.00    +0.080 A 
ATOM     28  F   LIG    1        2.315   3.869  -0.000  0.00  0.00    -0.120 F 
ENDBRANCH  20  21
ENDBRANCH  19  20
ENDBRANCH   6  19
TORSDOF 5
