REMARK  Name = ZINCpe000000WQKz.0
REMARK                            x       y       z     vdW  Elec       q    Type
REMARK                         _______ _______ _______ _____ _____    ______ ____
ROOT
ATOM      1  C   LIG    1        1.175   6.208  -1.980  0.00  0.00    +0.200 C 
ATOM      2  C   LIG    1        0.606   7.194  -3.000  0.00  0.00    +0.250 C 
ATOM      3  O   LIG    1       -0.402   6.531  -3.772  0.00  0.00    -0.360 OA
ATOM      4  C   LIG    1       -1.568   6.209  -3.010  0.00  0.00    +0.290 C 
ATOM      5  C   LIG    1       -1.169   5.515  -1.737  0.00  0.00    +0.490 C 
ATOM      6  O   LIG    1       -2.014   4.913  -1.109  0.00  0.00    -0.520 OA
ATOM      7  N   LIG    1        0.087   5.538  -1.272  0.00  0.00    -0.580 N 
ENDROOT
BRANCH   1  10
ATOM      8  N   LIG    1        3.348   7.124  -1.234  0.00  0.00    -0.720 N 
ATOM      9  H   LIG    1        3.740   6.772  -2.049  0.00  0.00    +0.400 HD
ATOM     10  C   LIG    1        2.034   6.950  -0.989  0.00  0.00    +0.510 C 
ATOM     11  O   LIG    1        1.544   7.391   0.029  0.00  0.00    -0.510 OA
BRANCH   8  13
ATOM     12  C   LIG    1        4.664   6.878   0.812  0.00  0.00    +0.040 C 
ATOM     13  C   LIG    1        4.184   7.845  -0.271  0.00  0.00    +0.230 C 
BRANCH  13  14
ATOM     14  C   LIG    1        5.393   8.444  -0.993  0.00  0.00    +0.310 C 
BRANCH  14  15
ATOM     15  N   LIG    1        4.939   9.458  -1.947  0.00  0.00    -0.460 N 
ATOM     16  C   LIG    1        4.609   9.248  -3.259  0.00  0.00    +0.110 A 
ATOM     17  C   LIG    1        4.245  10.442  -3.765  0.00  0.00    +0.150 A 
ATOM     18  N   LIG    1        4.358  11.357  -2.791  0.00  0.00    -0.490 NA
ATOM     19  C   LIG    1        4.773  10.775  -1.699  0.00  0.00    +0.390 A 
ENDBRANCH  14  15
ENDBRANCH  13  14
ENDBRANCH   8  13
ENDBRANCH   1  10
BRANCH   7  20
ATOM     20  C   LIG    1        0.379   4.870  -0.002  0.00  0.00    +0.330 C 
BRANCH  20  21
ATOM     21  C   LIG    1        0.636   3.406  -0.251  0.00  0.00    -0.110 A 
ATOM     22  C   LIG    1        1.919   2.964  -0.514  0.00  0.00    +0.000 A 
ATOM     23  C   LIG    1        2.155   1.621  -0.742  0.00  0.00    +0.000 A 
ATOM     24  C   LIG    1        1.107   0.720  -0.709  0.00  0.00    +0.010 A 
ATOM     25  C   LIG    1       -0.178   1.163  -0.452  0.00  0.00    +0.000 A 
ATOM     26  C   LIG    1       -0.412   2.505  -0.218  0.00  0.00    +0.040 A 
ENDBRANCH  20  21
ENDBRANCH   7  20
TORSDOF 6
