REMARK  Name = ZINCpe000000WrOt.0
REMARK                            x       y       z     vdW  Elec       q    Type
REMARK                         _______ _______ _______ _____ _____    ______ ____
ROOT
ATOM      1  N   LIG    1       -1.191   1.867   0.018  0.00  0.00    -0.660 N 
ATOM      2  H   LIG    1       -1.205   2.833   0.098  0.00  0.00    +0.420 HD
ATOM      3  C   LIG    1       -0.014   1.209   0.007  0.00  0.00    +0.530 C 
ATOM      4  O   LIG    1        0.002  -0.004  -0.008  0.00  0.00    -0.510 OA
ENDROOT
BRANCH   1   8
ATOM      5  C   LIG    1       -4.770  -0.252  -0.293  0.00  0.00    +0.090 A 
ATOM      6  C   LIG    1       -4.652   0.999  -0.877  0.00  0.00    -0.020 A 
ATOM      7  C   LIG    1       -3.468   1.704  -0.769  0.00  0.00    +0.030 A 
ATOM      8  C   LIG    1       -2.393   1.154  -0.086  0.00  0.00    +0.130 A 
ATOM      9  C   LIG    1       -2.510  -0.099   0.499  0.00  0.00    +0.040 A 
ATOM     10  C   LIG    1       -3.696  -0.801   0.396  0.00  0.00    +0.090 A 
ATOM     11  F   LIG    1       -3.811  -2.021   0.965  0.00  0.00    -0.130 F 
BRANCH   5  13
ATOM     12  C   LIG    1       -7.000  -0.318  -1.118  0.00  0.00    +0.250 C 
ATOM     13  O   LIG    1       -5.937  -0.943  -0.395  0.00  0.00    -0.310 OA
ENDBRANCH   5  13
ENDBRANCH   1   8
BRANCH   3  14
ATOM     14  C   LIG    1        1.280   1.980   0.007  0.00  0.00    +0.010 C 
ATOM     15  C   LIG    1        1.465   2.752  -1.320  0.00  0.00    +0.080 C 
ATOM     16  C   LIG    1        2.948   2.656  -1.601  0.00  0.00    +0.520 C 
ATOM     17  N   LIG    1        3.499   1.685  -0.853  0.00  0.00    -0.610 N 
ATOM     18  O   LIG    1        3.552   3.354  -2.389  0.00  0.00    -0.510 OA
ATOM     19  C   LIG    1        2.494   1.024  -0.013  0.00  0.00    +0.300 C 
BRANCH  17  20
ATOM     20  C   LIG    1        4.921   1.332  -0.873  0.00  0.00    +0.290 C 
ATOM     21  C   LIG    1        5.331   0.920  -2.298  0.00  0.00    +0.060 C 
ATOM     22  C   LIG    1        6.880   0.882  -2.321  0.00  0.00    -0.300 C 
ATOM     23  S   LIG    1        7.327   2.397  -1.390  0.00  0.00    +2.400 S 
ATOM     24  O   LIG    1        8.388   2.103  -0.492  0.00  0.00    -0.930 OA
ATOM     25  O   LIG    1        7.444   3.487  -2.294  0.00  0.00    -0.920 OA
ATOM     26  C   LIG    1        5.764   2.552  -0.453  0.00  0.00    -0.330 C 
ENDBRANCH  17  20
ENDBRANCH   3  14
TORSDOF 4
