REMARK  Name = ZINCqH0000034Sn3.0
REMARK                            x       y       z     vdW  Elec       q    Type
REMARK                         _______ _______ _______ _____ _____    ______ ____
ROOT
ATOM      1  N   LIG    1       -1.155  -2.156   0.002  0.00  0.00    -0.700 N 
ATOM      2  H   LIG    1       -0.290  -2.594  -0.009  0.00  0.00    +0.410 HD
ATOM      3  C   LIG    1       -1.230  -0.810   0.010  0.00  0.00    +0.610 C 
ATOM      4  O   LIG    1       -2.316  -0.262   0.024  0.00  0.00    -0.520 OA
ENDROOT
BRANCH   3   5
ATOM      5  C   LIG    1        0.002  -0.004   0.002  0.00  0.00    +0.020 A 
ATOM      6  C   LIG    1       -0.016   1.347   0.009  0.00  0.00    -0.020 A 
ATOM      7  S   LIG    1        1.591   1.931  -0.003  0.00  0.00    +0.240 S 
ATOM      8  C   LIG    1        2.208   0.283  -0.018  0.00  0.00    +0.110 A 
ATOM      9  N   LIG    1        1.210  -0.552  -0.013  0.00  0.00    -0.430 NA
BRANCH   8  10
ATOM     10  C   LIG    1        3.631  -0.093  -0.033  0.00  0.00    +0.040 A 
ATOM     11  C   LIG    1        4.686   0.769  -0.044  0.00  0.00    +0.000 A 
ATOM     12  C   LIG    1        5.853  -0.019  -0.054  0.00  0.00    -0.050 A 
ATOM     13  C   LIG    1        5.459  -1.308  -0.057  0.00  0.00    +0.010 A 
ATOM     14  C   LIG    1        6.375  -2.506  -0.074  0.00  0.00    +0.180 C 
ATOM     15  O   LIG    1        4.118  -1.350  -0.045  0.00  0.00    -0.150 OA
ENDBRANCH   8  10
ENDBRANCH   3   5
BRANCH   1  16
ATOM     16  C   LIG    1       -2.381  -2.958   0.010  0.00  0.00    +0.310 C 
BRANCH  16  17
ATOM     17  C   LIG    1       -2.855  -3.137   1.429  0.00  0.00    -0.100 A 
ATOM     18  C   LIG    1       -1.941  -3.373   2.439  0.00  0.00    +0.020 A 
ATOM     19  C   LIG    1       -2.376  -3.533   3.741  0.00  0.00    +0.000 A 
ATOM     20  C   LIG    1       -3.725  -3.466   4.033  0.00  0.00    +0.010 A 
ATOM     21  C   LIG    1       -4.640  -3.236   3.022  0.00  0.00    +0.000 A 
ATOM     22  C   LIG    1       -4.205  -3.072   1.720  0.00  0.00    +0.020 A 
ENDBRANCH  16  17
BRANCH  16  23
ATOM     23  C   LIG    1       -2.098  -4.328  -0.610  0.00  0.00    +0.130 C 
BRANCH  23  24
ATOM     24  C   LIG    1       -1.743  -4.158  -2.064  0.00  0.00    +0.460 C 
ATOM     25  O   LIG    1       -1.718  -3.054  -2.555  0.00  0.00    -0.490 OA
BRANCH  24  27
ATOM     26  C   LIG    1       -1.120  -4.993  -4.208  0.00  0.00    +0.260 C 
ATOM     27  O   LIG    1       -1.454  -5.232  -2.815  0.00  0.00    -0.360 OA
ENDBRANCH  24  27
ENDBRANCH  23  24
ENDBRANCH  16  23
ENDBRANCH   1  16
TORSDOF 7
