REMARK  Name = ZINCrD00000rZ9cA.0
REMARK                            x       y       z     vdW  Elec       q    Type
REMARK                         _______ _______ _______ _____ _____    ______ ____
ROOT
ATOM      1  N   LIG    1       -2.545   3.638   8.268  0.00  0.00    -0.670 N 
ATOM      2  H   LIG    1       -2.703   4.254   7.535  0.00  0.00    +0.410 HD
ATOM      3  C   LIG    1       -1.827   2.516   8.062  0.00  0.00    +0.550 C 
ATOM      4  O   LIG    1       -1.545   1.793   8.999  0.00  0.00    -0.520 OA
ENDROOT
BRANCH   1   8
ATOM      5  C   LIG    1       -4.086   4.462  12.053  0.00  0.00    +0.150 A 
ATOM      6  C   LIG    1       -4.807   4.810  10.919  0.00  0.00    +0.050 A 
ATOM      7  C   LIG    1       -4.295   4.541   9.665  0.00  0.00    +0.020 A 
ATOM      8  C   LIG    1       -3.062   3.914   9.539  0.00  0.00    +0.140 A 
ATOM      9  C   LIG    1       -2.340   3.566  10.673  0.00  0.00    +0.070 A 
ATOM     10  C   LIG    1       -2.850   3.839  11.927  0.00  0.00    -0.050 A 
ATOM     11 CL   LIG    1       -1.948   3.405  13.345  0.00  0.00    -0.060 Cl
BRANCH   5  14
ATOM     12  C   LIG    1       -6.497   5.175  14.857  0.00  0.00    +0.110 C 
ATOM     13  C   LIG    1       -5.938   4.763  13.520  0.00  0.00    +0.510 C 
ATOM     14  N   LIG    1       -4.604   4.740  13.325  0.00  0.00    -0.670 N 
ATOM     15  H   LIG    1       -4.003   4.916  14.066  0.00  0.00    +0.410 HD
ATOM     16  O   LIG    1       -6.687   4.451  12.618  0.00  0.00    -0.520 OA
ENDBRANCH   5  14
ENDBRANCH   1   8
BRANCH   3  17
ATOM     17  C   LIG    1       -1.389   2.167   6.712  0.00  0.00    -0.090 C 
ATOM     18  C   LIG    1       -0.670   1.042   6.505  0.00  0.00    +0.130 C 
BRANCH  18  19
ATOM     19  C   LIG    1       -0.229   0.691   5.148  0.00  0.00    -0.070 A 
ATOM     20  C   LIG    1        0.517  -0.474   4.932  0.00  0.00    +0.060 A 
ATOM     21  C   LIG    1        0.927  -0.798   3.664  0.00  0.00    +0.030 A 
ATOM     22  C   LIG    1        0.603   0.031   2.593  0.00  0.00    +0.130 A 
ATOM     23  C   LIG    1       -0.133   1.193   2.804  0.00  0.00    +0.010 A 
ATOM     24  C   LIG    1       -0.552   1.522   4.068  0.00  0.00    +0.040 A 
BRANCH  22  25
ATOM     25  N   LIG    1        1.022  -0.301   1.308  0.00  0.00    -1.070 N 
ATOM     26  H   LIG    1        1.750   0.188   0.894  0.00  0.00    +0.430 HD
BRANCH  25  27
ATOM     27  S   LIG    1        0.276  -1.530   0.486  0.00  0.00    +2.610 S 
ATOM     28  O   LIG    1        0.916  -1.542  -0.783  0.00  0.00    -0.950 OA
ATOM     29  O   LIG    1        0.367  -2.644   1.363  0.00  0.00    -0.950 OA
ATOM     30  C   LIG    1       -1.447  -0.987   0.324  0.00  0.00    -0.280 C 
ENDBRANCH  25  27
ENDBRANCH  22  25
ENDBRANCH  18  19
ENDBRANCH   3  17
TORSDOF 6
