REMARK  Name = ZINCpk00001AZiGe.1
REMARK                            x       y       z     vdW  Elec       q    Type
REMARK                         _______ _______ _______ _____ _____    ______ ____
ROOT
ATOM      1  C   LIG    1       -6.436   2.423  -1.049  0.00  0.00    +0.130 C 
ATOM      2  C   LIG    1       -6.724   0.961  -0.687  0.00  0.00    +0.060 C 
ATOM      3  C   LIG    1       -8.241   0.772  -0.603  0.00  0.00    +0.070 C 
ATOM      4  C   LIG    1       -8.899   1.358  -1.818  0.00  0.00    +0.520 C 
ATOM      5  N   LIG    1       -8.302   2.229  -2.632  0.00  0.00    -0.720 N 
ATOM      6  H   LIG    1       -8.814   2.581  -3.377  0.00  0.00    +0.400 HD
ATOM      7  O   LIG    1      -10.037   1.022  -2.073  0.00  0.00    -0.550 OA
ATOM      8  C   LIG    1       -6.926   2.684  -2.474  0.00  0.00    +0.330 C 
ENDROOT
BRANCH   8   9
ATOM      9  C   LIG    1       -6.853   4.161  -2.763  0.00  0.00    -0.060 A 
ATOM     10  C   LIG    1       -6.153   4.752  -3.750  0.00  0.00    +0.180 A 
ATOM     11  N   LIG    1       -6.354   6.076  -3.666  0.00  0.00    -0.490 NA
ATOM     12  C   LIG    1       -7.152   6.327  -2.664  0.00  0.00    +0.400 A 
ATOM     13  N   LIG    1       -7.492   5.159  -2.078  0.00  0.00    -0.450 N 
ATOM     14  C   LIG    1       -8.376   4.992  -0.922  0.00  0.00    +0.330 C 
ENDBRANCH   8   9
BRANCH   1  15
ATOM     15  N   LIG    1       -4.991   2.675  -0.970  0.00  0.00    -0.670 NA
ATOM     16  H   LIG    1       -4.715   3.400  -1.615  0.00  0.00    +0.350 HD
BRANCH  15  17
ATOM     17  C   LIG    1       -4.590   3.011   0.402  0.00  0.00    +0.280 C 
BRANCH  17  23
ATOM     18  C   LIG    1        2.341   5.578   0.445  0.00  0.00    +0.110 C 
ATOM     19  C   LIG    1        1.172   4.628   0.493  0.00  0.00    -0.100 A 
ATOM     20  C   LIG    1       -0.086   5.106   0.395  0.00  0.00    +0.210 A 
ATOM     21  N   LIG    1       -1.157   4.260   0.437  0.00  0.00    -0.360 N 
ATOM     22  C   LIG    1       -2.507   4.471   0.362  0.00  0.00    +0.090 A 
ATOM     23  C   LIG    1       -3.104   3.262   0.444  0.00  0.00    +0.060 A 
ATOM     24  N   LIG    1       -2.160   2.328   0.578  0.00  0.00    -0.470 NA
ATOM     25  C   LIG    1       -0.969   2.909   0.573  0.00  0.00    +0.220 A 
ATOM     26  C   LIG    1        0.339   2.395   0.681  0.00  0.00    +0.080 A 
ATOM     27  C   LIG    1        1.397   3.249   0.639  0.00  0.00    +0.040 A 
ENDBRANCH  17  23
ENDBRANCH  15  17
ENDBRANCH   1  15
TORSDOF 4
