REMARK  Name = ZINCrH000004tX3X.0
REMARK                            x       y       z     vdW  Elec       q    Type
REMARK                         _______ _______ _______ _____ _____    ______ ____
ROOT
ATOM      1  O   LIG    1        0.002  -0.004   0.002  0.00  0.00    -0.520 OA
ATOM      2  C   LIG    1       -0.014   1.209   0.009  0.00  0.00    +0.520 C 
ATOM      3  N   LIG    1        1.143   1.898   0.001  0.00  0.00    -0.720 N 
ATOM      4  H   LIG    1        1.130   2.868   0.007  0.00  0.00    +0.410 HD
ENDROOT
BRANCH   3   5
ATOM      5  C   LIG    1        2.422   1.183  -0.015  0.00  0.00    +0.330 C 
BRANCH   5   6
ATOM      6  C   LIG    1        3.554   2.178  -0.020  0.00  0.00    +0.510 C 
ATOM      7  N   LIG    1        4.831   1.746  -0.035  0.00  0.00    -0.630 N 
ATOM      8  H   LIG    1        5.021   0.795  -0.042  0.00  0.00    +0.430 HD
ATOM      9  O   LIG    1        3.316   3.367  -0.011  0.00  0.00    -0.460 OA
BRANCH   7  10
ATOM     10  C   LIG    1        5.871   2.660  -0.040  0.00  0.00    +0.330 A 
ATOM     11  N   LIG    1        5.726   3.940  -0.037  0.00  0.00    -0.470 NA
ATOM     12  C   LIG    1        6.837   4.702  -0.038  0.00  0.00    +0.100 A 
ATOM     13  C   LIG    1        6.944   6.109  -0.031  0.00  0.00    +0.070 A 
ATOM     14  C   LIG    1        8.176   6.712  -0.041  0.00  0.00    +0.040 A 
ATOM     15  C   LIG    1        9.335   5.951  -0.056  0.00  0.00    +0.040 A 
ATOM     16  C   LIG    1        9.256   4.576  -0.062  0.00  0.00    +0.060 A 
ATOM     17  C   LIG    1        8.014   3.946  -0.053  0.00  0.00    -0.180 A 
ATOM     18  S   LIG    1        7.578   2.239  -0.058  0.00  0.00    +0.070 S 
ENDBRANCH   7  10
ENDBRANCH   5   6
ENDBRANCH   3   5
BRANCH   2  19
ATOM     19  C   LIG    1       -1.330   1.944   0.019  0.00  0.00    +0.120 C 
BRANCH  19  20
ATOM     20  C   LIG    1       -2.462   0.950   0.019  0.00  0.00    -0.060 A 
ATOM     21  C   LIG    1       -3.052   0.586  -1.152  0.00  0.00    +0.020 A 
ATOM     22  C   LIG    1       -4.097  -0.337  -1.172  0.00  0.00    +0.010 A 
ATOM     23  C   LIG    1       -4.564  -0.893  -0.021  0.00  0.00    +0.030 A 
ATOM     24  C   LIG    1       -3.982  -0.537   1.208  0.00  0.00    -0.050 A 
ATOM     25  C   LIG    1       -4.437  -1.090   2.417  0.00  0.00    +0.030 A 
ATOM     26  C   LIG    1       -3.850  -0.722   3.589  0.00  0.00    +0.000 A 
ATOM     27  C   LIG    1       -2.803   0.197   3.609  0.00  0.00    +0.010 A 
ATOM     28  C   LIG    1       -2.335   0.752   2.457  0.00  0.00    +0.010 A 
ATOM     29  C   LIG    1       -2.917   0.397   1.228  0.00  0.00    -0.030 A 
ENDBRANCH  19  20
ENDBRANCH   2  19
TORSDOF 5
