REMARK  Name = ZINCpk00000y6tIS.0
REMARK                            x       y       z     vdW  Elec       q    Type
REMARK                         _______ _______ _______ _____ _____    ______ ____
ROOT
ATOM      1  O   LIG    1       -2.652   0.765   3.498  0.00  0.00    -0.580 OA
ATOM      2  C   LIG    1       -1.894   1.487   4.116  0.00  0.00    +0.720 C 
ATOM      3  N   LIG    1       -0.612   1.614   3.720  0.00  0.00    -0.630 N 
ATOM      4  C   LIG    1        0.439   2.360   4.436  0.00  0.00    +0.240 C 
ATOM      5  C   LIG    1        1.769   1.716   3.971  0.00  0.00    +0.020 C 
ATOM      6  C   LIG    1        1.465   1.415   2.480  0.00  0.00    +0.070 C 
ATOM      7  C   LIG    1       -0.029   1.030   2.503  0.00  0.00    +0.250 C 
ATOM      8  N   LIG    1       -2.334   2.160   5.197  0.00  0.00    -0.750 N 
ATOM      9  H   LIG    1       -1.729   2.736   5.690  0.00  0.00    +0.400 HD
ENDROOT
BRANCH   7  10
ATOM     10  C   LIG    1       -0.731   1.596   1.267  0.00  0.00    -0.030 C 
ATOM     11  C   LIG    1       -0.521   3.111   1.208  0.00  0.00    +0.220 C 
ATOM     12  O   LIG    1       -1.128   3.630   0.023  0.00  0.00    -0.380 OA
ATOM     13  C   LIG    1       -0.585   3.104  -1.189  0.00  0.00    +0.210 C 
ATOM     14  C   LIG    1       -0.797   1.588  -1.227  0.00  0.00    -0.030 C 
ATOM     15  C   LIG    1       -0.142   0.957   0.005  0.00  0.00    +0.170 C 
BRANCH  15  16
ATOM     16  O   LIG    1        1.268   1.187  -0.033  0.00  0.00    -0.560 OA
ATOM     17  H   LIG    1        1.706   0.815  -0.810  0.00  0.00    +0.380 HD
ENDBRANCH  15  16
ENDBRANCH   7  10
BRANCH   8  18
ATOM     18  C   LIG    1       -3.728   2.023   5.628  0.00  0.00    +0.280 C 
BRANCH  18  19
ATOM     19  C   LIG    1       -3.966   2.885   6.869  0.00  0.00    +0.020 C 
BRANCH  19  20
ATOM     20  C   LIG    1       -5.421   2.741   7.319  0.00  0.00    +0.270 C 
BRANCH  20  21
ATOM     21  N   LIG    1       -5.649   3.567   8.507  0.00  0.00    -0.730 N 
ATOM     22  H   LIG    1       -4.923   4.092   8.880  0.00  0.00    +0.400 HD
BRANCH  21  23
ATOM     23  C   LIG    1       -6.905   3.599   9.101  0.00  0.00    +0.400 A 
ATOM     24  C   LIG    1       -7.944   2.849   8.559  0.00  0.00    -0.110 A 
ATOM     25  C   LIG    1       -9.188   2.887   9.162  0.00  0.00    +0.100 A 
ATOM     26  C   LIG    1       -9.355   3.684  10.286  0.00  0.00    -0.100 A 
ATOM     27  C   LIG    1       -8.282   4.406  10.769  0.00  0.00    +0.310 A 
ATOM     28  N   LIG    1       -7.105   4.348  10.175  0.00  0.00    -0.550 NA
ENDBRANCH  21  23
ENDBRANCH  20  21
ENDBRANCH  19  20
ENDBRANCH  18  19
ENDBRANCH   8  18
TORSDOF 7
