REMARK  Name = ZINCqH0000004ApM.0
REMARK                            x       y       z     vdW  Elec       q    Type
REMARK                         _______ _______ _______ _____ _____    ______ ____
ROOT
ATOM      1  C   LIG    1       -5.391  -0.012  -0.161  0.00  0.00    -0.010 C 
ATOM      2  C   LIG    1       -5.347  -0.556   1.268  0.00  0.00    +0.070 C 
ENDROOT
BRANCH   1   5
ATOM      3  N   LIG    1       -7.732  -0.448  -0.829  0.00  0.00    -0.660 N 
ATOM      4  H   LIG    1       -7.529  -1.397  -0.811  0.00  0.00    +0.410 HD
ATOM      5  C   LIG    1       -6.789   0.450  -0.480  0.00  0.00    +0.540 C 
ATOM      6  O   LIG    1       -7.067   1.629  -0.423  0.00  0.00    -0.490 OA
BRANCH   3  12
ATOM      7  C   LIG    1       -9.726  -0.728  -2.165  0.00  0.00    -0.090 A 
ATOM      8  C   LIG    1      -10.980  -0.298  -2.549  0.00  0.00    +0.000 A 
ATOM      9  C   LIG    1      -11.521   0.850  -1.988  0.00  0.00    +0.100 A 
ATOM     10  C   LIG    1      -10.802   1.566  -1.042  0.00  0.00    +0.000 A 
ATOM     11  C   LIG    1       -9.549   1.134  -0.654  0.00  0.00    +0.050 A 
ATOM     12  C   LIG    1       -9.005  -0.012  -1.219  0.00  0.00    +0.140 A 
BRANCH   7  14
ATOM     13  C   LIG    1       -9.426  -3.171  -1.865  0.00  0.00    +0.020 C 
ATOM     14  C   LIG    1       -9.138  -1.975  -2.774  0.00  0.00    +0.060 C 
ENDBRANCH   7  14
BRANCH   9  15
ATOM     15  O   LIG    1      -12.757   1.274  -2.366  0.00  0.00    -0.500 OA
ATOM     16  H   LIG    1      -13.477   0.911  -1.832  0.00  0.00    +0.390 HD
ENDBRANCH   9  15
ENDBRANCH   3  12
ENDBRANCH   1   5
BRANCH   1  17
ATOM     17  S   LIG    1       -4.244   1.386  -0.311  0.00  0.00    -0.090 S 
BRANCH  17  18
ATOM     18  C   LIG    1       -2.624   0.614  -0.046  0.00  0.00    +0.090 C 
BRANCH  18  19
ATOM     19  C   LIG    1       -1.546   1.663  -0.141  0.00  0.00    +0.530 C 
ATOM     20  N   LIG    1       -0.254   1.319   0.023  0.00  0.00    -0.670 N 
ATOM     21  H   LIG    1       -0.010   0.386   0.128  0.00  0.00    +0.410 HD
ATOM     22  O   LIG    1       -1.842   2.818  -0.366  0.00  0.00    -0.490 OA
BRANCH  20  23
ATOM     23  C   LIG    1        0.738   2.307   0.036  0.00  0.00    +0.130 A 
ATOM     24  C   LIG    1        1.998   2.034  -0.479  0.00  0.00    +0.030 A 
ATOM     25  C   LIG    1        2.974   3.012  -0.470  0.00  0.00    +0.010 A 
ATOM     26  C   LIG    1        2.699   4.261   0.063  0.00  0.00    +0.090 A 
ATOM     27  C   LIG    1        1.445   4.533   0.582  0.00  0.00    +0.010 A 
ATOM     28  F   LIG    1        3.656   5.214   0.076  0.00  0.00    -0.140 F 
ATOM     29  C   LIG    1        0.465   3.560   0.570  0.00  0.00    +0.060 A 
ENDBRANCH  20  23
ENDBRANCH  18  19
ENDBRANCH  17  18
ENDBRANCH   1  17
TORSDOF 8
