REMARK  Name = ZINCah0000006lBk.0
REMARK                            x       y       z     vdW  Elec       q    Type
REMARK                         _______ _______ _______ _____ _____    ______ ____
ROOT
ATOM      1  C   LIG    1       -1.328   1.812   0.018  0.00  0.00    +0.050 C 
ATOM      2  C   LIG    1       -2.132   1.441  -1.231  0.00  0.00    +0.020 C 
ATOM      3  C   LIG    1       -3.482   2.177  -1.186  0.00  0.00    +0.030 C 
ATOM      4  C   LIG    1       -3.544   3.022   0.092  0.00  0.00    -0.040 C 
ATOM      5  C   LIG    1       -3.335   2.103   1.301  0.00  0.00    +0.210 C 
ATOM      6  C   LIG    1       -2.414   4.057   0.057  0.00  0.00    +0.020 C 
ATOM      7  O   LIG    1       -2.067   1.453   1.188  0.00  0.00    -0.360 OA
ATOM      8  C   LIG    1       -1.071   3.321   0.025  0.00  0.00    +0.020 C 
ENDROOT
BRANCH   1  10
ATOM      9  O   LIG    1        1.025   1.694   0.001  0.00  0.00    -0.440 OA
ATOM     10  C   LIG    1       -0.013   1.076   0.008  0.00  0.00    +0.480 C 
ENDBRANCH   1  10
TORSDOF 1
