REMARK  Name = ZINCb70000001CJ4.0
REMARK                            x       y       z     vdW  Elec       q    Type
REMARK                         _______ _______ _______ _____ _____    ______ ____
ROOT
ATOM      1  C   LIG    1        0.002  -0.004   0.002  0.00  0.00    +0.240 C 
ENDROOT
BRANCH   1   2
ATOM      2  C   LIG    1        0.269  -0.510   1.396  0.00  0.00    -0.160 A 
ATOM      3  C   LIG    1       -0.756  -0.559   2.322  0.00  0.00    +0.020 A 
ATOM      4  C   LIG    1       -0.512  -1.027   3.600  0.00  0.00    +0.040 A 
ATOM      5  C   LIG    1        0.759  -1.439   3.954  0.00  0.00    +0.060 A 
ATOM      6  C   LIG    1        1.785  -1.386   3.029  0.00  0.00    +0.030 A 
ATOM      7  C   LIG    1        1.540  -0.922   1.750  0.00  0.00    +0.060 A 
ENDBRANCH   1   2
BRANCH   1  11
ATOM      8  N   LIG    1        1.139   2.192   0.003  0.00  0.00    -0.820 N 
ATOM      9  H   LIG    1        1.126   3.162   0.008  0.00  0.00    +0.430 HD
ATOM     10  H   LIG    1        1.986   1.719  -0.008  0.00  0.00    +0.410 HD
ATOM     11  C   LIG    1       -0.018   1.503   0.010  0.00  0.00    +0.510 C 
ATOM     12  O   LIG    1       -1.077   2.095   0.018  0.00  0.00    -0.520 OA
ENDBRANCH   1  11
BRANCH   1  13
ATOM     13  N   LIG    1       -1.297  -0.509  -0.462  0.00  0.00    -0.620 N 
ATOM     14  H   LIG    1       -1.283  -1.518  -0.468  0.00  0.00    +0.450 HD
ATOM     15  H   LIG    1       -1.476  -0.170  -1.395  0.00  0.00    +0.440 HD
ATOM     16  H   LIG    1       -2.024  -0.186   0.158  0.00  0.00    +0.440 HD
ENDBRANCH   1  13
TORSDOF 3
