REMARK  Name = ZINCrH000004tOCv.0
REMARK                            x       y       z     vdW  Elec       q    Type
REMARK                         _______ _______ _______ _____ _____    ______ ____
ROOT
ATOM      1  O   LIG    1       -1.110   2.581   1.059  0.00  0.00    -0.510 OA
ATOM      2  C   LIG    1       -1.118   1.460   0.596  0.00  0.00    +0.510 C 
ATOM      3  N   LIG    1       -0.011   0.966   0.007  0.00  0.00    -0.660 N 
ATOM      4  H   LIG    1       -0.037   0.096  -0.422  0.00  0.00    +0.410 HD
ENDROOT
BRANCH   3   5
ATOM      5  C   LIG    1        1.176   1.711   0.010  0.00  0.00    +0.110 A 
ATOM      6  C   LIG    1        1.127   3.095  -0.092  0.00  0.00    +0.050 A 
ATOM      7  C   LIG    1        2.296   3.830  -0.084  0.00  0.00    -0.020 A 
ATOM      8  C   LIG    1        3.521   3.184   0.016  0.00  0.00    +0.110 A 
ATOM      9  C   LIG    1        3.570   1.799   0.113  0.00  0.00    +0.010 A 
ATOM     10  C   LIG    1        2.401   1.065   0.110  0.00  0.00    +0.020 A 
BRANCH   8  11
ATOM     11  N   LIG    1        4.706   3.928   0.019  0.00  0.00    -0.490 N 
ATOM     12  C   LIG    1        5.509   3.634   1.213  0.00  0.00    +0.180 C 
ATOM     13  C   LIG    1        6.857   4.351   1.112  0.00  0.00    +0.020 C 
ATOM     14  C   LIG    1        6.620   5.859   0.992  0.00  0.00    +0.010 C 
ATOM     15  C   LIG    1        5.741   6.134  -0.232  0.00  0.00    +0.020 C 
ATOM     16  C   LIG    1        4.425   5.365  -0.091  0.00  0.00    +0.180 C 
ENDBRANCH   8  11
ENDBRANCH   3   5
BRANCH   2  17
ATOM     17  C   LIG    1       -2.366   0.619   0.680  0.00  0.00    +0.300 C 
BRANCH  17  18
ATOM     18  N   LIG    1       -3.420   1.375   1.360  0.00  0.00    -0.730 N 
ATOM     19  H   LIG    1       -3.245   2.277   1.673  0.00  0.00    +0.420 HD
BRANCH  18  20
ATOM     20  C   LIG    1       -4.679   0.799   1.557  0.00  0.00    +0.210 A 
ATOM     21  C   LIG    1       -4.932  -0.489   1.103  0.00  0.00    +0.030 A 
ATOM     22  C   LIG    1       -6.175  -1.058   1.303  0.00  0.00    +0.060 A 
ATOM     23  C   LIG    1       -7.170  -0.342   1.946  0.00  0.00    +0.110 A 
ATOM     24  C   LIG    1       -6.921   0.944   2.394  0.00  0.00    -0.030 A 
ATOM     25  F   LIG    1       -8.387  -0.899   2.135  0.00  0.00    -0.110 F 
ATOM     26  C   LIG    1       -5.679   1.515   2.201  0.00  0.00    +0.050 A 
BRANCH  24  27
ATOM     27  N   LIG    1       -7.987   1.707   3.081  0.00  0.00    +0.030 N 
ATOM     28  O   LIG    1       -9.083   1.204   3.252  0.00  0.00    -0.140 OA
ATOM     29  O   LIG    1       -7.769   2.838   3.476  0.00  0.00    -0.150 OA
ENDBRANCH  24  27
ENDBRANCH  18  20
ENDBRANCH  17  18
ENDBRANCH   2  17
TORSDOF 6
