REMARK  Name = ZINCpk00000xS0F8.0
REMARK                            x       y       z     vdW  Elec       q    Type
REMARK                         _______ _______ _______ _____ _____    ______ ____
ROOT
ATOM      1  C   LIG    1        1.369   9.820   3.040  0.00  0.00    +0.300 C 
ATOM      2  C   LIG    1        1.478  11.346   2.836  0.00  0.00    +0.040 C 
ATOM      3  C   LIG    1        2.056  11.467   1.402  0.00  0.00    +0.040 C 
ATOM      4  C   LIG    1        1.376  10.271   0.690  0.00  0.00    +0.240 C 
ATOM      5  N   LIG    1        1.331   9.204   1.706  0.00  0.00    -0.610 N 
ATOM      6  C   LIG    1        1.260   7.882   1.453  0.00  0.00    +0.520 C 
ATOM      7  O   LIG    1        1.228   7.090   2.371  0.00  0.00    -0.510 OA
ENDROOT
BRANCH   1  11
ATOM      8  C   LIG    1       -1.818   8.580   6.704  0.00  0.00    +0.350 C 
ATOM      9  N   LIG    1       -1.276   8.949   5.394  0.00  0.00    -0.370 N 
ATOM     10  C   LIG    1        0.024   9.172   5.106  0.00  0.00    +0.240 A 
ATOM     11  C   LIG    1        0.107   9.490   3.794  0.00  0.00    -0.240 A 
ATOM     12  C   LIG    1       -1.185   9.452   3.259  0.00  0.00    +0.240 A 
ATOM     13  N   LIG    1       -2.015   9.128   4.217  0.00  0.00    -0.290 NA
ENDBRANCH   1  11
BRANCH   6  14
ATOM     14  C   LIG    1        1.221   7.388   0.030  0.00  0.00    +0.340 C 
BRANCH  14  15
ATOM     15  N   LIG    1        1.145   5.925   0.022  0.00  0.00    -0.530 N 
ATOM     16  C   LIG    1        2.289   5.192   0.008  0.00  0.00    +0.580 A 
ATOM     17  N   LIG    1        2.305   3.893   0.001  0.00  0.00    -0.520 NA
ATOM     18  C   LIG    1        1.159   3.168   0.007  0.00  0.00    +0.150 A 
ATOM     19  C   LIG    1        1.175   1.772   0.000  0.00  0.00    +0.030 A 
ATOM     20  C   LIG    1       -0.013   1.076   0.008  0.00  0.00    +0.070 A 
ATOM     21  C   LIG    1       -1.229   1.745   0.017  0.00  0.00    -0.010 A 
ATOM     22  C   LIG    1       -1.271   3.122   0.030  0.00  0.00    +0.100 A 
ATOM     23  C   LIG    1       -0.081   3.845   0.022  0.00  0.00    -0.190 A 
ATOM     24  C   LIG    1       -0.064   5.316   0.030  0.00  0.00    +0.550 A 
ATOM     25  O   LIG    1       -1.096   5.960   0.044  0.00  0.00    -0.510 OA
ENDBRANCH  14  15
ENDBRANCH   6  14
TORSDOF 3
