REMARK  Name = ZINCpe00000VVGzE.0
REMARK                            x       y       z     vdW  Elec       q    Type
REMARK                         _______ _______ _______ _____ _____    ______ ____
ROOT
ATOM      1  C   LIG    1       -0.860   5.331  -1.451  0.00  0.00    +0.520 C 
ATOM      2  N   LIG    1       -1.659   5.851  -2.404  0.00  0.00    -0.730 N 
ATOM      3  H   LIG    1       -2.588   5.579  -2.459  0.00  0.00    +0.400 HD
ATOM      4  O   LIG    1        0.302   5.672  -1.382  0.00  0.00    -0.530 OA
ENDROOT
BRANCH   2   5
ATOM      5  C   LIG    1       -1.124   6.827  -3.356  0.00  0.00    +0.240 C 
ATOM      6  C   LIG    1       -1.190   8.227  -2.742  0.00  0.00    +0.000 C 
ATOM      7  C   LIG    1       -0.598   9.241  -3.727  0.00  0.00    +0.270 C 
ATOM      8  N   LIG    1       -1.296   9.113  -5.013  0.00  0.00    -0.610 N 
ATOM      9  C   LIG    1       -1.371   7.790  -5.648  0.00  0.00    +0.280 C 
ATOM     10  C   LIG    1       -1.857  10.189  -5.600  0.00  0.00    +0.550 C 
ATOM     11  O   LIG    1       -2.430  10.070  -6.662  0.00  0.00    -0.540 OA
ATOM     12  C   LIG    1       -1.954   6.793  -4.642  0.00  0.00    +0.010 C 
BRANCH  10  13
ATOM     13  C   LIG    1       -1.771  11.539  -4.937  0.00  0.00    -0.070 C 
ATOM     14  C   LIG    1       -3.067  12.140  -4.387  0.00  0.00    +0.060 C 
ATOM     15  C   LIG    1       -2.430  12.721  -5.652  0.00  0.00    +0.060 C 
ENDBRANCH  10  13
ENDBRANCH   2   5
BRANCH   1  16
ATOM     16  C   LIG    1       -1.410   4.327  -0.471  0.00  0.00    +0.050 C 
BRANCH  16  17
ATOM     17  C   LIG    1       -0.304   3.900   0.496  0.00  0.00    +0.160 C 
BRANCH  17  20
ATOM     18  C   LIG    1       -0.013   1.086   0.008  0.00  0.00    +0.170 C 
ATOM     19  C   LIG    1       -0.718   1.572   1.248  0.00  0.00    +0.180 A 
ATOM     20  C   LIG    1       -0.854   2.896   1.476  0.00  0.00    -0.230 A 
ATOM     21  C   LIG    1       -1.525   3.328   2.646  0.00  0.00    +0.540 A 
ATOM     22  N   LIG    1       -2.004   2.411   3.511  0.00  0.00    -0.610 N 
ATOM     23  H   LIG    1       -2.462   2.699   4.316  0.00  0.00    +0.450 HD
ATOM     24  C   LIG    1       -1.849   1.097   3.261  0.00  0.00    +0.530 A 
ATOM     25  S   LIG    1       -2.464  -0.051   4.372  0.00  0.00    -0.540 S 
ATOM     26  O   LIG    1       -1.664   4.517   2.871  0.00  0.00    -0.490 OA
ATOM     27  N   LIG    1       -1.218   0.674   2.150  0.00  0.00    -0.570 N 
ATOM     28  H   LIG    1       -1.117  -0.277   1.988  0.00  0.00    +0.450 HD
ENDBRANCH  17  20
ENDBRANCH  16  17
ENDBRANCH   1  16
TORSDOF 5
