REMARK  Name = ZINCrH000004r5MR.0
REMARK                            x       y       z     vdW  Elec       q    Type
REMARK                         _______ _______ _______ _____ _____    ______ ____
ROOT
ATOM      1  C   LIG    1       -5.203   0.504   2.287  0.00  0.00    +0.510 C 
ATOM      2  O   LIG    1       -4.656   1.001   3.252  0.00  0.00    -0.500 OA
ENDROOT
BRANCH   1   7
ATOM      3  C   LIG    1       -9.969  -2.642   2.984  0.00  0.00    +0.110 C 
ATOM      4  C   LIG    1       -8.721  -1.818   2.801  0.00  0.00    +0.050 A 
ATOM      5  C   LIG    1       -8.200  -1.628   1.534  0.00  0.00    +0.000 A 
ATOM      6  C   LIG    1       -7.061  -0.871   1.359  0.00  0.00    +0.140 A 
ATOM      7  C   LIG    1       -6.426  -0.304   2.466  0.00  0.00    -0.150 A 
ATOM      8  C   LIG    1       -6.957  -0.499   3.743  0.00  0.00    +0.190 A 
ATOM      9  C   LIG    1       -8.101  -1.254   3.903  0.00  0.00    -0.690 A 
BRANCH   9  10
ATOM     10  S   LIG    1       -8.772  -1.502   5.513  0.00  0.00    +2.700 S 
ATOM     11  O   LIG    1       -8.330  -2.784   5.938  0.00  0.00    -0.950 OA
ATOM     12  O   LIG    1      -10.143  -1.139   5.436  0.00  0.00    -0.940 OA
BRANCH  10  13
ATOM     13  N   LIG    1       -8.052  -0.402   6.519  0.00  0.00    -1.010 NA
ATOM     14  C   LIG    1       -6.881  -0.789   7.310  0.00  0.00    +0.310 C 
ATOM     15  C   LIG    1       -8.585   0.959   6.618  0.00  0.00    +0.300 C 
ENDBRANCH  10  13
ENDBRANCH   9  10
ENDBRANCH   1   7
BRANCH   1  16
ATOM     16  O   LIG    1       -4.693   0.691   1.054  0.00  0.00    -0.350 OA
BRANCH  16  17
ATOM     17  C   LIG    1       -3.489   1.496   0.953  0.00  0.00    +0.220 C 
BRANCH  17  18
ATOM     18  C   LIG    1       -3.063   1.595  -0.513  0.00  0.00    +0.090 C 
BRANCH  18  19
ATOM     19  C   LIG    1       -1.813   2.431  -0.617  0.00  0.00    -0.110 C 
ATOM     20  C   LIG    1       -0.623   1.877  -0.642  0.00  0.00    -0.030 C 
ATOM     21  C   LIG    1        0.604   2.750  -0.746  0.00  0.00    +0.080 C 
ATOM     22  C   LIG    1        0.183   4.220  -0.878  0.00  0.00    -0.030 C 
ATOM     23  C   LIG    1       -0.983   4.421  -1.861  0.00  0.00    +0.030 C 
ATOM     24  C   LIG    1       -0.829   4.602   0.221  0.00  0.00    -0.080 C 
ATOM     25  C   LIG    1       -1.014   6.111   0.395  0.00  0.00    +0.050 C 
ATOM     26  C   LIG    1       -0.613   3.866   1.544  0.00  0.00    +0.020 C 
ATOM     27  C   LIG    1       -1.882   3.946  -0.693  0.00  0.00    +0.020 C 
ENDBRANCH  18  19
ENDBRANCH  17  18
ENDBRANCH  16  17
ENDBRANCH   1  16
TORSDOF 7
