REMARK  Name = ZINCrD00000bGMOd.0
REMARK                            x       y       z     vdW  Elec       q    Type
REMARK                         _______ _______ _______ _____ _____    ______ ____
ROOT
ATOM      1  C   LIG    1       -4.921   3.813   0.088  0.00  0.00    +0.290 C 
ATOM      2  C   LIG    1       -5.646   3.632  -1.247  0.00  0.00    +0.040 C 
ENDROOT
BRANCH   1   3
ATOM      3  C   LIG    1       -3.618   3.055   0.058  0.00  0.00    -0.080 A 
ATOM      4  C   LIG    1       -3.610   1.691   0.277  0.00  0.00    +0.030 A 
ATOM      5  C   LIG    1       -2.418   0.990   0.257  0.00  0.00    +0.020 A 
ATOM      6  C   LIG    1       -1.229   1.659   0.017  0.00  0.00    +0.100 A 
ATOM      7  N   LIG    1       -0.011   0.966   0.007  0.00  0.00    -0.660 N 
ATOM      8  H   LIG    1        0.002  -0.004   0.002  0.00  0.00    +0.420 HD
ATOM      9  C   LIG    1        1.143   1.665   0.000  0.00  0.00    +0.500 C 
ATOM     10  C   LIG    1        1.109   3.165   0.147  0.00  0.00    +0.230 C 
ATOM     11  O   LIG    1       -0.073   3.682  -0.469  0.00  0.00    -0.290 OA
ATOM     12  O   LIG    1        2.204   1.089  -0.124  0.00  0.00    -0.500 OA
ATOM     13  C   LIG    1       -1.240   3.033  -0.209  0.00  0.00    +0.090 A 
ATOM     14  C   LIG    1       -2.436   3.728  -0.176  0.00  0.00    +0.050 A 
BRANCH  10  15
ATOM     15  C   LIG    1        1.110   3.532   1.632  0.00  0.00    +0.010 C 
ATOM     16  C   LIG    1        1.200   5.052   1.782  0.00  0.00    +0.030 C 
ENDBRANCH  10  15
ENDBRANCH   1   3
BRANCH   1  18
ATOM     17  C   LIG    1       -6.703   4.088   1.727  0.00  0.00    +0.520 C 
ATOM     18  N   LIG    1       -5.760   3.300   1.173  0.00  0.00    -0.730 N 
ATOM     19  H   LIG    1       -5.637   2.393   1.494  0.00  0.00    +0.400 HD
ATOM     20  O   LIG    1       -6.856   5.222   1.326  0.00  0.00    -0.530 OA
BRANCH  17  21
ATOM     21  C   LIG    1       -7.566   3.560   2.844  0.00  0.00    +0.040 C 
BRANCH  21  22
ATOM     22  C   LIG    1       -8.546   4.647   3.288  0.00  0.00    +0.130 C 
BRANCH  22  23
ATOM     23  C   LIG    1       -9.422   4.111   4.422  0.00  0.00    +0.040 C 
ATOM     24  N   LIG    1       -8.872   3.080   5.306  0.00  0.00    -0.120 NA
ATOM     25  N   LIG    1       -9.700   2.673   4.474  0.00  0.00    -0.120 NA
BRANCH  23  26
ATOM     26  C   LIG    1      -10.464   5.079   4.987  0.00  0.00    +0.120 C 
BRANCH  26  27
ATOM     27  C   LIG    1      -11.249   4.388   6.104  0.00  0.00    +0.160 C 
BRANCH  27  29
ATOM     28  C   LIG    1      -13.051   6.062   7.080  0.00  0.00    +0.030 C 
ATOM     29  C   LIG    1      -12.251   5.320   6.647  0.00  0.00    -0.190 C 
ENDBRANCH  27  29
ENDBRANCH  26  27
ENDBRANCH  23  26
ENDBRANCH  22  23
ENDBRANCH  21  22
ENDBRANCH  17  21
ENDBRANCH   1  18
TORSDOF 9
