REMARK  Name = ZINCqH0000000tWF.0
REMARK                            x       y       z     vdW  Elec       q    Type
REMARK                         _______ _______ _______ _____ _____    ______ ____
ROOT
ATOM      1  N   LIG    1       -0.031   1.360   0.000  0.00  0.00    -0.420 N 
ATOM      2  C   LIG    1        1.281   1.747  -0.020  0.00  0.00    +0.170 A 
ATOM      3  N   LIG    1        2.005   0.652  -0.035  0.00  0.00    -0.280 NA
ATOM      4  N   LIG    1        1.238  -0.380  -0.025  0.00  0.00    -0.280 NA
ATOM      5  C   LIG    1       -0.012  -0.010  -0.003  0.00  0.00    +0.230 A 
ENDROOT
BRANCH   1  10
ATOM      6  C   LIG    1       -2.522   3.831   1.121  0.00  0.00    +0.160 A 
ATOM      7  C   LIG    1       -3.393   3.833   0.038  0.00  0.00    +0.050 A 
ATOM      8  C   LIG    1       -3.145   3.018  -1.050  0.00  0.00    +0.050 A 
ATOM      9  C   LIG    1       -2.031   2.202  -1.066  0.00  0.00    +0.020 A 
ATOM     10  C   LIG    1       -1.160   2.192   0.016  0.00  0.00    +0.120 A 
ATOM     11  C   LIG    1       -1.404   3.009   1.109  0.00  0.00    +0.010 A 
BRANCH   6  14
ATOM     12  C   LIG    1       -3.500   6.804   3.212  0.00  0.00    +0.110 C 
ATOM     13  C   LIG    1       -3.326   5.873   2.040  0.00  0.00    +0.510 C 
ATOM     14  N   LIG    1       -2.773   4.657   2.222  0.00  0.00    -0.680 N 
ATOM     15  H   LIG    1       -2.549   4.355   3.116  0.00  0.00    +0.420 HD
ATOM     16  O   LIG    1       -3.683   6.218   0.934  0.00  0.00    -0.520 OA
ENDBRANCH   6  14
ENDBRANCH   1  10
BRANCH   5  17
ATOM     17  C   LIG    1       -1.212  -0.920   0.015  0.00  0.00    +0.030 C 
ATOM     18  C   LIG    1       -0.962  -2.416   0.211  0.00  0.00    +0.070 C 
ATOM     19  C   LIG    1       -1.386  -1.885  -1.160  0.00  0.00    +0.060 C 
ENDBRANCH   5  17
BRANCH   2  20
ATOM     20  S   LIG    1        1.885   3.402  -0.027  0.00  0.00    +0.040 S 
BRANCH  20  21
ATOM     21  C   LIG    1        3.667   3.086  -0.057  0.00  0.00    +0.000 C 
ATOM     22  C   LIG    1        4.423   4.413  -0.183  0.00  0.00    +0.070 C 
ATOM     23  C   LIG    1        5.927   4.154  -0.061  0.00  0.00    +0.030 C 
ATOM     24  C   LIG    1        6.251   3.599   1.327  0.00  0.00    +0.030 C 
ATOM     25  C   LIG    1        5.563   2.241   1.504  0.00  0.00    +0.030 C 
ATOM     26  C   LIG    1        4.085   2.410   1.230  0.00  0.00    +0.370 C 
ATOM     27  O   LIG    1        3.260   2.017   2.019  0.00  0.00    -0.430 OA
ENDBRANCH  20  21
ENDBRANCH   2  20
TORSDOF 5
