REMARK  Name = ZINCrg00001JduN0.0
REMARK                            x       y       z     vdW  Elec       q    Type
REMARK                         _______ _______ _______ _____ _____    ______ ____
ROOT
ATOM      1  N   LIG    1       -0.314  -0.318   0.055  0.00  0.00    -0.460 N 
ATOM      2  C   LIG    1       -0.481   1.031   0.202  0.00  0.00    +0.180 A 
ATOM      3  N   LIG    1        0.706   1.559   0.306  0.00  0.00    -0.250 NA
ATOM      4  N   LIG    1        1.604   0.643   0.236  0.00  0.00    -0.300 NA
ATOM      5  C   LIG    1        1.034  -0.529   0.082  0.00  0.00    +0.350 A 
ENDROOT
BRANCH   2   6
ATOM      6  C   LIG    1       -1.793   1.771   0.230  0.00  0.00    +0.260 C 
ATOM      7  C   LIG    1       -2.113   2.187   1.668  0.00  0.00    +0.050 C 
BRANCH   6   8
ATOM      8  O   LIG    1       -1.702   2.936  -0.593  0.00  0.00    -0.350 OA
BRANCH   8   9
ATOM      9  C   LIG    1       -2.941   3.326  -1.188  0.00  0.00    +0.190 C 
BRANCH   9  10
ATOM     10  C   LIG    1       -2.726   4.576  -2.042  0.00  0.00    +0.190 C 
BRANCH  10  11
ATOM     11  O   LIG    1       -1.863   4.262  -3.138  0.00  0.00    -0.380 OA
ATOM     12  C   LIG    1       -1.596   5.367  -4.003  0.00  0.00    +0.200 C 
ENDBRANCH  10  11
ENDBRANCH   9  10
ENDBRANCH   8   9
ENDBRANCH   6   8
ENDBRANCH   2   6
BRANCH   5  13
ATOM     13  N   LIG    1        1.679  -1.750  -0.033  0.00  0.00    -0.460 N 
ATOM     14  C   LIG    1        2.297  -2.141   1.241  0.00  0.00    +0.230 C 
BRANCH  13  15
ATOM     15  C   LIG    1        2.673  -1.721  -1.113  0.00  0.00    +0.200 C 
ATOM     16  C   LIG    1        1.979  -1.395  -2.433  0.00  0.00    +0.020 C 
ATOM     17  C   LIG    1        3.005  -1.111  -3.525  0.00  0.00    +0.070 C 
ATOM     18  C   LIG    1        3.733  -2.402  -3.908  0.00  0.00    -0.320 C 
ATOM     19  S   LIG    1        4.666  -3.003  -2.469  0.00  0.00    +2.420 S 
ATOM     20  O   LIG    1        5.121  -4.322  -2.739  0.00  0.00    -0.940 OA
ATOM     21  O   LIG    1        5.606  -2.008  -2.088  0.00  0.00    -0.930 OA
ATOM     22  C   LIG    1        3.361  -3.085  -1.208  0.00  0.00    -0.320 C 
ENDBRANCH  13  15
ENDBRANCH   5  13
BRANCH   1  23
ATOM     23  C   LIG    1       -1.365  -1.327  -0.099  0.00  0.00    +0.320 C 
BRANCH  23  24
ATOM     24  C   LIG    1       -1.764  -1.427  -1.573  0.00  0.00    +0.020 C 
BRANCH  24  25
ATOM     25  C   LIG    1       -2.861  -2.481  -1.734  0.00  0.00    +0.180 C 
BRANCH  25  27
ATOM     26  C   LIG    1       -4.259  -3.535  -3.371  0.00  0.00    +0.200 C 
ATOM     27  O   LIG    1       -3.234  -2.574  -3.110  0.00  0.00    -0.390 OA
ENDBRANCH  25  27
ENDBRANCH  24  25
ENDBRANCH  23  24
ENDBRANCH   1  23
TORSDOF 11
