REMARK  Name = ZINCbu0000001nq5.0
REMARK                            x       y       z     vdW  Elec       q    Type
REMARK                         _______ _______ _______ _____ _____    ______ ____
ROOT
ATOM      1  C   LIG    1       -3.144  -2.116   0.085  0.00  0.00    +0.150 C 
ATOM      2  C   LIG    1       -3.590  -1.113   1.161  0.00  0.00    +0.060 C 
ATOM      3  C   LIG    1       -2.500  -0.169   0.623  0.00  0.00    -0.060 C 
ATOM      4  C   LIG    1       -1.726   0.525   1.762  0.00  0.00    +0.030 C 
ATOM      5  C   LIG    1       -0.725   1.575   1.241  0.00  0.00    +0.020 C 
ATOM      6  C   LIG    1       -0.013   1.086   0.008  0.00  0.00    +0.010 C 
ATOM      7  C   LIG    1       -0.763   1.598  -1.229  0.00  0.00    -0.010 C 
ATOM      8  C   LIG    1       -1.902   0.766  -1.604  0.00  0.00    +0.020 C 
ATOM      9  C   LIG    1       -2.970   0.735  -0.488  0.00  0.00    +0.050 C 
ATOM     10  C   LIG    1       -1.769  -1.429   0.125  0.00  0.00    +0.070 C 
ENDROOT
BRANCH   1  11
ATOM     11  N   LIG    1       -3.120  -3.509   0.553  0.00  0.00    -0.630 N 
ATOM     12  H   LIG    1       -2.478  -3.592   1.327  0.00  0.00    +0.430 HD
ATOM     13  H   LIG    1       -2.820  -4.111  -0.199  0.00  0.00    +0.440 HD
ATOM     14  H   LIG    1       -4.045  -3.779   0.852  0.00  0.00    +0.440 HD
ENDBRANCH   1  11
TORSDOF 1
