REMARK  Name = ZINCvU0000000Gl3.0
REMARK                            x       y       z     vdW  Elec       q    Type
REMARK                         _______ _______ _______ _____ _____    ______ ____
ROOT
ATOM      1  N   LIG    1        3.625   7.665   0.010  0.00  0.00    -0.660 N 
ATOM      2  H   LIG    1        2.780   8.137  -0.056  0.00  0.00    +0.420 HD
ATOM      3  C   LIG    1        3.646   6.317   0.006  0.00  0.00    +0.550 C 
ATOM      4  O   LIG    1        4.709   5.725  -0.014  0.00  0.00    -0.520 OA
ENDROOT
BRANCH   1  10
ATOM      5  C   LIG    1        4.899   9.685  -0.383  0.00  0.00    +0.140 A 
ATOM      6  C   LIG    1        6.086  10.391  -0.282  0.00  0.00    -0.040 A 
ATOM      7  C   LIG    1        7.192   9.804   0.305  0.00  0.00    +0.090 A 
ATOM      8  C   LIG    1        7.118   8.513   0.792  0.00  0.00    -0.200 A 
ATOM      9  C   LIG    1        5.935   7.803   0.700  0.00  0.00    +0.110 A 
ATOM     10  C   LIG    1        4.823   8.383   0.108  0.00  0.00    +0.120 A 
BRANCH   8  11
ATOM     11  C   LIG    1        8.327   7.879   1.431  0.00  0.00    +0.510 C 
ATOM     12  F   LIG    1        8.681   6.729   0.718  0.00  0.00    -0.170 F 
ATOM     13  F   LIG    1        8.029   7.535   2.754  0.00  0.00    -0.180 F 
ATOM     14  F   LIG    1        9.392   8.786   1.414  0.00  0.00    -0.180 F 
ENDBRANCH   8  11
BRANCH   5  15
ATOM     15  O   LIG    1        3.810  10.261  -0.959  0.00  0.00    -0.310 OA
BRANCH  15  16
ATOM     16  C   LIG    1        3.962  11.598  -1.440  0.00  0.00    +0.200 C 
BRANCH  16  18
ATOM     17  C   LIG    1        2.804  13.505  -2.565  0.00  0.00    +0.040 C 
ATOM     18  C   LIG    1        2.642  12.073  -2.050  0.00  0.00    +0.020 C 
ENDBRANCH  16  18
ENDBRANCH  15  16
ENDBRANCH   5  15
ENDBRANCH   1  10
BRANCH   3  19
ATOM     19  C   LIG    1        2.391   5.566   0.025  0.00  0.00    -0.080 C 
ATOM     20  C   LIG    1        2.412   4.216   0.021  0.00  0.00    +0.130 C 
BRANCH  20  21
ATOM     21  C   LIG    1        1.151   3.462   0.040  0.00  0.00    -0.010 A 
ATOM     22  C   LIG    1        1.170   2.062   0.036  0.00  0.00    -0.070 A 
ATOM     23  C   LIG    1       -0.017   1.357   0.055  0.00  0.00    +0.150 A 
ATOM     24  C   LIG    1       -1.233   2.036   0.072  0.00  0.00    +0.040 A 
ATOM     25  C   LIG    1       -1.256   3.428   0.082  0.00  0.00    +0.150 A 
ATOM     26  C   LIG    1       -0.073   4.141   0.063  0.00  0.00    -0.070 A 
BRANCH  25  27
ATOM     27  O   LIG    1       -2.446   4.087   0.103  0.00  0.00    -0.300 OA
ATOM     28  C   LIG    1       -2.396   5.516   0.106  0.00  0.00    +0.250 C 
ENDBRANCH  25  27
BRANCH  24  29
ATOM     29  O   LIG    1       -2.399   1.338   0.084  0.00  0.00    -0.310 OA
ATOM     30  C   LIG    1       -2.941   1.001   1.363  0.00  0.00    +0.230 C 
ENDBRANCH  24  29
BRANCH  23  31
ATOM     31  O   LIG    1        0.001  -0.003   0.051  0.00  0.00    -0.300 OA
ATOM     32  C   LIG    1        1.282  -0.635   0.028  0.00  0.00    +0.250 C 
ENDBRANCH  23  31
ENDBRANCH  20  21
ENDBRANCH   3  19
TORSDOF 10
