REMARK  Name = ZINCqH0000004UI1.0
REMARK                            x       y       z     vdW  Elec       q    Type
REMARK                         _______ _______ _______ _____ _____    ______ ____
ROOT
ATOM      1  C   LIG    1        4.283   4.863   0.927  0.00  0.00    +0.600 C 
ATOM      2  N   LIG    1        5.177   3.979   0.441  0.00  0.00    -0.600 N 
ATOM      3  C   LIG    1        6.601   4.328   0.352  0.00  0.00    +0.270 C 
ATOM      4  C   LIG    1        7.078   4.088  -1.084  0.00  0.00    +0.010 C 
ATOM      5  C   LIG    1        6.757   2.648  -1.491  0.00  0.00    +0.020 C 
ATOM      6  C   LIG    1        5.243   2.425  -1.441  0.00  0.00    +0.050 C 
ATOM      7  C   LIG    1        4.745   2.649  -0.009  0.00  0.00    +0.320 C 
ATOM      8  O   LIG    1        3.119   4.537   1.066  0.00  0.00    -0.500 OA
ENDROOT
BRANCH   7   9
ATOM      9  C   LIG    1        3.241   2.569   0.021  0.00  0.00    +0.310 A 
ATOM     10  N   LIG    1        2.444   3.218  -0.777  0.00  0.00    -0.470 NA
ATOM     11  C   LIG    1        1.154   2.917  -0.478  0.00  0.00    +0.070 A 
ATOM     12  C   LIG    1       -0.076   3.320  -1.003  0.00  0.00    +0.050 A 
ATOM     13  C   LIG    1       -1.236   2.829  -0.474  0.00  0.00    +0.000 A 
ATOM     14  C   LIG    1       -1.207   1.927   0.579  0.00  0.00    +0.020 A 
ATOM     15  C   LIG    1       -0.005   1.519   1.118  0.00  0.00    +0.010 A 
ATOM     16  C   LIG    1        1.184   2.008   0.593  0.00  0.00    +0.050 A 
ATOM     17  N   LIG    1        2.518   1.807   0.886  0.00  0.00    -0.590 N 
ATOM     18  H   LIG    1        2.874   1.230   1.579  0.00  0.00    +0.420 HD
ENDBRANCH   7   9
BRANCH   1  22
ATOM     19  N   LIG    1        5.196   8.363   1.181  0.00  0.00    -0.360 N 
ATOM     20  N   LIG    1        5.469   7.916   2.479  0.00  0.00    -0.290 NA
ATOM     21  C   LIG    1        5.187   6.645   2.556  0.00  0.00    +0.110 A 
ATOM     22  C   LIG    1        4.715   6.224   1.292  0.00  0.00    -0.280 A 
ATOM     23  C   LIG    1        5.337   5.776   3.778  0.00  0.00    +0.150 C 
ATOM     24  C   LIG    1        4.742   7.326   0.460  0.00  0.00    +0.130 A 
ATOM     25  C   LIG    1        4.333   7.359  -0.990  0.00  0.00    +0.160 C 
BRANCH  19  27
ATOM     26  C   LIG    1        6.794   9.883   0.125  0.00  0.00    +0.040 C 
ATOM     27  C   LIG    1        5.381   9.731   0.691  0.00  0.00    +0.320 C 
ENDBRANCH  19  27
ENDBRANCH   1  22
TORSDOF 3
