REMARK  Name = ZINCkj000005iaPw.2
REMARK                            x       y       z     vdW  Elec       q    Type
REMARK                         _______ _______ _______ _____ _____    ______ ____
ROOT
ATOM      1  N   LIG    1        1.358   2.358   8.732  0.00  0.00    -0.380 N 
ATOM      2  C   LIG    1        0.179   1.579   9.166  0.00  0.00    +0.250 C 
ATOM      3  C   LIG    1       -0.299   1.926  10.587  0.00  0.00    +0.060 C 
ATOM      4  C   LIG    1       -0.304   3.404  10.875  0.00  0.00    +0.030 C 
ATOM      5  C   LIG    1        1.061   3.797  11.495  0.00  0.00    +0.030 C 
ATOM      6  C   LIG    1        2.103   3.844  10.476  0.00  0.00    +0.060 C 
ATOM      7  C   LIG    1        2.334   2.490   9.786  0.00  0.00    +0.170 C 
ATOM      8  H   LIG    1        1.056   3.278   8.447  0.00  0.00    +0.430 HD
ENDROOT
BRANCH   1   9
ATOM      9  C   LIG    1        1.981   1.684   7.585  0.00  0.00    +0.440 C 
BRANCH   9  13
ATOM     10  C   LIG    1       -0.145   2.031   4.713  0.00  0.00    +0.190 A 
ATOM     11  N   LIG    1       -0.526   0.894   5.214  0.00  0.00    -0.340 NA
ATOM     12  O   LIG    1        0.121   0.636   6.207  0.00  0.00    +0.110 OA
ATOM     13  C   LIG    1        0.996   1.617   6.446  0.00  0.00    +0.100 A 
ATOM     14  N   LIG    1        0.835   2.510   5.500  0.00  0.00    -0.430 NA
BRANCH  10  15
ATOM     15  C   LIG    1       -0.703   2.693   3.480  0.00  0.00    +0.180 C 
BRANCH  15  16
ATOM     16  C   LIG    1        0.091   2.239   2.253  0.00  0.00    +0.180 C 
BRANCH  16  18
ATOM     17  C   LIG    1        0.235   2.508  -0.124  0.00  0.00    +0.230 C 
ATOM     18  O   LIG    1       -0.438   2.867   1.084  0.00  0.00    -0.390 OA
ENDBRANCH  16  18
ENDBRANCH  15  16
ENDBRANCH  10  15
ENDBRANCH   9  13
ENDBRANCH   1   9
BRANCH   7  19
ATOM     19  C   LIG    1        3.744   2.445   9.194  0.00  0.00    +0.040 C 
BRANCH  19  20
ATOM     20  C   LIG    1        4.774   2.495  10.325  0.00  0.00    +0.200 C 
BRANCH  20  21
ATOM     21  O   LIG    1        6.089   2.562   9.770  0.00  0.00    -0.570 OA
ATOM     22  H   LIG    1        6.794   2.597  10.431  0.00  0.00    +0.400 HD
ENDBRANCH  20  21
ENDBRANCH  19  20
ENDBRANCH   7  19
TORSDOF 8
