REMARK  Name = ZINCkj000005iaPw.1
REMARK                            x       y       z     vdW  Elec       q    Type
REMARK                         _______ _______ _______ _____ _____    ______ ____
ROOT
ATOM      1  N   LIG    1       -0.848   1.526   1.242  0.00  0.00    -0.390 N 
ATOM      2  C   LIG    1       -0.150   1.062   0.025  0.00  0.00    +0.250 C 
ATOM      3  C   LIG    1       -0.723   1.645  -1.239  0.00  0.00    +0.060 C 
ATOM      4  C   LIG    1        0.095   2.902  -1.606  0.00  0.00    +0.040 C 
ATOM      5  C   LIG    1       -0.280   4.057  -0.800  0.00  0.00    +0.040 C 
ATOM      6  C   LIG    1       -0.039   3.818   0.707  0.00  0.00    +0.070 C 
ATOM      7  C   LIG    1       -1.164   2.970   1.236  0.00  0.00    +0.190 C 
ATOM      8  H   LIG    1       -1.708   1.008   1.338  0.00  0.00    +0.420 HD
ENDROOT
BRANCH   1   9
ATOM      9  C   LIG    1        0.000   1.240   2.407  0.00  0.00    +0.440 C 
BRANCH   9  13
ATOM     10  C   LIG    1        0.928  -2.228   2.368  0.00  0.00    +0.190 A 
ATOM     11  N   LIG    1       -0.138  -2.226   3.111  0.00  0.00    -0.340 NA
ATOM     12  O   LIG    1       -0.570  -1.098   3.222  0.00  0.00    +0.110 OA
ATOM     13  C   LIG    1        0.197  -0.249   2.531  0.00  0.00    +0.100 A 
ATOM     14  N   LIG    1        1.156  -0.958   1.987  0.00  0.00    -0.430 NA
BRANCH  10  15
ATOM     15  C   LIG    1        1.758  -3.431   2.002  0.00  0.00    +0.180 C 
BRANCH  15  16
ATOM     16  C   LIG    1        2.855  -3.633   3.049  0.00  0.00    +0.180 C 
BRANCH  16  18
ATOM     17  C   LIG    1        4.700  -5.052   3.620  0.00  0.00    +0.230 C 
ATOM     18  O   LIG    1        3.642  -4.774   2.701  0.00  0.00    -0.390 OA
ENDBRANCH  16  18
ENDBRANCH  15  16
ENDBRANCH  10  15
ENDBRANCH   9  13
ENDBRANCH   1   9
BRANCH   7  19
ATOM     19  C   LIG    1       -1.482   3.412   2.666  0.00  0.00    +0.070 C 
BRANCH  19  20
ATOM     20  C   LIG    1       -2.669   2.605   3.196  0.00  0.00    +0.170 C 
BRANCH  20  21
ATOM     21  O   LIG    1       -2.966   3.017   4.532  0.00  0.00    -0.560 OA
ATOM     22  H   LIG    1       -3.710   2.546   4.933  0.00  0.00    +0.400 HD
ENDBRANCH  20  21
ENDBRANCH  19  20
ENDBRANCH   7  19
TORSDOF 8
