REMARK  Name = ZINCqH0000034hYu.0
REMARK                            x       y       z     vdW  Elec       q    Type
REMARK                         _______ _______ _______ _____ _____    ______ ____
ROOT
ATOM      1  C   LIG    1       -1.205  -0.768   0.467  0.00  0.00    -0.030 C 
ATOM      2  C   LIG    1       -2.161  -0.078   1.442  0.00  0.00    +0.040 C 
ATOM      3  C   LIG    1       -1.478   0.063   2.806  0.00  0.00    +0.270 C 
ATOM      4  N   LIG    1       -1.020  -1.262   3.246  0.00  0.00    -0.610 N 
ATOM      5  C   LIG    1       -0.169  -2.050   2.344  0.00  0.00    +0.290 C 
ATOM      6  C   LIG    1       -1.374  -1.745   4.453  0.00  0.00    +0.510 C 
ATOM      7  O   LIG    1       -0.989  -2.840   4.804  0.00  0.00    -0.540 OA
ATOM      8  C   LIG    1       -2.248  -0.925   5.367  0.00  0.00    +0.090 C 
ATOM      9  C   LIG    1       -0.866  -2.167   0.985  0.00  0.00    +0.070 C 
ENDROOT
BRANCH   1  10
ATOM     10  C   LIG    1       -1.861  -0.878  -0.886  0.00  0.00    -0.090 A 
ATOM     11  C   LIG    1       -3.179  -0.495  -1.048  0.00  0.00    +0.020 A 
ATOM     12  C   LIG    1       -3.779  -0.593  -2.289  0.00  0.00    +0.010 A 
ATOM     13  C   LIG    1       -3.064  -1.081  -3.366  0.00  0.00    +0.010 A 
ATOM     14  C   LIG    1       -1.747  -1.470  -3.203  0.00  0.00    +0.020 A 
ATOM     15  C   LIG    1       -1.146  -1.368  -1.963  0.00  0.00    +0.010 A 
ENDBRANCH   1  10
BRANCH   1  18
ATOM     16  N   LIG    1       -0.005   1.350   0.026  0.00  0.00    -0.660 N 
ATOM     17  H   LIG    1       -0.863   1.761  -0.162  0.00  0.00    +0.410 HD
ATOM     18  C   LIG    1        0.060   0.043   0.346  0.00  0.00    +0.530 C 
ATOM     19  O   LIG    1        1.137  -0.482   0.538  0.00  0.00    -0.510 OA
BRANCH  16  25
ATOM     20  C   LIG    1        1.105   3.494   0.090  0.00  0.00    -0.110 A 
ATOM     21  C   LIG    1        2.263   4.244   0.029  0.00  0.00    +0.020 A 
ATOM     22  C   LIG    1        3.481   3.622  -0.176  0.00  0.00    -0.020 A 
ATOM     23  C   LIG    1        3.545   2.247  -0.313  0.00  0.00    +0.020 A 
ATOM     24  C   LIG    1        2.391   1.491  -0.247  0.00  0.00    +0.020 A 
ATOM     25  C   LIG    1        1.166   2.113  -0.042  0.00  0.00    +0.150 A 
BRANCH  20  27
ATOM     26  C   LIG    1       -0.564   4.163   1.797  0.00  0.00    +0.020 C 
ATOM     27  C   LIG    1       -0.223   4.174   0.306  0.00  0.00    +0.060 C 
ENDBRANCH  20  27
ENDBRANCH  16  25
ENDBRANCH   1  18
TORSDOF 4
