REMARK  Name = ZINCpe00000gM18k.0
REMARK                            x       y       z     vdW  Elec       q    Type
REMARK                         _______ _______ _______ _____ _____    ______ ____
ROOT
ATOM      1  N   LIG    1        4.526   4.860   0.147  0.00  0.00    -0.730 N 
ATOM      2  H   LIG    1        5.461   4.616   0.064  0.00  0.00    +0.400 HD
ATOM      3  C   LIG    1        3.620   3.939   0.529  0.00  0.00    +0.550 C 
ATOM      4  O   LIG    1        2.448   4.246   0.632  0.00  0.00    -0.490 OA
ENDROOT
BRANCH   3   5
ATOM      5  C   LIG    1        4.050   2.558   0.822  0.00  0.00    -0.120 A 
ATOM      6  C   LIG    1        5.073   2.321   1.742  0.00  0.00    +0.070 A 
ATOM      7  C   LIG    1        5.470   1.028   2.012  0.00  0.00    +0.030 A 
ATOM      8  C   LIG    1        4.858  -0.038   1.375  0.00  0.00    +0.080 A 
ATOM      9  C   LIG    1        3.841   0.182   0.466  0.00  0.00    +0.010 A 
ATOM     10  C   LIG    1        3.433   1.476   0.178  0.00  0.00    +0.180 A 
BRANCH  10  11
ATOM     11  N   LIG    1        2.407   1.700  -0.745  0.00  0.00    -0.340 N 
ATOM     12  C   LIG    1        1.727   0.774  -1.457  0.00  0.00    +0.460 A 
ATOM     13  N   LIG    1        0.863   1.414  -2.200  0.00  0.00    -0.330 NA
ATOM     14  N   LIG    1        0.945   2.680  -2.002  0.00  0.00    -0.040 NA
ATOM     15  N   LIG    1        1.863   2.937  -1.133  0.00  0.00    -0.030 NA
ENDBRANCH  10  11
ENDBRANCH   3   5
BRANCH   1  16
ATOM     16  C   LIG    1        4.099   6.231  -0.144  0.00  0.00    +0.300 C 
BRANCH  16  17
ATOM     17  C   LIG    1        5.282   7.027  -0.700  0.00  0.00    +0.100 C 
ATOM     18  C   LIG    1        6.488   6.862   0.227  0.00  0.00    +0.010 C 
BRANCH  17  19
ATOM     19  N   LIG    1        5.622   6.527  -2.039  0.00  0.00    -0.520 NA
ATOM     20  C   LIG    1        5.760   5.063  -2.036  0.00  0.00    +0.140 C 
ATOM     21  C   LIG    1        6.055   4.580  -3.458  0.00  0.00    +0.210 C 
ATOM     22  O   LIG    1        7.231   5.234  -3.944  0.00  0.00    -0.390 OA
ATOM     23  C   LIG    1        7.131   6.660  -3.962  0.00  0.00    +0.220 C 
ATOM     24  C   LIG    1        6.847   7.164  -2.544  0.00  0.00    +0.150 C 
ENDBRANCH  17  19
BRANCH  17  26
ATOM     25  C   LIG    1        3.764   8.683  -1.794  0.00  0.00    +0.020 C 
ATOM     26  C   LIG    1        4.905   8.507  -0.789  0.00  0.00    +0.030 C 
ENDBRANCH  17  26
ENDBRANCH  16  17
ENDBRANCH   1  16
TORSDOF 6
