REMARK  Name = ZINCnE000001FIZc.0
REMARK                            x       y       z     vdW  Elec       q    Type
REMARK                         _______ _______ _______ _____ _____    ______ ____
ROOT
ATOM      1  C   LIG    1       -1.184  -2.063  -0.100  0.00  0.00    +0.580 C 
ATOM      2  N   LIG    1       -1.199  -0.720   0.009  0.00  0.00    -0.670 N 
ATOM      3  H   LIG    1       -2.044  -0.249   0.087  0.00  0.00    +0.400 HD
ATOM      4  O   LIG    1       -0.123  -2.661  -0.113  0.00  0.00    -0.490 OA
ENDROOT
BRANCH   1   8
ATOM      5  C   LIG    1       -3.861  -4.593  -0.396  0.00  0.00    -0.120 A 
ATOM      6  C   LIG    1       -4.783  -3.624  -0.347  0.00  0.00    -0.190 A 
ATOM      7  S   LIG    1       -4.051  -2.091  -0.191  0.00  0.00    +0.190 S 
ATOM      8  C   LIG    1       -2.444  -2.805  -0.203  0.00  0.00    -0.260 A 
ATOM      9  C   LIG    1       -6.271  -3.857  -0.416  0.00  0.00    +0.140 C 
ATOM     10  C   LIG    1       -2.558  -4.162  -0.317  0.00  0.00    +0.120 A 
BRANCH   5  11
ATOM     11  C   LIG    1       -4.224  -6.049  -0.527  0.00  0.00    +0.090 C 
BRANCH  11  13
ATOM     12  C   LIG    1       -4.790  -7.873  -2.138  0.00  0.00    +0.010 C 
ATOM     13  C   LIG    1       -4.421  -6.394  -2.005  0.00  0.00    +0.000 C 
ENDBRANCH  11  13
ENDBRANCH   5  11
ENDBRANCH   1   8
BRANCH   2  14
ATOM     14  C   LIG    1        0.003  -0.005   0.010  0.00  0.00    +0.130 A 
ATOM     15  C   LIG    1        0.066   1.249  -0.586  0.00  0.00    -0.040 A 
ATOM     16  C   LIG    1        1.252   1.958  -0.587  0.00  0.00    +0.010 A 
ATOM     17  C   LIG    1        2.380   1.426   0.005  0.00  0.00    +0.020 A 
ATOM     18  C   LIG    1        2.325   0.170   0.605  0.00  0.00    +0.060 A 
ATOM     19  C   LIG    1        1.132  -0.546   0.607  0.00  0.00    +0.050 A 
BRANCH  18  20
ATOM     20  C   LIG    1        3.538  -0.404   1.243  0.00  0.00    +0.080 A 
ATOM     21  N   LIG    1        3.632  -1.579   1.854  0.00  0.00    -0.360 NA
ATOM     22  N   LIG    1        4.846  -1.707   2.267  0.00  0.00    -0.190 NA
ATOM     23  N   LIG    1        5.513  -0.654   1.945  0.00  0.00    -0.190 NA
ATOM     24  N   LIG    1        4.737   0.162   1.317  0.00  0.00    -0.370 NA
ENDBRANCH  18  20
ENDBRANCH   2  14
TORSDOF 5
