REMARK  Name = ZINCpe00000bxp8u.0
REMARK                            x       y       z     vdW  Elec       q    Type
REMARK                         _______ _______ _______ _____ _____    ______ ____
ROOT
ATOM      1  C   LIG    1       -0.002   2.631  -4.436  0.00  0.00    +0.270 C 
ATOM      2  C   LIG    1        1.348   1.984  -4.510  0.00  0.00    -0.040 C 
ATOM      3  C   LIG    1        1.756   1.040  -3.724  0.00  0.00    -0.040 C 
ATOM      4  C   LIG    1        0.917   0.452  -2.629  0.00  0.00    +0.310 C 
ATOM      5  N   LIG    1       -0.288   1.272  -2.443  0.00  0.00    -0.620 N 
ATOM      6  C   LIG    1       -0.742   1.585  -1.213  0.00  0.00    +0.520 C 
ATOM      7  O   LIG    1       -1.736   2.268  -1.088  0.00  0.00    -0.520 OA
ATOM      8  C   LIG    1       -0.977   1.744  -3.657  0.00  0.00    +0.300 C 
ENDROOT
BRANCH   1  10
ATOM      9  C   LIG    1        0.485   5.018  -4.460  0.00  0.00    +0.600 C 
ATOM     10  N   LIG    1        0.121   3.925  -3.761  0.00  0.00    -0.720 N 
ATOM     11  H   LIG    1       -0.060   3.995  -2.810  0.00  0.00    +0.400 HD
ATOM     12  O   LIG    1        0.712   4.930  -5.651  0.00  0.00    -0.550 OA
BRANCH   9  14
ATOM     13  C   LIG    1        0.971   7.518  -4.363  0.00  0.00    +0.160 A 
ATOM     14  C   LIG    1        0.609   6.321  -3.780  0.00  0.00    -0.300 A 
ATOM     15  C   LIG    1        0.374   6.578  -2.411  0.00  0.00    +0.280 A 
ATOM     16  N   LIG    1        0.592   7.846  -2.195  0.00  0.00    -0.290 NA
ATOM     17  N   LIG    1        0.962   8.453  -3.400  0.00  0.00    -0.360 N 
ATOM     18  C   LIG    1        1.286   9.871  -3.580  0.00  0.00    +0.360 C 
BRANCH  13  20
ATOM     19  C   LIG    1        2.816   7.530  -6.020  0.00  0.00    +0.040 C 
ATOM     20  C   LIG    1        1.314   7.736  -5.814  0.00  0.00    +0.120 C 
ENDBRANCH  13  20
ENDBRANCH   9  14
ENDBRANCH   1  10
BRANCH   6  21
ATOM     21  C   LIG    1       -0.013   1.086   0.008  0.00  0.00    +0.030 C 
BRANCH  21  22
ATOM     22  C   LIG    1       -0.729   1.579   1.267  0.00  0.00    +0.230 C 
BRANCH  22  23
ATOM     23  C   LIG    1       -0.064   0.971   2.503  0.00  0.00    -0.060 C 
ATOM     24  C   LIG    1       -0.152  -0.554   2.432  0.00  0.00    +0.030 C 
ATOM     25  C   LIG    1       -0.780   1.465   3.762  0.00  0.00    +0.030 C 
ENDBRANCH  22  23
BRANCH  22  26
ATOM     26  O   LIG    1       -0.647   3.004   1.334  0.00  0.00    -0.540 OA
ATOM     27  H   LIG    1        0.258   3.345   1.368  0.00  0.00    +0.370 HD
ENDBRANCH  22  26
ENDBRANCH  21  22
ENDBRANCH   6  21
TORSDOF 7
