REMARK  Name = ZINCpk00000kK09O.0
REMARK                            x       y       z     vdW  Elec       q    Type
REMARK                         _______ _______ _______ _____ _____    ______ ____
ROOT
ATOM      1  C   LIG    1        1.146   3.593   0.011  0.00  0.00    +0.240 C 
ENDROOT
BRANCH   1   8
ATOM      2  C   LIG    1        3.671   2.192  -0.021  0.00  0.00    +0.090 C 
ATOM      3  C   LIG    1        2.380   1.415  -0.013  0.00  0.00    -0.060 A 
ATOM      4  C   LIG    1        2.405   0.035  -0.021  0.00  0.00    +0.020 A 
ATOM      5  C   LIG    1        1.214  -0.680  -0.013  0.00  0.00    +0.170 A 
ATOM      6  C   LIG    1        0.002  -0.004   0.002  0.00  0.00    -0.020 A 
ATOM      7  C   LIG    1       -0.017   1.377   0.010  0.00  0.00    +0.080 A 
ATOM      8  C   LIG    1        1.170   2.086   0.002  0.00  0.00    -0.100 A 
BRANCH   5   9
ATOM      9  N   LIG    1        1.237  -2.082  -0.021  0.00  0.00    -0.320 N 
ATOM     10  C   LIG    1        0.159  -2.895  -0.104  0.00  0.00    +0.240 A 
ATOM     11  C   LIG    1        0.604  -4.172  -0.083  0.00  0.00    -0.100 A 
ATOM     12  C   LIG    1        1.999  -4.141   0.026  0.00  0.00    +0.080 A 
ATOM     13  C   LIG    1        2.907  -5.341   0.088  0.00  0.00    +0.160 C 
ATOM     14  N   LIG    1        2.379  -2.889   0.064  0.00  0.00    -0.290 NA
ENDBRANCH   5   9
ENDBRANCH   1   8
BRANCH   1  15
ATOM     15  N   LIG    1        1.366   4.094  -1.353  0.00  0.00    -0.670 NA
ATOM     16  H   LIG    1        2.227   3.734  -1.736  0.00  0.00    +0.340 HD
BRANCH  15  17
ATOM     17  C   LIG    1        1.349   5.562  -1.383  0.00  0.00    +0.310 C 
BRANCH  17  18
ATOM     18  C   LIG    1        1.577   6.038  -2.795  0.00  0.00    +0.180 A 
ATOM     19  N   LIG    1        0.657   6.269  -3.697  0.00  0.00    -0.270 NA
ATOM     20  N   LIG    1        1.210   6.665  -4.793  0.00  0.00    -0.280 NA
ATOM     21  C   LIG    1        2.496   6.705  -4.638  0.00  0.00    +0.180 A 
ATOM     22  C   LIG    1        3.564   7.107  -5.623  0.00  0.00    +0.330 C 
ATOM     23  N   LIG    1        4.806   7.364  -4.868  0.00  0.00    -0.690 NA
ATOM     24  H   LIG    1        5.577   7.548  -5.493  0.00  0.00    +0.370 HD
ATOM     25  C   LIG    1        5.115   6.246  -3.966  0.00  0.00    +0.200 C 
ATOM     26  C   LIG    1        4.112   6.224  -2.804  0.00  0.00    +0.300 C 
ATOM     27  N   LIG    1        2.764   6.311  -3.365  0.00  0.00    -0.470 N 
ENDBRANCH  17  18
ENDBRANCH  15  17
ENDBRANCH   1  15
TORSDOF 5
