REMARK  Name = ZINCkj000005kayU.0
REMARK                            x       y       z     vdW  Elec       q    Type
REMARK                         _______ _______ _______ _____ _____    ______ ____
ROOT
ATOM      1  S   LIG    1        3.915  -0.776  -0.155  0.00  0.00    +2.690 S 
ATOM      2  O   LIG    1        2.704  -1.170  -0.784  0.00  0.00    -0.940 OA
ATOM      3  O   LIG    1        4.290   0.582   0.030  0.00  0.00    -0.940 OA
ENDROOT
BRANCH   1  10
ATOM      4  C   LIG    1        6.849  -0.406   0.461  0.00  0.00    +0.110 C 
ATOM      5  C   LIG    1        6.535  -1.301  -0.710  0.00  0.00    +0.020 A 
ATOM      6  C   LIG    1        7.560  -1.890  -1.421  0.00  0.00    +0.050 A 
ATOM      7  C   LIG    1        7.267  -2.720  -2.505  0.00  0.00    +0.050 A 
ATOM      8  C   LIG    1        5.937  -2.948  -2.862  0.00  0.00    +0.050 A 
ATOM      9  C   LIG    1        4.921  -2.353  -2.141  0.00  0.00    +0.140 A 
ATOM     10  C   LIG    1        5.219  -1.532  -1.069  0.00  0.00    -0.670 A 
BRANCH   7  11
ATOM     11  C   LIG    1        8.326  -3.329  -3.252  0.00  0.00    +0.230 C 
ATOM     12  N   LIG    1        9.167  -3.812  -3.844  0.00  0.00    -0.370 NA
ENDBRANCH   7  11
ENDBRANCH   1  10
BRANCH   1  13
ATOM     13  N   LIG    1        3.907  -1.468   1.350  0.00  0.00    -1.000 NA
ATOM     14  C   LIG    1        4.396  -0.724   2.518  0.00  0.00    +0.320 C 
ATOM     15  C   LIG    1        5.458  -1.558   3.232  0.00  0.00    +0.040 C 
ATOM     16  C   LIG    1        4.883  -2.938   3.560  0.00  0.00    +0.180 C 
ATOM     17  C   LIG    1        4.494  -3.653   2.264  0.00  0.00    +0.040 C 
ATOM     18  C   LIG    1        3.416  -2.840   1.541  0.00  0.00    +0.270 C 
ATOM     19  C   LIG    1        3.123  -3.473   0.179  0.00  0.00    +0.050 C 
BRANCH  16  20
ATOM     20  N   LIG    1        5.893  -3.732   4.273  0.00  0.00    -0.640 N 
ATOM     21  H   LIG    1        5.513  -4.641   4.491  0.00  0.00    +0.440 HD
ATOM     22  H   LIG    1        6.149  -3.261   5.128  0.00  0.00    +0.440 HD
ATOM     23  H   LIG    1        6.709  -3.839   3.690  0.00  0.00    +0.430 HD
ENDBRANCH  16  20
ENDBRANCH   1  13
TORSDOF 4
