REMARK  Name = ZINCtV000002Kpgx.0
REMARK                            x       y       z     vdW  Elec       q    Type
REMARK                         _______ _______ _______ _____ _____    ______ ____
ROOT
ATOM      1  C   LIG    1        1.663   3.648   1.484  0.00  0.00    +0.520 C 
ATOM      2  N   LIG    1        2.092   4.908   1.697  0.00  0.00    -0.670 N 
ATOM      3  H   LIG    1        2.324   5.475   0.945  0.00  0.00    +0.420 HD
ATOM      4  O   LIG    1        1.441   2.916   2.425  0.00  0.00    -0.500 OA
ENDROOT
BRANCH   2   5
ATOM      5  C   LIG    1        2.203   5.399   3.004  0.00  0.00    +0.150 A 
ATOM      6  C   LIG    1        2.576   4.551   4.036  0.00  0.00    +0.040 A 
ATOM      7  C   LIG    1        2.691   5.039   5.324  0.00  0.00    +0.040 A 
ATOM      8  C   LIG    1        2.423   6.369   5.590  0.00  0.00    +0.010 A 
ATOM      9  C   LIG    1        2.044   7.219   4.568  0.00  0.00    +0.040 A 
ATOM     10  C   LIG    1        1.933   6.740   3.273  0.00  0.00    +0.050 A 
BRANCH  10  11
ATOM     11  O   LIG    1        1.561   7.575   2.266  0.00  0.00    -0.240 OA
BRANCH  11  12
ATOM     12  C   LIG    1        0.241   7.645   1.950  0.00  0.00    +0.130 A 
ATOM     13  C   LIG    1       -0.668   6.802   2.572  0.00  0.00    -0.050 A 
ATOM     14  C   LIG    1       -2.010   6.875   2.249  0.00  0.00    +0.050 A 
ATOM     15  C   LIG    1       -2.446   7.787   1.305  0.00  0.00    +0.000 A 
ATOM     16  C   LIG    1       -1.542   8.628   0.682  0.00  0.00    +0.060 A 
ATOM     17  C   LIG    1       -0.200   8.564   1.007  0.00  0.00    -0.060 A 
ATOM     18 CL   LIG    1        0.933   9.625   0.230  0.00  0.00    -0.050 Cl
ENDBRANCH  11  12
ENDBRANCH  10  11
ENDBRANCH   2   5
BRANCH   1  19
ATOM     19  C   LIG    1        1.460   3.149   0.077  0.00  0.00    +0.180 C 
BRANCH  19  22
ATOM     20  C   LIG    1        3.266   0.599   0.063  0.00  0.00    +0.190 C 
ATOM     21  C   LIG    1        1.760   0.625   0.108  0.00  0.00    -0.020 A 
ATOM     22  C   LIG    1        0.981   1.721   0.115  0.00  0.00    +0.010 A 
ATOM     23  N   LIG    1       -0.298   1.318   0.160  0.00  0.00    -0.460 NA
ATOM     24  C   LIG    1       -0.324   0.003   0.181  0.00  0.00    +0.260 A 
ATOM     25  O   LIG    1        0.943  -0.449   0.150  0.00  0.00    -0.190 OA
BRANCH  24  26
ATOM     26  C   LIG    1       -1.532  -0.832   0.232  0.00  0.00    -0.140 A 
ATOM     27  C   LIG    1       -1.548  -2.194   0.254  0.00  0.00    +0.060 A 
ATOM     28  C   LIG    1       -2.808  -2.748   0.302  0.00  0.00    +0.010 A 
ATOM     29  C   LIG    1       -3.816  -1.870   0.319  0.00  0.00    -0.040 A 
ATOM     30  S   LIG    1       -3.184  -0.230   0.280  0.00  0.00    +0.210 S 
ENDBRANCH  24  26
ENDBRANCH  19  22
ENDBRANCH   1  19
TORSDOF 6
