REMARK  Name = ZINCrg00000fS7ay.0
REMARK                            x       y       z     vdW  Elec       q    Type
REMARK                         _______ _______ _______ _____ _____    ______ ____
ROOT
ATOM      1  C   LIG    1        3.406   2.177  -0.586  0.00  0.00    +0.520 C 
ATOM      2  N   LIG    1        4.723   1.889  -0.602  0.00  0.00    -0.610 N 
ATOM      3  C   LIG    1        5.206   0.571  -0.168  0.00  0.00    +0.270 C 
ATOM      4  C   LIG    1        6.077  -0.025  -1.278  0.00  0.00    +0.010 C 
ATOM      5  C   LIG    1        7.188   0.965  -1.636  0.00  0.00    +0.020 C 
ATOM      6  C   LIG    1        6.568   2.265  -2.154  0.00  0.00    -0.020 C 
ATOM      7  C   LIG    1        5.702   2.885  -1.059  0.00  0.00    +0.300 C 
ATOM      8  O   LIG    1        3.011   3.232  -1.036  0.00  0.00    -0.530 OA
ENDROOT
BRANCH   1  10
ATOM      9  C   LIG    1        2.477   1.250   1.518  0.00  0.00    +0.070 C 
ATOM     10  C   LIG    1        2.426   1.188  -0.010  0.00  0.00    +0.260 C 
BRANCH  10  11
ATOM     11  N   LIG    1        1.073   1.519  -0.466  0.00  0.00    -0.700 N 
ATOM     12  H   LIG    1        0.858   2.428  -0.727  0.00  0.00    +0.420 HD
ATOM     13  C   LIG    1        0.128   0.560  -0.524  0.00  0.00    +0.650 C 
ATOM     14  O   LIG    1        0.398  -0.579  -0.198  0.00  0.00    -0.570 OA
BRANCH  13  15
ATOM     15  O   LIG    1       -1.113   0.863  -0.949  0.00  0.00    -0.360 OA
BRANCH  15  16
ATOM     16  C   LIG    1       -2.078  -0.221  -0.992  0.00  0.00    +0.290 C 
BRANCH  16  17
ATOM     17  C   LIG    1       -3.401   0.303  -1.488  0.00  0.00    -0.100 A 
ATOM     18  C   LIG    1       -4.335   0.784  -0.590  0.00  0.00    +0.040 A 
ATOM     19  C   LIG    1       -5.546   1.269  -1.046  0.00  0.00    +0.010 A 
ATOM     20  C   LIG    1       -5.828   1.264  -2.400  0.00  0.00    +0.020 A 
ATOM     21  C   LIG    1       -4.895   0.778  -3.297  0.00  0.00    +0.010 A 
ATOM     22  C   LIG    1       -3.682   0.297  -2.842  0.00  0.00    +0.040 A 
ENDBRANCH  16  17
ENDBRANCH  15  16
ENDBRANCH  13  15
ENDBRANCH  10  11
ENDBRANCH   1  10
BRANCH   6  23
ATOM     23  C   LIG    1        7.679   3.242  -2.543  0.00  0.00    +0.280 C 
BRANCH  23  24
ATOM     24  N   LIG    1        8.435   2.696  -3.673  0.00  0.00    -1.120 NA
ATOM     25  H   LIG    1        8.344   1.761  -3.911  0.00  0.00    +0.420 HD
BRANCH  24  26
ATOM     26  S   LIG    1        9.446   3.678  -4.544  0.00  0.00    +2.610 S 
ATOM     27  O   LIG    1        8.642   4.800  -4.879  0.00  0.00    -0.950 OA
ATOM     28  O   LIG    1        9.976   2.828  -5.552  0.00  0.00    -0.960 OA
ATOM     29  C   LIG    1       10.741   4.152  -3.366  0.00  0.00    -0.280 C 
ENDBRANCH  24  26
ENDBRANCH  23  24
ENDBRANCH   6  23
TORSDOF 8
