REMARK  Name = ZINCrD00000dTts9.0
REMARK                            x       y       z     vdW  Elec       q    Type
REMARK                         _______ _______ _______ _____ _____    ______ ____
ROOT
ATOM      1  N   LIG    1       -0.314   1.043  -4.834  0.00  0.00    -0.460 N 
ATOM      2  C   LIG    1        0.952   1.774  -4.676  0.00  0.00    +0.190 C 
ATOM      3  C   LIG    1        1.624   1.342  -3.370  0.00  0.00    +0.240 C 
ATOM      4  O   LIG    1        0.727   1.571  -2.280  0.00  0.00    -0.370 OA
ATOM      5  C   LIG    1       -0.516   0.874  -2.401  0.00  0.00    +0.170 C 
ATOM      6  C   LIG    1       -1.210   1.301  -3.697  0.00  0.00    +0.190 C 
ENDROOT
BRANCH   1  11
ATOM      7  N   LIG    1       -1.192   0.516  -7.066  0.00  0.00    -0.460 N 
ATOM      8  C   LIG    1       -1.801   1.275  -8.027  0.00  0.00    +0.180 A 
ATOM      9  N   LIG    1       -1.881   2.491  -7.567  0.00  0.00    -0.250 NA
ATOM     10  N   LIG    1       -1.372   2.551  -6.388  0.00  0.00    -0.300 NA
ATOM     11  C   LIG    1       -0.929   1.367  -6.033  0.00  0.00    +0.350 A 
BRANCH   8  12
ATOM     12  C   LIG    1       -2.291   0.793  -9.368  0.00  0.00    +0.260 C 
ATOM     13  C   LIG    1       -3.818   0.684  -9.345  0.00  0.00    +0.020 C 
ATOM     14  C   LIG    1       -4.312   0.252 -10.729  0.00  0.00    +0.030 C 
ATOM     15  C   LIG    1       -3.817   1.258 -11.773  0.00  0.00    +0.000 C 
ATOM     16  C   LIG    1       -2.290   1.346 -11.702  0.00  0.00    +0.210 C 
ATOM     17  O   LIG    1       -1.896   1.721 -10.381  0.00  0.00    -0.360 OA
ENDBRANCH   8  12
BRANCH   7  19
ATOM     18  C   LIG    1       -2.060  -1.716  -6.568  0.00  0.00    +0.040 C 
ATOM     19  C   LIG    1       -0.885  -0.915  -7.133  0.00  0.00    +0.290 C 
ENDBRANCH   7  19
ENDBRANCH   1  11
BRANCH   5  20
ATOM     20  C   LIG    1       -1.410   1.213  -1.207  0.00  0.00    +0.060 C 
BRANCH  20  21
ATOM     21  C   LIG    1       -0.773   0.675   0.076  0.00  0.00    +0.070 C 
BRANCH  21  22
ATOM     22  C   LIG    1       -1.654   1.010   1.252  0.00  0.00    -0.080 A 
ATOM     23  C   LIG    1       -1.470   2.195   1.939  0.00  0.00    +0.000 A 
ATOM     24  C   LIG    1       -2.280   2.503   3.016  0.00  0.00    +0.000 A 
ATOM     25  C   LIG    1       -3.269   1.622   3.411  0.00  0.00    -0.010 A 
ATOM     26  C   LIG    1       -3.451   0.435   2.727  0.00  0.00    +0.000 A 
ATOM     27  C   LIG    1       -2.643   0.128   1.648  0.00  0.00    +0.000 A 
ENDBRANCH  21  22
ENDBRANCH  20  21
ENDBRANCH   5  20
TORSDOF 6
