REMARK  Name = ZINCqH0000001KE7.0
REMARK                            x       y       z     vdW  Elec       q    Type
REMARK                         _______ _______ _______ _____ _____    ______ ____
ROOT
ATOM      1  C   LIG    1        5.817   3.427  -1.467  0.00  0.00    +0.510 C 
ATOM      2  N   LIG    1        7.107   3.728  -1.713  0.00  0.00    -0.680 N 
ATOM      3  H   LIG    1        7.715   3.895  -0.977  0.00  0.00    +0.410 HD
ATOM      4  O   LIG    1        5.034   3.312  -2.386  0.00  0.00    -0.500 OA
ENDROOT
BRANCH   2   5
ATOM      5  C   LIG    1        7.570   3.797  -3.032  0.00  0.00    +0.150 A 
ATOM      6  C   LIG    1        8.567   4.703  -3.372  0.00  0.00    +0.000 A 
ATOM      7  C   LIG    1        9.027   4.774  -4.673  0.00  0.00    +0.030 A 
ATOM      8  C   LIG    1        8.498   3.946  -5.643  0.00  0.00    +0.010 A 
ATOM      9  C   LIG    1        7.496   3.035  -5.311  0.00  0.00    -0.020 A 
ATOM     10  C   LIG    1        7.037   2.958  -3.999  0.00  0.00    +0.060 A 
BRANCH   9  11
ATOM     11  C   LIG    1        6.927   2.144  -6.352  0.00  0.00    +0.100 A 
ATOM     12  N   LIG    1        5.988   1.284  -6.034  0.00  0.00    -0.210 NA
ATOM     13  N   LIG    1        5.459   0.495  -6.898  0.00  0.00    -0.440 N 
ATOM     14  H   LIG    1        4.765  -0.119  -6.613  0.00  0.00    +0.440 HD
ATOM     15  C   LIG    1        5.845   0.495  -8.188  0.00  0.00    +0.480 A 
ATOM     16  C   LIG    1        6.855   1.387  -8.612  0.00  0.00    -0.010 A 
ATOM     17  O   LIG    1        5.327  -0.270  -8.985  0.00  0.00    -0.530 OA
ATOM     18  C   LIG    1        7.402   2.221  -7.682  0.00  0.00    +0.100 A 
ENDBRANCH   9  11
ENDBRANCH   2   5
BRANCH   1  19
ATOM     19  C   LIG    1        5.346   3.235  -0.048  0.00  0.00    +0.120 C 
BRANCH  19  23
ATOM     20  C   LIG    1        1.174   2.314  -0.045  0.00  0.00    -0.070 A 
ATOM     21  C   LIG    1        1.591   3.630   0.021  0.00  0.00    +0.010 A 
ATOM     22  C   LIG    1        2.941   3.928   0.025  0.00  0.00    +0.020 A 
ATOM     23  C   LIG    1        3.874   2.910  -0.047  0.00  0.00    -0.080 A 
ATOM     24  C   LIG    1        3.457   1.594  -0.119  0.00  0.00    +0.020 A 
ATOM     25  C   LIG    1        2.107   1.296  -0.118  0.00  0.00    +0.000 A 
BRANCH  20  27
ATOM     26  C   LIG    1       -0.968   2.656  -1.247  0.00  0.00    +0.030 C 
ATOM     27  C   LIG    1       -0.297   1.989  -0.044  0.00  0.00    +0.020 C 
ATOM     28  C   LIG    1       -0.933   2.509   1.247  0.00  0.00    +0.040 C 
ENDBRANCH  20  27
ENDBRANCH  19  23
ENDBRANCH   1  19
TORSDOF 5
