REMARK  Name = ZINCrg000000tXse.0
REMARK                            x       y       z     vdW  Elec       q    Type
REMARK                         _______ _______ _______ _____ _____    ______ ____
ROOT
ATOM      1  O   LIG    1        1.136   3.276   0.009  0.00  0.00    -0.520 OA
ATOM      2  C   LIG    1        1.141   2.058   0.002  0.00  0.00    +0.600 A 
ATOM      3  N   LIG    1       -0.016   1.360   0.009  0.00  0.00    -0.660 N 
ATOM      4  H   LIG    1       -0.864   1.831   0.016  0.00  0.00    +0.420 HD
ATOM      5  C   LIG    1        0.002  -0.004   0.002  0.00  0.00    +0.680 A 
ATOM      6  N   LIG    1        1.125  -0.687  -0.012  0.00  0.00    -0.590 NA
ATOM      7  C   LIG    1        2.313  -0.068  -0.021  0.00  0.00    +0.390 A 
ATOM      8  N   LIG    1        3.604  -0.502  -0.035  0.00  0.00    -0.310 N 
ATOM      9  N   LIG    1        4.443   0.620  -0.037  0.00  0.00    -0.280 NA
ATOM     10  C   LIG    1        3.721   1.705  -0.025  0.00  0.00    +0.350 A 
ATOM     11  C   LIG    1        2.361   1.336  -0.013  0.00  0.00    -0.380 A 
ENDROOT
BRANCH   8  12
ATOM     12  C   LIG    1        4.021  -1.839  -0.046  0.00  0.00    +0.150 A 
ATOM     13  C   LIG    1        3.298  -2.799   0.649  0.00  0.00    +0.020 A 
ATOM     14  C   LIG    1        3.709  -4.117   0.633  0.00  0.00    +0.030 A 
ATOM     15  C   LIG    1        4.845  -4.480  -0.067  0.00  0.00    +0.010 A 
ATOM     16  C   LIG    1        5.570  -3.526  -0.757  0.00  0.00    +0.030 A 
ATOM     17  C   LIG    1        5.161  -2.206  -0.749  0.00  0.00    +0.020 A 
ENDBRANCH   8  12
BRANCH   5  18
ATOM     18  N   LIG    1       -1.189  -0.684   0.010  0.00  0.00    -0.680 N 
ATOM     19  H   LIG    1       -2.027  -0.196   0.021  0.00  0.00    +0.420 HD
BRANCH  18  20
ATOM     20  C   LIG    1       -1.196  -2.149   0.003  0.00  0.00    +0.300 C 
ATOM     21  C   LIG    1       -1.597  -2.756  -1.352  0.00  0.00    +0.010 C 
ATOM     22  C   LIG    1       -2.397  -3.803  -0.555  0.00  0.00    +0.180 C 
ATOM     23  C   LIG    1       -2.485  -2.763   0.573  0.00  0.00    +0.270 C 
BRANCH  23  24
ATOM     24  N   LIG    1       -3.651  -1.881   0.468  0.00  0.00    -0.360 N 
ATOM     25  C   LIG    1       -4.456  -1.754  -0.607  0.00  0.00    +0.220 A 
ATOM     26  C   LIG    1       -5.412  -0.847  -0.301  0.00  0.00    -0.110 A 
ATOM     27  C   LIG    1       -5.178  -0.397   1.002  0.00  0.00    +0.240 A 
ATOM     28  N   LIG    1       -4.122  -1.016   1.464  0.00  0.00    -0.290 NA
ENDBRANCH  23  24
BRANCH  22  29
ATOM     29  O   LIG    1       -1.634  -4.961  -0.208  0.00  0.00    -0.540 OA
ATOM     30  H   LIG    1       -1.575  -5.619  -0.914  0.00  0.00    +0.400 HD
ENDBRANCH  22  29
ENDBRANCH  18  20
ENDBRANCH   5  18
TORSDOF 5
