REMARK  Name = ZINCrH000004nnTf.0
REMARK                            x       y       z     vdW  Elec       q    Type
REMARK                         _______ _______ _______ _____ _____    ______ ____
ROOT
ATOM      1  N   LIG    1       -5.120  -5.151  -3.551  0.00  0.00    -0.490 N 
ATOM      2  C   LIG    1       -4.127  -6.004  -2.884  0.00  0.00    +0.200 C 
ATOM      3  C   LIG    1       -3.983  -5.569  -1.424  0.00  0.00    +0.200 C 
ATOM      4  N   LIG    1       -3.579  -4.157  -1.373  0.00  0.00    -0.540 NA
ATOM      5  C   LIG    1       -4.573  -3.304  -2.040  0.00  0.00    +0.200 C 
ATOM      6  C   LIG    1       -4.716  -3.739  -3.501  0.00  0.00    +0.200 C 
ENDROOT
BRANCH   1  11
ATOM      7  C   LIG    1       -6.443  -5.300  -6.980  0.00  0.00    +0.150 A 
ATOM      8  C   LIG    1       -5.745  -6.390  -7.481  0.00  0.00    -0.100 A 
ATOM      9  C   LIG    1       -4.844  -7.064  -6.678  0.00  0.00    +0.080 A 
ATOM     10  C   LIG    1       -4.635  -6.655  -5.375  0.00  0.00    -0.080 A 
ATOM     11  C   LIG    1       -5.331  -5.564  -4.868  0.00  0.00    +0.150 A 
ATOM     12  C   LIG    1       -6.241  -4.890  -5.671  0.00  0.00    -0.040 A 
BRANCH   7  14
ATOM     13  C   LIG    1       -7.490  -5.118  -9.107  0.00  0.00    +0.250 C 
ATOM     14  O   LIG    1       -7.328  -4.638  -7.771  0.00  0.00    -0.320 OA
ENDBRANCH   7  14
ENDBRANCH   1  11
BRANCH   4  15
ATOM     15  C   LIG    1       -3.358  -3.723   0.012  0.00  0.00    +0.350 C 
BRANCH  15  16
ATOM     16  C   LIG    1       -2.714  -2.360   0.014  0.00  0.00    +0.180 A 
ATOM     17  N   LIG    1       -3.337  -1.215   0.026  0.00  0.00    -0.280 NA
ATOM     18  N   LIG    1       -2.477  -0.258   0.029  0.00  0.00    -0.270 NA
ATOM     19  C   LIG    1       -1.266  -0.764   0.010  0.00  0.00    +0.210 A 
ATOM     20  O   LIG    1       -1.394  -2.106   0.004  0.00  0.00    -0.190 OA
BRANCH  19  21
ATOM     21  C   LIG    1        0.002  -0.004   0.002  0.00  0.00    -0.020 A 
ATOM     22  C   LIG    1       -0.017   1.391   0.010  0.00  0.00    +0.090 A 
ATOM     23  C   LIG    1        1.170   2.095   0.002  0.00  0.00    +0.030 A 
ATOM     24  C   LIG    1        2.378   1.420  -0.013  0.00  0.00    +0.060 A 
ATOM     25  C   LIG    1        2.405   0.037  -0.021  0.00  0.00    +0.030 A 
ATOM     26  C   LIG    1        1.225  -0.680  -0.013  0.00  0.00    -0.010 A 
ATOM     27 CL   LIG    1        1.260  -2.415  -0.024  0.00  0.00    -0.040 Cl
ENDBRANCH  19  21
ENDBRANCH  15  16
ENDBRANCH   4  15
TORSDOF 5
