REMARK  Name = ZINCrH000004sm5L.0
REMARK                            x       y       z     vdW  Elec       q    Type
REMARK                         _______ _______ _______ _____ _____    ______ ____
ROOT
ATOM      1  C   LIG    1       -2.908   2.987   1.660  0.00  0.00    +0.510 C 
ATOM      2  N   LIG    1       -1.752   2.343   1.404  0.00  0.00    -0.730 N 
ATOM      3  H   LIG    1       -1.198   2.032   2.137  0.00  0.00    +0.400 HD
ATOM      4  O   LIG    1       -3.601   3.377   0.743  0.00  0.00    -0.530 OA
ENDROOT
BRANCH   1   5
ATOM      5  C   LIG    1       -3.340   3.224   3.084  0.00  0.00    +0.120 C 
BRANCH   5   9
ATOM      6  C   LIG    1       -7.074   5.308   3.114  0.00  0.00    -0.020 A 
ATOM      7  C   LIG    1       -7.050   3.915   3.106  0.00  0.00    +0.050 A 
ATOM      8  C   LIG    1       -5.842   3.247   3.096  0.00  0.00    +0.010 A 
ATOM      9  C   LIG    1       -4.656   3.959   3.094  0.00  0.00    -0.060 A 
ATOM     10  C   LIG    1       -4.673   5.342   3.107  0.00  0.00    +0.020 A 
ATOM     11  C   LIG    1       -5.875   6.020   3.112  0.00  0.00    +0.020 A 
BRANCH   6  15
ATOM     12  C   LIG    1      -12.009   5.629   3.143  0.00  0.00    +0.180 C 
ATOM     13  C   LIG    1      -10.595   6.150   3.138  0.00  0.00    +0.050 A 
ATOM     14  N   LIG    1       -9.540   5.411   3.123  0.00  0.00    -0.470 NA
ATOM     15  C   LIG    1       -8.369   6.031   3.126  0.00  0.00    +0.110 A 
ATOM     16  C   LIG    1       -8.458   7.376   3.134  0.00  0.00    -0.080 A 
ATOM     17  S   LIG    1      -10.167   7.805   3.146  0.00  0.00    +0.130 S 
ENDBRANCH   6  15
ENDBRANCH   5   9
ENDBRANCH   1   5
BRANCH   2  18
ATOM     18  C   LIG    1       -1.333   2.113   0.020  0.00  0.00    +0.330 C 
BRANCH  18  19
ATOM     19  C   LIG    1       -0.017   1.378   0.010  0.00  0.00    -0.110 A 
ATOM     20  C   LIG    1        1.169   2.088   0.002  0.00  0.00    +0.050 A 
ATOM     21  C   LIG    1        2.378   1.418  -0.014  0.00  0.00    +0.030 A 
ATOM     22  C   LIG    1        2.404   0.031  -0.024  0.00  0.00    +0.060 A 
ATOM     23  O   LIG    1        3.602  -0.614  -0.044  0.00  0.00    -0.310 OA
ATOM     24  C   LIG    1        3.594  -1.998   0.325  0.00  0.00    +0.220 C 
ATOM     25  C   LIG    1        2.433  -2.684  -0.409  0.00  0.00    +0.220 C 
ATOM     26  O   LIG    1        1.214  -2.043  -0.018  0.00  0.00    -0.310 OA
ATOM     27  C   LIG    1        1.211  -0.682  -0.014  0.00  0.00    +0.050 A 
ATOM     28  C   LIG    1        0.002  -0.004   0.002  0.00  0.00    +0.050 A 
ENDBRANCH  18  19
ENDBRANCH   2  18
TORSDOF 5
