REMARK  Name = ZINCpe000000YliF.0
REMARK                            x       y       z     vdW  Elec       q    Type
REMARK                         _______ _______ _______ _____ _____    ______ ____
ROOT
ATOM      1  N   LIG    1       -2.576  -2.258   1.342  0.00  0.00    -0.640 N 
ATOM      2  H   LIG    1       -2.944  -1.723   2.062  0.00  0.00    +0.420 HD
ATOM      3  C   LIG    1       -1.575  -1.768   0.583  0.00  0.00    +0.700 C 
ATOM      4  N   LIG    1       -1.086  -0.536   0.826  0.00  0.00    -0.720 N 
ATOM      5  H   LIG    1       -1.454  -0.002   1.547  0.00  0.00    +0.400 HD
ATOM      6  O   LIG    1       -1.113  -2.438  -0.320  0.00  0.00    -0.510 OA
ENDROOT
BRANCH   1  12
ATOM      7  C   LIG    1       -5.715  -5.898   2.420  0.00  0.00    +0.330 C 
ATOM      8  N   LIG    1       -4.629  -5.313   1.630  0.00  0.00    -0.480 N 
ATOM      9  C   LIG    1       -4.069  -6.012   0.603  0.00  0.00    +0.210 A 
ATOM     10  C   LIG    1       -3.067  -5.482  -0.131  0.00  0.00    +0.180 A 
ATOM     11  N   LIG    1       -2.591  -4.261   0.112  0.00  0.00    -0.410 NA
ATOM     12  C   LIG    1       -3.081  -3.531   1.091  0.00  0.00    +0.310 A 
ATOM     13  C   LIG    1       -4.170  -4.073   1.910  0.00  0.00    +0.490 A 
ATOM     14  O   LIG    1       -4.649  -3.421   2.822  0.00  0.00    -0.530 OA
ENDBRANCH   1  12
BRANCH   4  15
ATOM     15  C   LIG    1        0.002  -0.004   0.002  0.00  0.00    +0.270 C 
ATOM     16  C   LIG    1       -0.019   1.542   0.011  0.00  0.00    +0.060 C 
ATOM     17  C   LIG    1        1.489   1.878  -0.002  0.00  0.00    +0.280 C 
ATOM     18  N   LIG    1        2.154   0.712   0.592  0.00  0.00    -0.580 N 
ATOM     19  C   LIG    1        1.344  -0.360   0.603  0.00  0.00    +0.510 C 
ATOM     20  O   LIG    1        1.645  -1.454   1.031  0.00  0.00    -0.490 OA
BRANCH  18  21
ATOM     21  C   LIG    1        3.465   0.717   1.086  0.00  0.00    +0.110 A 
ATOM     22  C   LIG    1        4.524   0.396   0.250  0.00  0.00    +0.060 A 
ATOM     23  C   LIG    1        5.817   0.407   0.738  0.00  0.00    +0.020 A 
ATOM     24  C   LIG    1        6.056   0.727   2.062  0.00  0.00    +0.060 A 
ATOM     25  C   LIG    1        5.002   1.043   2.901  0.00  0.00    -0.010 A 
ATOM     26  C   LIG    1        3.707   1.039   2.417  0.00  0.00    +0.110 A 
ATOM     27  F   LIG    1        2.678   1.348   3.237  0.00  0.00    -0.130 F 
ENDBRANCH  18  21
ENDBRANCH   4  15
TORSDOF 3
