REMARK  Name = ZINCrD000000gKPT.0
REMARK                            x       y       z     vdW  Elec       q    Type
REMARK                         _______ _______ _______ _____ _____    ______ ____
ROOT
ATOM      1  C   LIG    1        1.028   2.091   2.941  0.00  0.00    +0.600 C 
ATOM      2  N   LIG    1       -0.025   1.403   2.455  0.00  0.00    -0.720 N 
ATOM      3  H   LIG    1       -0.313   0.586   2.892  0.00  0.00    +0.400 HD
ATOM      4  O   LIG    1        1.389   3.115   2.393  0.00  0.00    -0.490 OA
ENDROOT
BRANCH   1   9
ATOM      5  C   LIG    1        3.138   1.359   5.830  0.00  0.00    -0.010 A 
ATOM      6  N   LIG    1        2.276   0.358   5.829  0.00  0.00    -0.190 NA
ATOM      7  N   LIG    1        1.448   0.479   4.855  0.00  0.00    -0.360 N 
ATOM      8  H   LIG    1        0.725  -0.137   4.659  0.00  0.00    +0.450 HD
ATOM      9  C   LIG    1        1.740   1.604   4.133  0.00  0.00    -0.040 A 
ATOM     10  C   LIG    1        2.819   2.192   4.738  0.00  0.00    +0.100 A 
BRANCH   5  11
ATOM     11  C   LIG    1        4.234   1.567   6.797  0.00  0.00    +0.560 C 
ATOM     12  O   LIG    1        4.964   2.532   6.689  0.00  0.00    -0.490 OA
BRANCH  11  13
ATOM     13  O   LIG    1        4.426   0.686   7.798  0.00  0.00    -0.330 OA
BRANCH  13  15
ATOM     14  C   LIG    1        5.302   2.307   9.390  0.00  0.00    +0.030 C 
ATOM     15  C   LIG    1        5.523   0.953   8.711  0.00  0.00    +0.120 C 
ATOM     16  C   LIG    1        6.839   0.983   7.931  0.00  0.00    +0.020 C 
ATOM     17  C   LIG    1        5.583  -0.147   9.772  0.00  0.00    +0.080 C 
ENDBRANCH  13  15
ENDBRANCH  11  13
ENDBRANCH   5  11
ENDBRANCH   1   9
BRANCH   2  18
ATOM     18  C   LIG    1       -0.733   1.888   1.268  0.00  0.00    +0.230 C 
BRANCH  18  19
ATOM     19  C   LIG    1       -0.017   1.395   0.010  0.00  0.00    +0.370 C 
ATOM     20  F   LIG    1        1.296   1.879  -0.000  0.00  0.00    -0.190 F 
ATOM     21  F   LIG    1        0.002  -0.004   0.002  0.00  0.00    -0.200 F 
ENDBRANCH  18  19
BRANCH  18  22
ATOM     22  C   LIG    1       -2.168   1.359   1.279  0.00  0.00    +0.050 C 
BRANCH  22  23
ATOM     23  C   LIG    1       -2.922   1.952   2.471  0.00  0.00    +0.070 C 
BRANCH  23  24
ATOM     24  C   LIG    1       -4.336   1.430   2.482  0.00  0.00    -0.090 A 
ATOM     25  C   LIG    1       -5.331   2.118   1.813  0.00  0.00    +0.000 A 
ATOM     26  C   LIG    1       -6.627   1.637   1.819  0.00  0.00    +0.000 A 
ATOM     27  C   LIG    1       -6.930   0.474   2.502  0.00  0.00    +0.000 A 
ATOM     28  C   LIG    1       -5.935  -0.211   3.176  0.00  0.00    +0.000 A 
ATOM     29  C   LIG    1       -4.638   0.267   3.166  0.00  0.00    +0.000 A 
ENDBRANCH  23  24
ENDBRANCH  22  23
ENDBRANCH  18  22
ENDBRANCH   2  18
TORSDOF 9
