REMARK  Name = ZINCtV00001bB3UQ.0
REMARK                            x       y       z     vdW  Elec       q    Type
REMARK                         _______ _______ _______ _____ _____    ______ ____
ROOT
ATOM      1  C   LIG    1       -1.345   8.548   1.860  0.00  0.00    +0.140 C 
ATOM      2  C   LIG    1       -0.660   7.611   0.899  0.00  0.00    +0.190 A 
ATOM      3  N   LIG    1       -0.069   8.102  -0.159  0.00  0.00    -0.470 NA
ATOM      4  C   LIG    1        0.556   7.323  -1.051  0.00  0.00    +0.150 A 
ATOM      5  C   LIG    1        1.183   7.880  -2.178  0.00  0.00    +0.040 A 
ATOM      6  C   LIG    1        1.813   7.069  -3.073  0.00  0.00    +0.040 A 
ATOM      7  C   LIG    1        1.847   5.690  -2.891  0.00  0.00    +0.010 A 
ATOM      8  C   LIG    1        1.251   5.113  -1.809  0.00  0.00    +0.040 A 
ATOM      9  C   LIG    1        0.594   5.919  -0.869  0.00  0.00    -0.100 A 
ATOM     10  C   LIG    1       -0.038   5.356   0.267  0.00  0.00    +0.060 A 
ATOM     11  C   LIG    1       -0.679   6.231   1.158  0.00  0.00    -0.190 A 
ENDROOT
BRANCH  10  12
ATOM     12  C   LIG    1       -0.028   3.896   0.503  0.00  0.00    -0.070 A 
ATOM     13  C   LIG    1        1.176   3.235   0.752  0.00  0.00    +0.030 A 
ATOM     14  C   LIG    1        1.179   1.873   0.971  0.00  0.00    +0.010 A 
ATOM     15  C   LIG    1       -0.008   1.162   0.943  0.00  0.00    +0.030 A 
ATOM     16  C   LIG    1       -1.205   1.811   0.691  0.00  0.00    +0.020 A 
ATOM     17  C   LIG    1       -1.222   3.173   0.477  0.00  0.00    +0.040 A 
ENDBRANCH  10  12
BRANCH  11  18
ATOM     18  C   LIG    1       -1.360   5.707   2.358  0.00  0.00    +0.450 C 
ATOM     19  O   LIG    1       -2.546   5.433   2.314  0.00  0.00    -0.430 OA
BRANCH  18  20
ATOM     20  C   LIG    1       -0.612   5.516   3.598  0.00  0.00    -0.060 C 
ATOM     21  C   LIG    1       -1.209   4.942   4.667  0.00  0.00    +0.130 C 
BRANCH  21  22
ATOM     22  C   LIG    1       -0.457   4.750   5.914  0.00  0.00    -0.100 A 
ATOM     23  C   LIG    1       -0.999   5.170   7.136  0.00  0.00    +0.130 A 
ATOM     24  C   LIG    1       -0.283   4.985   8.304  0.00  0.00    +0.000 A 
ATOM     25  C   LIG    1        0.963   4.386   8.268  0.00  0.00    +0.080 A 
ATOM     26  C   LIG    1        1.506   3.969   7.065  0.00  0.00    +0.030 A 
ATOM     27  F   LIG    1       -2.216   5.754   7.173  0.00  0.00    -0.120 F 
ATOM     28  C   LIG    1        0.804   4.140   5.890  0.00  0.00    +0.000 A 
ATOM     29 CL   LIG    1        1.485   3.608   4.384  0.00  0.00    -0.040 Cl
ENDBRANCH  21  22
ENDBRANCH  18  20
ENDBRANCH  11  18
TORSDOF 4
