REMARK  Name = ZINCpk00000y6xCU.0
REMARK                            x       y       z     vdW  Elec       q    Type
REMARK                         _______ _______ _______ _____ _____    ______ ____
ROOT
ATOM      1  N   LIG    1       -1.981   2.603  -3.678  0.00  0.00    -0.280 N 
ATOM      2  N   LIG    1       -2.251   3.018  -4.869  0.00  0.00    -0.250 NA
ATOM      3  C   LIG    1       -3.461   3.483  -4.930  0.00  0.00    +0.010 A 
ATOM      4  C   LIG    1       -4.034   3.354  -3.655  0.00  0.00    -0.150 A 
ATOM      5  C   LIG    1       -5.439   3.791  -3.341  0.00  0.00    +0.100 C 
ATOM      6  C   LIG    1       -5.908   4.696  -4.491  0.00  0.00    +0.150 C 
ATOM      7  O   LIG    1       -5.615   4.078  -5.746  0.00  0.00    -0.370 OA
ATOM      8  C   LIG    1       -7.417   4.921  -4.378  0.00  0.00    +0.060 C 
ATOM      9  C   LIG    1       -4.221   4.067  -6.096  0.00  0.00    +0.260 C 
ATOM     10  C   LIG    1       -4.017   3.196  -7.337  0.00  0.00    +0.070 C 
ATOM     11  C   LIG    1       -3.068   2.792  -2.865  0.00  0.00    -0.010 A 
ENDROOT
BRANCH  11  12
ATOM     12  C   LIG    1       -3.177   2.454  -1.437  0.00  0.00    +0.610 C 
ATOM     13  N   LIG    1       -2.786   3.343  -0.502  0.00  0.00    -0.610 N 
ATOM     14  C   LIG    1       -2.134   4.635  -0.769  0.00  0.00    +0.240 C 
ATOM     15  C   LIG    1       -1.893   5.321   0.596  0.00  0.00    +0.060 C 
ATOM     16  C   LIG    1       -2.896   4.612   1.518  0.00  0.00    -0.150 C 
ATOM     17  C   LIG    1       -4.236   5.309   1.726  0.00  0.00    +0.230 C 
ATOM     18  O   LIG    1       -4.100   4.880   3.100  0.00  0.00    -0.380 OA
ATOM     19  C   LIG    1       -2.663   4.759   3.017  0.00  0.00    +0.250 C 
ATOM     20  C   LIG    1       -2.942   3.180   0.958  0.00  0.00    +0.300 C 
ATOM     21  O   LIG    1       -3.620   1.373  -1.100  0.00  0.00    -0.510 OA
ENDBRANCH  11  12
BRANCH   1  22
ATOM     22  C   LIG    1       -0.706   2.018  -3.258  0.00  0.00    +0.350 C 
BRANCH  22  23
ATOM     23  C   LIG    1       -0.702   0.521  -3.577  0.00  0.00    +0.170 C 
BRANCH  23  25
ATOM     24  C   LIG    1        0.693  -1.427  -3.538  0.00  0.00    +0.220 C 
ATOM     25  O   LIG    1        0.582  -0.027  -3.274  0.00  0.00    -0.390 OA
ENDBRANCH  23  25
ENDBRANCH  22  23
ENDBRANCH   1  22
TORSDOF 4
