REMARK  Name = ZINCpe00000MJIGR.0
REMARK                            x       y       z     vdW  Elec       q    Type
REMARK                         _______ _______ _______ _____ _____    ______ ____
ROOT
ATOM      1  C   LIG    1        1.603  -1.715   1.114  0.00  0.00    +0.260 C 
ATOM      2  C   LIG    1        2.448  -1.697   2.401  0.00  0.00    +0.290 C 
ATOM      3  N   LIG    1        3.208  -2.811   1.794  0.00  0.00    -0.630 N 
ATOM      4  C   LIG    1        3.954  -3.821   2.284  0.00  0.00    +0.630 C 
ATOM      5  O   LIG    1        4.476  -4.615   1.524  0.00  0.00    -0.510 OA
ATOM      6  C   LIG    1        2.819  -2.374   0.439  0.00  0.00    +0.290 C 
ENDROOT
BRANCH   4   7
ATOM      7  C   LIG    1        4.139  -3.962   3.735  0.00  0.00    -0.020 A 
ATOM      8  C   LIG    1        4.867  -4.936   4.339  0.00  0.00    +0.060 A 
ATOM      9  C   LIG    1        4.770  -4.683   5.776  0.00  0.00    -0.150 A 
ATOM     10  C   LIG    1        5.284  -5.311   6.912  0.00  0.00    +0.070 A 
ATOM     11  C   LIG    1        5.000  -4.809   8.151  0.00  0.00    -0.010 A 
ATOM     12  C   LIG    1        4.204  -3.679   8.287  0.00  0.00    +0.060 A 
ATOM     13  C   LIG    1        3.688  -3.045   7.178  0.00  0.00    +0.030 A 
ATOM     14  C   LIG    1        3.963  -3.537   5.907  0.00  0.00    +0.070 A 
ATOM     15  O   LIG    1        3.615  -3.140   4.668  0.00  0.00    -0.180 OA
ENDBRANCH   4   7
BRANCH   1  19
ATOM     16  C   LIG    1       -0.019   1.541   0.011  0.00  0.00    +0.000 C 
ATOM     17  C   LIG    1        1.490   1.876  -0.002  0.00  0.00    +0.090 C 
ATOM     18  C   LIG    1        2.147   0.654   0.600  0.00  0.00    +0.520 C 
ATOM     19  N   LIG    1        1.290  -0.381   0.595  0.00  0.00    -0.600 N 
ATOM     20  O   LIG    1        3.282   0.615   1.027  0.00  0.00    -0.520 OA
ATOM     21  C   LIG    1        0.002  -0.004   0.002  0.00  0.00    +0.310 C 
BRANCH  16  25
ATOM     22  C   LIG    1       -1.434   3.902   2.671  0.00  0.00    +0.290 C 
ATOM     23  N   LIG    1       -0.793   3.393   1.456  0.00  0.00    -0.730 N 
ATOM     24  H   LIG    1       -0.453   4.012   0.791  0.00  0.00    +0.400 HD
ATOM     25  C   LIG    1       -0.677   2.064   1.261  0.00  0.00    +0.520 C 
ATOM     26  O   LIG    1       -1.103   1.290   2.092  0.00  0.00    -0.530 OA
ENDBRANCH  16  25
ENDBRANCH   1  19
TORSDOF 3
