REMARK  Name = ZINCrH000004pCnK.0
REMARK                            x       y       z     vdW  Elec       q    Type
REMARK                         _______ _______ _______ _____ _____    ______ ____
ROOT
ATOM      1  N   LIG    1       -4.784  -0.269  -0.875  0.00  0.00    -0.520 NA
ATOM      2  C   LIG    1       -4.789   0.567   0.334  0.00  0.00    +0.190 C 
ATOM      3  C   LIG    1       -3.582   1.508   0.305  0.00  0.00    +0.180 C 
ATOM      4  N   LIG    1       -2.348   0.716   0.222  0.00  0.00    -0.520 NA
ATOM      5  C   LIG    1       -2.342  -0.120  -0.987  0.00  0.00    +0.190 C 
ATOM      6  C   LIG    1       -3.549  -1.061  -0.958  0.00  0.00    +0.190 C 
ENDROOT
BRANCH   1   8
ATOM      7  C   LIG    1       -5.865  -2.201   0.171  0.00  0.00    +0.000 C 
ATOM      8  C   LIG    1       -5.969  -1.135  -0.921  0.00  0.00    +0.220 C 
BRANCH   8   9
ATOM      9  C   LIG    1       -6.051  -1.803  -2.269  0.00  0.00    -0.070 A 
ATOM     10  C   LIG    1       -5.702  -3.133  -2.404  0.00  0.00    +0.020 A 
ATOM     11  C   LIG    1       -5.782  -3.748  -3.640  0.00  0.00    +0.010 A 
ATOM     12  C   LIG    1       -6.199  -3.029  -4.744  0.00  0.00    +0.020 A 
ATOM     13  C   LIG    1       -6.543  -1.697  -4.612  0.00  0.00    +0.010 A 
ATOM     14  C   LIG    1       -6.469  -1.083  -3.375  0.00  0.00    -0.010 A 
ATOM     15 CL   LIG    1       -6.902   0.590  -3.208  0.00  0.00    -0.060 Cl
ENDBRANCH   8   9
ENDBRANCH   1   8
BRANCH   4  16
ATOM     16  C   LIG    1       -1.162   1.582   0.269  0.00  0.00    +0.170 C 
BRANCH  16  17
ATOM     17  C   LIG    1        0.073   0.734   0.428  0.00  0.00    +0.430 C 
ATOM     18  O   LIG    1       -0.024  -0.475   0.497  0.00  0.00    -0.460 OA
BRANCH  17  19
ATOM     19  C   LIG    1        1.342   1.343   0.492  0.00  0.00    -0.320 A 
ATOM     20  C   LIG    1        2.585   0.714   0.639  0.00  0.00    +0.360 A 
ATOM     21  N   LIG    1        3.538   1.625   0.653  0.00  0.00    -0.560 NA
ATOM     22  C   LIG    1        3.062   2.861   0.536  0.00  0.00    +0.280 A 
ATOM     23  N   LIG    1        3.658   4.093   0.506  0.00  0.00    -0.490 N 
ATOM     24  H   LIG    1        4.622   4.160   0.581  0.00  0.00    +0.430 HD
ATOM     25  C   LIG    1        2.923   5.209   0.376  0.00  0.00    +0.340 A 
ATOM     26  C   LIG    1        1.567   5.165   0.268  0.00  0.00    -0.050 A 
ATOM     27  C   LIG    1        0.904   3.941   0.292  0.00  0.00    +0.170 A 
ATOM     28  C   LIG    1        1.653   2.780   0.427  0.00  0.00    -0.130 A 
ENDBRANCH  17  19
ENDBRANCH  16  17
ENDBRANCH   4  16
TORSDOF 5
