REMARK  Name = ZINCvU0000000HMm.0
REMARK                            x       y       z     vdW  Elec       q    Type
REMARK                         _______ _______ _______ _____ _____    ______ ____
ROOT
ATOM      1  C   LIG    1       -2.929   4.367  -0.609  0.00  0.00    -0.210 A 
ATOM      2  C   LIG    1       -3.461   5.581  -0.353  0.00  0.00    +0.260 A 
ATOM      3  N   LIG    1       -2.581   6.269   0.421  0.00  0.00    -0.310 N 
ATOM      4  N   LIG    1       -1.472   5.445   0.654  0.00  0.00    -0.250 NA
ATOM      5  C   LIG    1       -1.677   4.297   0.039  0.00  0.00    +0.170 A 
ENDROOT
BRANCH   1  12
ATOM      6  C   LIG    1       -7.356   3.982  -1.095  0.00  0.00    +0.120 C 
ATOM      7  C   LIG    1       -5.928   3.683  -0.713  0.00  0.00    +0.550 C 
ATOM      8  N   LIG    1       -4.986   3.565  -1.669  0.00  0.00    -0.470 N 
ATOM      9  N   LIG    1       -5.200   3.696  -3.040  0.00  0.00    -0.230 NA
ATOM     10  C   LIG    1       -4.141   3.540  -3.756  0.00  0.00    +0.140 C 
ATOM     11  C   LIG    1       -2.960   3.255  -2.855  0.00  0.00    +0.100 C 
ATOM     12  C   LIG    1       -3.562   3.278  -1.436  0.00  0.00    +0.300 C 
ATOM     13  O   LIG    1       -5.628   3.550   0.454  0.00  0.00    -0.510 OA
BRANCH  10  14
ATOM     14  C   LIG    1       -4.087   3.627  -5.227  0.00  0.00    -0.030 A 
ATOM     15  C   LIG    1       -2.875   3.445  -5.896  0.00  0.00    +0.070 A 
ATOM     16  C   LIG    1       -2.833   3.521  -7.273  0.00  0.00    +0.030 A 
ATOM     17  C   LIG    1       -3.987   3.789  -7.990  0.00  0.00    -0.020 A 
ATOM     18  C   LIG    1       -5.191   3.976  -7.332  0.00  0.00    +0.030 A 
ATOM     19 CL   LIG    1       -3.925   3.890  -9.722  0.00  0.00    -0.060 Cl
ATOM     20  C   LIG    1       -5.248   3.896  -5.956  0.00  0.00    +0.070 A 
ENDBRANCH  10  14
ENDBRANCH   1  12
BRANCH   3  21
ATOM     21  C   LIG    1       -2.753   7.573   0.903  0.00  0.00    +0.160 A 
ATOM     22  C   LIG    1       -3.905   8.283   0.591  0.00  0.00    -0.010 A 
ATOM     23  C   LIG    1       -4.073   9.567   1.071  0.00  0.00    +0.050 A 
ATOM     24  C   LIG    1       -3.092  10.149   1.854  0.00  0.00    +0.010 A 
ATOM     25  C   LIG    1       -1.942   9.445   2.163  0.00  0.00    +0.050 A 
ATOM     26  C   LIG    1       -1.770   8.159   1.689  0.00  0.00    +0.020 A 
ENDBRANCH   3  21
BRANCH   5  27
ATOM     27  C   LIG    1       -0.755   3.142   0.025  0.00  0.00    +0.050 A 
ATOM     28  C   LIG    1        0.603   3.205   0.013  0.00  0.00    -0.010 A 
ATOM     29  C   LIG    1        1.071   1.876   0.002  0.00  0.00    -0.050 A 
ATOM     30  C   LIG    1       -0.013   1.076   0.008  0.00  0.00    +0.190 A 
ATOM     31  O   LIG    1       -1.115   1.844   0.017  0.00  0.00    -0.170 OA
ENDBRANCH   5  27
TORSDOF 4
