REMARK  Name = ZINCah0000002qFj.0
REMARK                            x       y       z     vdW  Elec       q    Type
REMARK                         _______ _______ _______ _____ _____    ______ ____
ROOT
ATOM      1  C   LIG    1       -2.996  -2.411  -0.389  0.00  0.00    +0.030 C 
ATOM      2  C   LIG    1       -1.527  -2.027  -0.201  0.00  0.00    -0.030 C 
ATOM      3  C   LIG    1       -0.967  -2.763   1.018  0.00  0.00    +0.280 C 
ATOM      4  N   LIG    1        0.485  -2.929   0.841  0.00  0.00    -0.730 N 
ATOM      5  H   LIG    1        0.850  -3.806   0.647  0.00  0.00    +0.400 HD
ATOM      6  C   LIG    1        1.303  -1.880   0.947  0.00  0.00    +0.520 C 
ATOM      7  C   LIG    1        0.743  -0.505   1.244  0.00  0.00    +0.050 C 
ATOM      8  C   LIG    1        0.002  -0.004   0.002  0.00  0.00    -0.020 C 
ATOM      9  C   LIG    1       -0.019   1.526   0.010  0.00  0.00    +0.030 C 
ATOM     10  O   LIG    1        2.498  -2.029   0.806  0.00  0.00    -0.550 OA
ATOM     11  C   LIG    1       -1.424  -0.523  -0.019  0.00  0.00    +0.030 C 
ENDROOT
TORSDOF 0
