REMARK  Name = ZINCpe00000gMzB6.0
REMARK                            x       y       z     vdW  Elec       q    Type
REMARK                         _______ _______ _______ _____ _____    ______ ____
ROOT
ATOM      1  C   LIG    1        2.936   6.705   0.010  0.00  0.00    +0.250 A 
ATOM      2  C   LIG    1        2.723   8.076   0.019  0.00  0.00    -0.090 A 
ATOM      3  C   LIG    1        1.437   8.577   0.033  0.00  0.00    +0.200 A 
ATOM      4  C   LIG    1        0.350   7.718   0.039  0.00  0.00    -0.730 A 
ATOM      5  C   LIG    1        0.542   6.353   0.025  0.00  0.00    +0.250 A 
ATOM      6  C   LIG    1        1.838   5.832   0.016  0.00  0.00    -0.180 A 
ENDROOT
BRANCH   4   7
ATOM      7  S   LIG    1       -1.286   8.373   0.058  0.00  0.00    +2.710 S 
ATOM      8  O   LIG    1       -1.188   9.680   0.608  0.00  0.00    -0.960 OA
ATOM      9  O   LIG    1       -2.118   7.359   0.605  0.00  0.00    -0.950 OA
BRANCH   7  10
ATOM     10  N   LIG    1       -1.756   8.563  -1.519  0.00  0.00    -1.250 NA
ATOM     11  H   LIG    1       -1.094   8.752  -2.203  0.00  0.00    +0.420 HD
ATOM     12  H   LIG    1       -2.692   8.487  -1.758  0.00  0.00    +0.420 HD
ENDBRANCH   7  10
ENDBRANCH   4   7
BRANCH   1  14
ATOM     13  C   LIG    1        5.267   7.162  -0.010  0.00  0.00    +0.250 C 
ATOM     14  O   LIG    1        4.199   6.212  -0.005  0.00  0.00    -0.280 OA
ENDBRANCH   1  14
BRANCH   6  15
ATOM     15  C   LIG    1        2.051   4.374   0.006  0.00  0.00    +0.510 C 
ATOM     16  O   LIG    1        3.180   3.925  -0.007  0.00  0.00    -0.480 OA
BRANCH  15  17
ATOM     17  O   LIG    1        0.994   3.538   0.012  0.00  0.00    -0.330 OA
BRANCH  17  18
ATOM     18  C   LIG    1        1.278   2.115   0.001  0.00  0.00    +0.270 C 
BRANCH  18  19
ATOM     19  C   LIG    1       -0.016   1.344   0.009  0.00  0.00    +0.520 C 
ATOM     20  N   LIG    1        0.002  -0.004   0.002  0.00  0.00    -0.720 N 
ATOM     21  H   LIG    1        0.849  -0.478  -0.009  0.00  0.00    +0.410 HD
ATOM     22  O   LIG    1       -1.075   1.936   0.018  0.00  0.00    -0.510 OA
BRANCH  20  23
ATOM     23  C   LIG    1       -1.256  -0.754   0.010  0.00  0.00    +0.370 C 
BRANCH  23  24
ATOM     24  C   LIG    1       -0.961  -2.232  -0.001  0.00  0.00    -0.210 A 
ATOM     25  C   LIG    1       -0.800  -2.991   1.084  0.00  0.00    +0.030 A 
ATOM     26  C   LIG    1       -0.536  -4.326   0.827  0.00  0.00    +0.000 A 
ATOM     27  C   LIG    1       -0.482  -4.649  -0.466  0.00  0.00    -0.030 A 
ATOM     28  S   LIG    1       -0.784  -3.220  -1.445  0.00  0.00    +0.120 S 
ENDBRANCH  23  24
ENDBRANCH  20  23
ENDBRANCH  18  19
ENDBRANCH  17  18
ENDBRANCH  15  17
ENDBRANCH   6  15
TORSDOF 9
