REMARK  Name = ZINCrH000004swGI.1
REMARK                            x       y       z     vdW  Elec       q    Type
REMARK                         _______ _______ _______ _____ _____    ______ ____
ROOT
ATOM      1  N   LIG    1       -3.929  -1.332   3.618  0.00  0.00    -0.730 N 
ATOM      2  H   LIG    1       -4.380  -1.023   2.817  0.00  0.00    +0.400 HD
ATOM      3  C   LIG    1       -2.681  -0.906   3.895  0.00  0.00    +0.710 C 
ATOM      4  N   LIG    1       -2.060  -0.050   3.060  0.00  0.00    -0.670 N 
ATOM      5  H   LIG    1       -2.539   0.323   2.304  0.00  0.00    +0.420 HD
ATOM      6  O   LIG    1       -2.115  -1.294   4.899  0.00  0.00    -0.560 OA
ENDROOT
BRANCH   4   7
ATOM      7  C   LIG    1       -0.721   0.301   3.283  0.00  0.00    +0.210 A 
ATOM      8  C   LIG    1        0.113  -0.553   3.989  0.00  0.00    +0.040 A 
ATOM      9  C   LIG    1        1.434  -0.205   4.208  0.00  0.00    -0.010 A 
ATOM     10  C   LIG    1        1.926   0.994   3.725  0.00  0.00    +0.010 A 
ATOM     11  C   LIG    1        1.102   1.849   3.016  0.00  0.00    +0.020 A 
ATOM     12 CL   LIG    1        2.476  -1.275   5.093  0.00  0.00    -0.060 Cl
ATOM     13  C   LIG    1       -0.224   1.509   2.796  0.00  0.00    +0.050 A 
BRANCH  13  14
ATOM     14  N   LIG    1       -1.061   2.375   2.082  0.00  0.00    -0.510 N 
ATOM     15  C   LIG    1       -1.241   3.644   2.800  0.00  0.00    +0.210 C 
ATOM     16  C   LIG    1       -0.546   2.606   0.726  0.00  0.00    +0.200 C 
ENDBRANCH  13  14
ENDBRANCH   4   7
BRANCH   1  17
ATOM     17  C   LIG    1       -4.604  -2.263   4.526  0.00  0.00    +0.440 C 
BRANCH  17  21
ATOM     18  C   LIG    1       -9.447  -1.814   5.719  0.00  0.00    +0.210 C 
ATOM     19  C   LIG    1       -8.183  -1.922   4.905  0.00  0.00    +0.290 A 
ATOM     20  N   LIG    1       -6.971  -2.052   5.381  0.00  0.00    -0.530 NA
ATOM     21  C   LIG    1       -6.096  -2.116   4.378  0.00  0.00    +0.230 A 
ATOM     22  N   LIG    1       -6.743  -2.035   3.245  0.00  0.00    -0.300 NA
ATOM     23  N   LIG    1       -8.105  -1.909   3.563  0.00  0.00    -0.480 N 
ATOM     24  H   LIG    1       -8.843  -1.828   2.938  0.00  0.00    +0.440 HD
ENDBRANCH  17  21
BRANCH  17  25
ATOM     25  C   LIG    1       -4.202  -3.675   4.188  0.00  0.00    -0.100 A 
ATOM     26  C   LIG    1       -4.080  -4.061   2.866  0.00  0.00    +0.030 A 
ATOM     27  C   LIG    1       -3.707  -5.356   2.556  0.00  0.00    +0.000 A 
ATOM     28  C   LIG    1       -3.466  -6.267   3.567  0.00  0.00    +0.010 A 
ATOM     29  C   LIG    1       -3.594  -5.882   4.889  0.00  0.00    +0.010 A 
ATOM     30  C   LIG    1       -3.962  -4.587   5.199  0.00  0.00    +0.040 A 
ENDBRANCH  17  25
ENDBRANCH   1  17
TORSDOF 5
