REMARK  Name = ZINCqH0000007jvq.0
REMARK                            x       y       z     vdW  Elec       q    Type
REMARK                         _______ _______ _______ _____ _____    ______ ____
ROOT
ATOM      1  C   LIG    1       -1.235   3.146   0.049  0.00  0.00    +0.130 A 
ATOM      2  C   LIG    1       -1.217   1.761   0.027  0.00  0.00    -0.050 A 
ATOM      3  C   LIG    1       -0.013   1.083   0.012  0.00  0.00    +0.040 A 
ATOM      4  C   LIG    1        1.183   1.789   0.007  0.00  0.00    +0.110 A 
ATOM      5  C   LIG    1        1.171   3.177   0.023  0.00  0.00    +0.080 A 
ATOM      6  C   LIG    1       -0.037   3.857   0.044  0.00  0.00    +0.120 A 
ENDROOT
BRANCH   6   7
ATOM      7  N   LIG    1       -0.053   5.258   0.062  0.00  0.00    -0.550 N 
ATOM      8  C   LIG    1       -0.074   5.957  -1.217  0.00  0.00    +0.270 C 
ATOM      9  C   LIG    1       -0.557   7.396  -1.033  0.00  0.00    +0.030 C 
ATOM     10  C   LIG    1        0.255   8.046   0.094  0.00  0.00    +0.020 C 
ATOM     11  C   LIG    1       -0.112   7.360   1.412  0.00  0.00    +0.070 C 
ATOM     12  C   LIG    1       -0.053   5.869   1.247  0.00  0.00    +0.520 C 
ATOM     13  O   LIG    1        0.002   5.183   2.246  0.00  0.00    -0.540 OA
ENDBRANCH   6   7
BRANCH   4  14
ATOM     14  N   LIG    1        2.402   1.100  -0.015  0.00  0.00    -0.660 N 
ATOM     15  H   LIG    1        2.492   0.258   0.458  0.00  0.00    +0.410 HD
ATOM     16  C   LIG    1        3.451   1.608  -0.691  0.00  0.00    +0.560 C 
ATOM     17  O   LIG    1        3.366   2.703  -1.213  0.00  0.00    -0.500 OA
BRANCH  16  18
ATOM     18  C   LIG    1        4.703   0.835  -0.799  0.00  0.00    -0.190 A 
ATOM     19  C   LIG    1        4.807  -0.421  -0.197  0.00  0.00    +0.120 A 
ATOM     20  C   LIG    1        5.976  -1.141  -0.305  0.00  0.00    -0.020 A 
ATOM     21  C   LIG    1        7.056  -0.618  -1.002  0.00  0.00    +0.160 A 
ATOM     22  C   LIG    1        6.964   0.630  -1.598  0.00  0.00    -0.040 A 
ATOM     23  F   LIG    1        8.201  -1.327  -1.099  0.00  0.00    -0.120 F 
ATOM     24  C   LIG    1        5.795   1.359  -1.502  0.00  0.00    +0.200 A 
ATOM     25  F   LIG    1        5.705   2.575  -2.083  0.00  0.00    -0.100 F 
ENDBRANCH  16  18
ENDBRANCH   4  14
BRANCH   1  27
ATOM     26  C   LIG    1       -3.610   3.018   0.072  0.00  0.00    +0.250 C 
ATOM     27  O   LIG    1       -2.421   3.811   0.069  0.00  0.00    -0.310 OA
ENDBRANCH   1  27
TORSDOF 4
