REMARK  Name = ZINCnE000004w2vG.0
REMARK                            x       y       z     vdW  Elec       q    Type
REMARK                         _______ _______ _______ _____ _____    ______ ____
ROOT
ATOM      1  N   LIG    1        3.218  -3.523  -0.895  0.00  0.00    -0.640 N 
ATOM      2  H   LIG    1        2.553  -4.178  -0.631  0.00  0.00    +0.430 HD
ATOM      3  C   LIG    1        2.936  -2.208  -0.818  0.00  0.00    +0.550 C 
ATOM      4  O   LIG    1        3.801  -1.386  -1.052  0.00  0.00    -0.520 OA
ENDROOT
BRANCH   3   5
ATOM      5  C   LIG    1        1.578  -1.765  -0.451  0.00  0.00    -0.150 A 
ATOM      6  C   LIG    1        0.585  -2.707  -0.182  0.00  0.00    +0.110 A 
ATOM      7  C   LIG    1       -0.686  -2.296   0.161  0.00  0.00    -0.020 A 
ATOM      8  C   LIG    1       -0.978  -0.944   0.243  0.00  0.00    +0.090 A 
ATOM      9  C   LIG    1       -0.004  -0.005  -0.017  0.00  0.00    -0.190 A 
ATOM     10  C   LIG    1       -0.022   1.511  -0.001  0.00  0.00    +0.020 C 
ATOM     11  C   LIG    1       -0.705   2.036   1.264  0.00  0.00    +0.040 C 
ATOM     12  C   LIG    1        1.488   1.849   0.006  0.00  0.00    +0.240 C 
ATOM     13  O   LIG    1        2.075   0.686  -0.604  0.00  0.00    -0.280 OA
ATOM     14  C   LIG    1        1.282  -0.392  -0.371  0.00  0.00    +0.170 A 
ENDBRANCH   3   5
BRANCH   1  19
ATOM     15  C   LIG    1        8.300  -5.218  -2.770  0.00  0.00    +0.080 C 
ATOM     16  C   LIG    1        6.950  -4.776  -2.267  0.00  0.00    -0.130 A 
ATOM     17  C   LIG    1        6.441  -3.545  -2.649  0.00  0.00    +0.010 A 
ATOM     18  C   LIG    1        5.206  -3.128  -2.196  0.00  0.00    -0.010 A 
ATOM     19  C   LIG    1        4.463  -3.942  -1.352  0.00  0.00    +0.180 A 
ATOM     20  C   LIG    1        4.977  -5.188  -0.959  0.00  0.00    -0.170 A 
ATOM     21  C   LIG    1        6.228  -5.599  -1.430  0.00  0.00    +0.070 A 
BRANCH  20  22
ATOM     22  C   LIG    1        4.203  -6.059  -0.060  0.00  0.00    +0.530 C 
ATOM     23  O   LIG    1        3.070  -5.740   0.274  0.00  0.00    -0.690 OA
ATOM     24  O   LIG    1        4.692  -7.102   0.353  0.00  0.00    -0.680 OA
ENDBRANCH  20  22
ENDBRANCH   1  19
TORSDOF 3
