REMARK  Name = ZINCkj00000kJAQs.1
REMARK                            x       y       z     vdW  Elec       q    Type
REMARK                         _______ _______ _______ _____ _____    ______ ____
ROOT
ATOM      1  C   LIG    1        0.073   1.019   0.135  0.00  0.00    +0.100 C 
ATOM      2  C   LIG    1       -0.767   1.608   1.270  0.00  0.00    +0.170 C 
ENDROOT
BRANCH   2   3
ATOM      3  N   LIG    1       -2.159   1.162   1.131  0.00  0.00    -0.390 N 
ATOM      4  C   LIG    1       -2.976   1.769   2.191  0.00  0.00    +0.240 C 
ATOM      5  C   LIG    1       -4.427   1.303   2.044  0.00  0.00    +0.220 C 
ATOM      6  O   LIG    1       -4.471  -0.126   2.099  0.00  0.00    -0.350 OA
ATOM      7  C   LIG    1       -3.671  -0.763   1.099  0.00  0.00    +0.160 C 
ATOM      8  C   LIG    1       -3.745  -2.281   1.276  0.00  0.00    +0.110 C 
ATOM      9  C   LIG    1       -4.984   1.780   0.701  0.00  0.00    +0.030 C 
ATOM     10  C   LIG    1       -2.219  -0.301   1.245  0.00  0.00    +0.240 C 
ATOM     11  H   LIG    1       -2.515   1.444   0.230  0.00  0.00    +0.410 HD
ENDBRANCH   2   3
BRANCH   2  12
ATOM     12  C   LIG    1       -0.711   3.136   1.206  0.00  0.00    +0.320 C 
BRANCH  12  13
ATOM     13  N   LIG    1       -1.357   3.596  -0.026  0.00  0.00    -0.750 N 
ATOM     14  H   LIG    1       -1.782   2.957  -0.619  0.00  0.00    +0.390 HD
ATOM     15  C   LIG    1       -1.363   4.909  -0.334  0.00  0.00    +0.570 C 
ATOM     16  O   LIG    1       -0.831   5.709   0.410  0.00  0.00    -0.500 OA
BRANCH  15  17
ATOM     17  C   LIG    1       -2.016   5.375  -1.579  0.00  0.00    -0.100 A 
ATOM     18  C   LIG    1       -2.628   4.469  -2.451  0.00  0.00    -0.020 A 
ATOM     19  C   LIG    1       -3.230   4.948  -3.599  0.00  0.00    +0.270 A 
ATOM     20  N   LIG    1       -3.224   6.236  -3.880  0.00  0.00    -0.460 NA
ATOM     21  C   LIG    1       -2.653   7.122  -3.088  0.00  0.00    +0.280 A 
ATOM     22  C   LIG    1       -2.033   6.731  -1.917  0.00  0.00    +0.040 A 
ENDBRANCH  15  17
ENDBRANCH  12  13
ENDBRANCH   2  12
TORSDOF 4
