REMARK  Name = ZINCrH000004lfFm.0
REMARK                            x       y       z     vdW  Elec       q    Type
REMARK                         _______ _______ _______ _____ _____    ______ ____
ROOT
ATOM      1  C   LIG    1        6.070   1.702  -0.053  0.00  0.00    -0.210 A 
ATOM      2  C   LIG    1        4.845   1.096  -0.039  0.00  0.00    +0.040 A 
ATOM      3  S   LIG    1        5.011  -0.598  -0.051  0.00  0.00    +0.300 S 
ATOM      4  C   LIG    1        6.764  -0.510  -0.067  0.00  0.00    -0.240 A 
ATOM      5  C   LIG    1        7.693  -1.709  -0.083  0.00  0.00    +0.120 C 
ATOM      6  C   LIG    1        9.089  -1.245  -0.507  0.00  0.00    +0.020 C 
ATOM      7  C   LIG    1        9.491  -0.033   0.337  0.00  0.00    +0.020 C 
ATOM      8  C   LIG    1        8.641   1.171  -0.075  0.00  0.00    +0.100 C 
ATOM      9  C   LIG    1        7.176   0.763  -0.064  0.00  0.00    -0.050 A 
ENDROOT
BRANCH   1  12
ATOM     10  N   LIG    1        6.316   3.827  -1.221  0.00  0.00    -0.720 N 
ATOM     11  H   LIG    1        6.247   3.347  -2.061  0.00  0.00    +0.400 HD
ATOM     12  C   LIG    1        6.249   3.157  -0.054  0.00  0.00    +0.580 C 
ATOM     13  O   LIG    1        6.336   3.760   1.000  0.00  0.00    -0.530 OA
BRANCH  10  14
ATOM     14  C   LIG    1        6.495   5.282  -1.222  0.00  0.00    +0.260 C 
BRANCH  14  15
ATOM     15  C   LIG    1        6.540   5.789  -2.664  0.00  0.00    +0.030 C 
BRANCH  15  16
ATOM     16  C   LIG    1        6.726   7.308  -2.665  0.00  0.00    +0.160 C 
BRANCH  16  18
ATOM     17  C   LIG    1        6.940   9.196  -4.126  0.00  0.00    +0.200 C 
ATOM     18  O   LIG    1        6.768   7.782  -4.012  0.00  0.00    -0.390 OA
ENDBRANCH  16  18
ENDBRANCH  15  16
ENDBRANCH  14  15
ENDBRANCH  10  14
ENDBRANCH   1  12
BRANCH   2  19
ATOM     19  N   LIG    1        3.633   1.768  -0.024  0.00  0.00    -0.630 N 
ATOM     20  H   LIG    1        3.617   2.738  -0.018  0.00  0.00    +0.420 HD
ATOM     21  C   LIG    1        2.478   1.075  -0.016  0.00  0.00    +0.560 C 
ATOM     22  O   LIG    1        2.498  -0.141  -0.024  0.00  0.00    -0.500 OA
BRANCH  21  23
ATOM     23  C   LIG    1        1.187   1.792   0.000  0.00  0.00    -0.150 A 
ATOM     24  C   LIG    1       -0.013   1.076   0.008  0.00  0.00    +0.130 A 
ATOM     25  C   LIG    1       -1.215   1.750   0.017  0.00  0.00    -0.010 A 
ATOM     26  C   LIG    1       -1.235   3.136   0.031  0.00  0.00    +0.140 A 
ATOM     27  C   LIG    1       -0.047   3.852   0.023  0.00  0.00    -0.010 A 
ATOM     28  F   LIG    1       -2.416   3.792   0.045  0.00  0.00    -0.130 F 
ATOM     29  C   LIG    1        1.160   3.188   0.008  0.00  0.00    +0.080 A 
ENDBRANCH  21  23
ENDBRANCH   2  19
TORSDOF 7
