REMARK  Name = ZINCrH000004ncQK.0
REMARK                            x       y       z     vdW  Elec       q    Type
REMARK                         _______ _______ _______ _____ _____    ______ ____
ROOT
ATOM      1  C   LIG    1        4.980   0.022   2.543  0.00  0.00    +0.520 C 
ATOM      2  N   LIG    1        4.322   0.253   1.389  0.00  0.00    -0.720 N 
ATOM      3  H   LIG    1        4.729   0.012   0.542  0.00  0.00    +0.400 HD
ATOM      4  O   LIG    1        4.471   0.323   3.602  0.00  0.00    -0.530 OA
ENDROOT
BRANCH   1  11
ATOM      5  C   LIG    1        8.237   1.754   0.123  0.00  0.00    +0.130 A 
ATOM      6  C   LIG    1        9.429   1.813   0.829  0.00  0.00    -0.070 A 
ATOM      7  C   LIG    1        9.566   1.110   2.013  0.00  0.00    +0.060 A 
ATOM      8  C   LIG    1        8.517   0.344   2.493  0.00  0.00    -0.120 A 
ATOM      9  C   LIG    1        8.416  -0.508   3.740  0.00  0.00    +0.080 C 
ATOM     10  C   LIG    1        6.905  -0.741   3.950  0.00  0.00    +0.070 C 
ATOM     11  C   LIG    1        6.347  -0.611   2.517  0.00  0.00    +0.050 C 
ATOM     12  C   LIG    1        7.327   0.284   1.788  0.00  0.00    -0.060 A 
ATOM     13  C   LIG    1        7.187   0.988   0.605  0.00  0.00    -0.010 A 
BRANCH   5  15
ATOM     14  C   LIG    1        9.221   3.215  -1.475  0.00  0.00    +0.250 C 
ATOM     15  O   LIG    1        8.098   2.446  -1.039  0.00  0.00    -0.320 OA
ENDBRANCH   5  15
ENDBRANCH   1  11
BRANCH   2  16
ATOM     16  C   LIG    1        2.993   0.869   1.415  0.00  0.00    +0.250 C 
BRANCH  16  17
ATOM     17  C   LIG    1        2.474   1.019  -0.017  0.00  0.00    +0.260 C 
BRANCH  17  18
ATOM     18  C   LIG    1        1.163   1.762   0.000  0.00  0.00    -0.110 A 
ATOM     19  C   LIG    1       -0.013   1.076   0.008  0.00  0.00    +0.020 A 
ATOM     20  C   LIG    1       -1.235   1.746   0.018  0.00  0.00    +0.010 A 
ATOM     21  C   LIG    1       -1.289   3.105   0.031  0.00  0.00    +0.030 A 
ATOM     22  C   LIG    1       -0.096   3.849   0.024  0.00  0.00    -0.050 A 
ATOM     23  C   LIG    1       -0.111   5.253   0.031  0.00  0.00    +0.030 A 
ATOM     24  C   LIG    1        1.064   5.940   0.023  0.00  0.00    +0.010 A 
ATOM     25  C   LIG    1        2.286   5.271   0.008  0.00  0.00    +0.010 A 
ATOM     26  C   LIG    1        2.340   3.910   0.000  0.00  0.00    +0.020 A 
ATOM     27  C   LIG    1        1.147   3.167   0.008  0.00  0.00    -0.040 A 
ENDBRANCH  17  18
BRANCH  17  28
ATOM     28  O   LIG    1        2.280  -0.275  -0.592  0.00  0.00    -0.550 OA
ATOM     29  H   LIG    1        1.646  -0.827  -0.114  0.00  0.00    +0.380 HD
ENDBRANCH  17  28
ENDBRANCH  16  17
ENDBRANCH   2  16
TORSDOF 6
