REMARK  Name = ZINCpk000000pDR6.0
REMARK                            x       y       z     vdW  Elec       q    Type
REMARK                         _______ _______ _______ _____ _____    ______ ____
ROOT
ATOM      1  C   LIG    1      -10.006   5.041   1.884  0.00  0.00    +0.280 C 
ENDROOT
BRANCH   1   2
ATOM      2  C   LIG    1      -11.162   5.306   0.954  0.00  0.00    -0.110 A 
ATOM      3  C   LIG    1      -11.697   4.274   0.205  0.00  0.00    +0.070 A 
ATOM      4  C   LIG    1      -12.757   4.517  -0.648  0.00  0.00    +0.010 A 
ATOM      5  C   LIG    1      -13.283   5.791  -0.752  0.00  0.00    +0.130 A 
ATOM      6  C   LIG    1      -12.748   6.823  -0.003  0.00  0.00    -0.670 A 
ATOM      7  C   LIG    1      -11.691   6.579   0.854  0.00  0.00    +0.150 A 
BRANCH   6   8
ATOM      8  S   LIG    1      -13.418   8.447  -0.136  0.00  0.00    +2.700 S 
ATOM      9  O   LIG    1      -14.054   8.516  -1.405  0.00  0.00    -0.960 OA
ATOM     10  O   LIG    1      -12.388   9.340   0.267  0.00  0.00    -0.960 OA
BRANCH   8  11
ATOM     11  N   LIG    1      -14.618   8.576   0.997  0.00  0.00    -1.250 NA
ATOM     12  H   LIG    1      -15.124   7.792   1.260  0.00  0.00    +0.420 HD
ATOM     13  H   LIG    1      -14.816   9.437   1.398  0.00  0.00    +0.420 HD
ENDBRANCH   8  11
ENDBRANCH   6   8
ENDBRANCH   1   2
BRANCH   1  14
ATOM     14  N   LIG    1       -9.066   4.118   1.244  0.00  0.00    -0.730 N 
ATOM     15  H   LIG    1       -9.377   3.509   0.556  0.00  0.00    +0.400 HD
ATOM     16  C   LIG    1       -7.769   4.114   1.611  0.00  0.00    +0.520 C 
ATOM     17  O   LIG    1       -7.381   4.875   2.472  0.00  0.00    -0.530 OA
BRANCH  16  18
ATOM     18  C   LIG    1       -6.802   3.164   0.953  0.00  0.00    +0.060 C 
BRANCH  18  19
ATOM     19  C   LIG    1       -5.407   3.363   1.548  0.00  0.00    +0.200 C 
BRANCH  19  20
ATOM     20  O   LIG    1       -4.490   2.462   0.924  0.00  0.00    -0.380 OA
BRANCH  20  21
ATOM     21  C   LIG    1       -3.150   2.567   1.410  0.00  0.00    +0.190 C 
BRANCH  21  22
ATOM     22  C   LIG    1       -2.261   1.562   0.675  0.00  0.00    +0.160 C 
ATOM     23  C   LIG    1       -0.809   1.621   1.229  0.00  0.00    +0.020 C 
ATOM     24  C   LIG    1       -0.013   1.086   0.008  0.00  0.00    +0.000 C 
ATOM     25  C   LIG    1       -0.827   1.631  -1.185  0.00  0.00    +0.190 C 
ATOM     26  O   LIG    1       -2.149   1.916  -0.712  0.00  0.00    -0.370 OA
ENDBRANCH  21  22
ENDBRANCH  20  21
ENDBRANCH  19  20
ENDBRANCH  18  19
ENDBRANCH  16  18
ENDBRANCH   1  14
BRANCH   1  28
ATOM     27  C   LIG    1       -9.372   4.267   4.173  0.00  0.00    +0.020 C 
ATOM     28  C   LIG    1      -10.527   4.421   3.182  0.00  0.00    +0.010 C 
ENDBRANCH   1  28
TORSDOF 10
