REMARK  Name = ZINCpk00000y6yeW.0
REMARK                            x       y       z     vdW  Elec       q    Type
REMARK                         _______ _______ _______ _____ _____    ______ ____
ROOT
ATOM      1  C   LIG    1       -0.973   2.027   0.353  0.00  0.00    +0.590 C 
ATOM      2  N   LIG    1        0.183   1.333   0.359  0.00  0.00    -0.600 N 
ATOM      3  C   LIG    1        0.305  -0.133   0.258  0.00  0.00    +0.240 C 
ATOM      4  C   LIG    1        1.725  -0.375  -0.311  0.00  0.00    +0.180 C 
ATOM      5  C   LIG    1        2.537   0.745   0.392  0.00  0.00    +0.090 C 
ATOM      6  C   LIG    1        1.530   1.912   0.459  0.00  0.00    +0.260 C 
ATOM      7  O   LIG    1       -2.024   1.456   0.136  0.00  0.00    -0.520 OA
ENDROOT
BRANCH   1  14
ATOM      8  C   LIG    1       -0.092   8.582   1.367  0.00  0.00    +0.390 C 
ATOM      9  N   LIG    1       -1.077   7.498   1.349  0.00  0.00    -0.380 N 
ATOM     10  N   LIG    1       -2.449   7.610   1.613  0.00  0.00    +0.010 NA
ATOM     11  N   LIG    1       -3.003   6.455   1.506  0.00  0.00    -0.200 NA
ATOM     12  C   LIG    1       -2.077   5.525   1.175  0.00  0.00    -0.080 A 
ATOM     13  C   LIG    1       -2.143   4.149   0.935  0.00  0.00    +0.250 A 
ATOM     14  C   LIG    1       -0.961   3.482   0.611  0.00  0.00    -0.210 A 
ATOM     15  C   LIG    1        0.234   4.206   0.528  0.00  0.00    +0.380 A 
ATOM     16  N   LIG    1        0.262   5.499   0.754  0.00  0.00    -0.480 NA
ATOM     17  C   LIG    1       -0.833   6.177   1.070  0.00  0.00    +0.290 A 
ENDBRANCH   1  14
BRANCH   6  18
ATOM     18  C   LIG    1        1.678   2.642   1.770  0.00  0.00    -0.090 A 
ATOM     19  C   LIG    1        1.039   2.168   2.900  0.00  0.00    +0.020 A 
ATOM     20  C   LIG    1        1.178   2.832   4.104  0.00  0.00    +0.050 A 
ATOM     21  C   LIG    1        1.947   3.978   4.177  0.00  0.00    -0.010 A 
ATOM     22  C   LIG    1        2.584   4.457   3.044  0.00  0.00    +0.110 A 
ATOM     23  F   LIG    1        3.336   5.577   3.113  0.00  0.00    -0.130 F 
ATOM     24  C   LIG    1        2.448   3.787   1.840  0.00  0.00    +0.000 A 
ENDBRANCH   6  18
BRANCH   4  25
ATOM     25  O   LIG    1        1.743  -0.207  -1.730  0.00  0.00    -0.560 OA
ATOM     26  H   LIG    1        1.170  -0.825  -2.206  0.00  0.00    +0.390 HD
ENDBRANCH   4  25
TORSDOF 3
