REMARK  Name = ZINCrD00000cVMLz.0
REMARK                            x       y       z     vdW  Elec       q    Type
REMARK                         _______ _______ _______ _____ _____    ______ ____
ROOT
ATOM      1  C   LIG    1       -3.583   0.619  -1.392  0.00  0.00    -0.100 A 
ATOM      2  C   LIG    1       -4.149  -0.575  -1.799  0.00  0.00    +0.040 A 
ATOM      3  C   LIG    1       -3.343  -1.670  -2.050  0.00  0.00    +0.040 A 
ATOM      4  C   LIG    1       -1.971  -1.569  -1.906  0.00  0.00    -0.100 A 
ATOM      5  C   LIG    1       -0.873  -2.582  -2.115  0.00  0.00    +0.340 C 
ATOM      6  N   LIG    1        0.403  -1.926  -1.813  0.00  0.00    -0.600 N 
ATOM      7  C   LIG    1        0.091  -0.545  -1.430  0.00  0.00    +0.330 C 
ATOM      8  C   LIG    1        1.628  -2.484  -1.877  0.00  0.00    +0.630 C 
ATOM      9  O   LIG    1        2.611  -1.825  -1.600  0.00  0.00    -0.510 OA
ATOM     10  C   LIG    1       -1.405  -0.375  -1.505  0.00  0.00    -0.110 A 
ATOM     11  C   LIG    1       -2.212   0.719  -1.248  0.00  0.00    +0.060 A 
ENDROOT
BRANCH   8  12
ATOM     12  C   LIG    1        1.775  -3.897  -2.283  0.00  0.00    +0.010 A 
ATOM     13  N   LIG    1        0.769  -4.682  -2.600  0.00  0.00    -0.550 NA
ATOM     14  S   LIG    1        1.340  -6.086  -2.969  0.00  0.00    +0.730 S 
ATOM     15  N   LIG    1        2.857  -5.796  -2.756  0.00  0.00    -0.570 NA
ATOM     16  C   LIG    1        2.998  -4.558  -2.383  0.00  0.00    +0.310 A 
ENDBRANCH   8  12
BRANCH   1  17
ATOM     17  C   LIG    1       -4.460   1.811  -1.111  0.00  0.00    +0.320 C 
BRANCH  17  19
ATOM     18  C   LIG    1       -5.387   3.708  -2.329  0.00  0.00    +0.520 C 
ATOM     19  N   LIG    1       -4.635   2.589  -2.340  0.00  0.00    -0.730 N 
ATOM     20  H   LIG    1       -4.209   2.299  -3.162  0.00  0.00    +0.400 HD
ATOM     21  O   LIG    1       -5.919   4.070  -1.301  0.00  0.00    -0.530 OA
BRANCH  18  22
ATOM     22  C   LIG    1       -5.566   4.508  -3.593  0.00  0.00    -0.010 C 
ATOM     23  C   LIG    1       -6.223   3.632  -4.662  0.00  0.00    +0.040 C 
BRANCH  22  24
ATOM     24  C   LIG    1       -6.457   5.719  -3.308  0.00  0.00    +0.010 C 
BRANCH  24  26
ATOM     25  C   LIG    1       -4.383   6.965  -2.682  0.00  0.00    +0.010 C 
ATOM     26  C   LIG    1       -5.800   6.595  -2.239  0.00  0.00    +0.020 C 
ENDBRANCH  24  26
BRANCH  24  27
ATOM     27  C   LIG    1       -6.639   6.531  -4.591  0.00  0.00    +0.000 C 
ATOM     28  C   LIG    1       -7.628   7.671  -4.338  0.00  0.00    +0.010 C 
ENDBRANCH  24  27
ENDBRANCH  22  24
ENDBRANCH  18  22
ENDBRANCH  17  19
ENDBRANCH   1  17
TORSDOF 7
