REMARK  Name = ZINCrg00000J3snf.0
REMARK                            x       y       z     vdW  Elec       q    Type
REMARK                         _______ _______ _______ _____ _____    ______ ____
ROOT
ATOM      1  C   LIG    1        1.032  -2.366  -2.232  0.00  0.00    +0.590 C 
ATOM      2  N   LIG    1        1.005  -2.657  -0.916  0.00  0.00    -0.610 N 
ATOM      3  C   LIG    1        1.762  -1.955   0.136  0.00  0.00    +0.270 C 
ATOM      4  C   LIG    1        1.895  -2.986   1.284  0.00  0.00    +0.040 C 
ATOM      5  C   LIG    1        0.520  -3.702   1.220  0.00  0.00    +0.070 C 
ATOM      6  C   LIG    1        0.214  -3.728  -0.292  0.00  0.00    +0.350 C 
ATOM      7  O   LIG    1        1.782  -1.504  -2.648  0.00  0.00    -0.520 OA
ENDROOT
BRANCH   1  15
ATOM      8  C   LIG    1       -4.010  -6.421  -7.004  0.00  0.00    +0.110 C 
ATOM      9  C   LIG    1       -3.214  -5.952  -5.813  0.00  0.00    +0.520 C 
ATOM     10  N   LIG    1       -2.237  -5.038  -5.973  0.00  0.00    -0.560 N 
ATOM     11  C   LIG    1       -1.787  -4.508  -7.263  0.00  0.00    +0.280 C 
ATOM     12  C   LIG    1       -0.669  -3.510  -6.921  0.00  0.00    +0.110 C 
ATOM     13  C   LIG    1       -0.569  -3.554  -5.412  0.00  0.00    -0.150 A 
ATOM     14  C   LIG    1        0.251  -2.870  -4.543  0.00  0.00    +0.130 A 
ATOM     15  C   LIG    1        0.152  -3.092  -3.167  0.00  0.00    -0.170 A 
ATOM     16  C   LIG    1       -0.791  -4.003  -2.683  0.00  0.00    +0.060 A 
ATOM     17  C   LIG    1       -1.609  -4.678  -3.557  0.00  0.00    +0.020 A 
ATOM     18  C   LIG    1       -1.507  -4.460  -4.935  0.00  0.00    +0.180 A 
ATOM     19  O   LIG    1       -3.453  -6.398  -4.711  0.00  0.00    -0.500 OA
ENDBRANCH   1  15
BRANCH   6  20
ATOM     20  C   LIG    1        0.610  -5.062  -0.872  0.00  0.00    +0.170 A 
ATOM     21  N   LIG    1       -0.195  -6.050  -1.170  0.00  0.00    -0.420 NA
ATOM     22  C   LIG    1        0.599  -7.031  -1.657  0.00  0.00    +0.140 A 
ATOM     23  N   LIG    1        1.826  -6.585  -1.627  0.00  0.00    -0.340 NA
ATOM     24  O   LIG    1        1.849  -5.458  -1.179  0.00  0.00    +0.110 OA
BRANCH  22  25
ATOM     25  C   LIG    1        0.157  -8.365  -2.136  0.00  0.00    +0.610 C 
ATOM     26  O   LIG    1       -1.021  -8.659  -2.113  0.00  0.00    -0.490 OA
ATOM     27  N   LIG    1        1.064  -9.249  -2.598  0.00  0.00    -0.830 N 
ATOM     28  H   LIG    1        0.776 -10.120  -2.911  0.00  0.00    +0.420 HD
ATOM     29  H   LIG    1        2.005  -9.013  -2.617  0.00  0.00    +0.410 HD
ENDBRANCH  22  25
ENDBRANCH   6  20
TORSDOF 3
