REMARK  Name = ZINCkj000005iKEA.0
REMARK                            x       y       z     vdW  Elec       q    Type
REMARK                         _______ _______ _______ _____ _____    ______ ____
ROOT
ATOM      1  C   LIG    1       -0.014   1.209   0.009  0.00  0.00    +0.510 C 
ATOM      2  N   LIG    1        1.143   1.898   0.001  0.00  0.00    -0.610 N 
ATOM      3  C   LIG    1        1.032   3.337   0.010  0.00  0.00    +0.270 C 
ATOM      4  C   LIG    1        2.364   4.038  -0.173  0.00  0.00    +0.030 C 
ATOM      5  C   LIG    1        3.484   3.323   0.581  0.00  0.00    +0.040 C 
ATOM      6  C   LIG    1        4.823   3.947   0.083  0.00  0.00    +0.270 C 
ATOM      7  N   LIG    1        4.997   3.389  -1.279  0.00  0.00    -0.520 N 
ATOM      8  C   LIG    1        4.277   2.097  -1.345  0.00  0.00    +0.260 C 
ATOM      9  H   LIG    1        5.978   3.241  -1.464  0.00  0.00    +0.430 HD
ATOM     10  H   LIG    1        4.614   4.028  -1.960  0.00  0.00    +0.430 HD
ATOM     11  C   LIG    1        3.638   1.889   0.036  0.00  0.00    +0.010 C 
ATOM     12  C   LIG    1        2.353   1.117  -0.009  0.00  0.00    +0.300 C 
ATOM     13  O   LIG    1        0.002  -0.004   0.002  0.00  0.00    -0.510 OA
ENDROOT
BRANCH   1  14
ATOM     14  C   LIG    1       -1.330   1.944   0.019  0.00  0.00    +0.120 C 
BRANCH  14  19
ATOM     15  C   LIG    1       -4.029  -0.414  -1.177  0.00  0.00    +0.130 A 
ATOM     16  C   LIG    1       -4.542  -0.877   0.026  0.00  0.00    -0.070 A 
ATOM     17  C   LIG    1       -4.013  -0.426   1.220  0.00  0.00    +0.050 A 
ATOM     18  C   LIG    1       -2.975   0.487   1.217  0.00  0.00    -0.020 A 
ATOM     19  C   LIG    1       -2.462   0.950   0.019  0.00  0.00    -0.040 A 
ATOM     20  C   LIG    1       -2.989   0.505  -1.178  0.00  0.00    -0.010 A 
BRANCH  15  22
ATOM     21  C   LIG    1       -5.619  -1.798  -2.276  0.00  0.00    +0.250 C 
ATOM     22  O   LIG    1       -4.547  -0.857  -2.353  0.00  0.00    -0.320 OA
ENDBRANCH  15  22
ENDBRANCH  14  19
ENDBRANCH   1  14
TORSDOF 3
