REMARK  Name = ZINCpe00000VVGkZ.0
REMARK                            x       y       z     vdW  Elec       q    Type
REMARK                         _______ _______ _______ _____ _____    ______ ____
ROOT
ATOM      1  N   LIG    1        4.048   0.755  -1.418  0.00  0.00    -0.560 NA
ATOM      2  C   LIG    1        5.460   0.383  -1.492  0.00  0.00    +0.180 C 
ATOM      3  C   LIG    1        5.698  -0.406  -2.760  0.00  0.00    +0.030 C 
ATOM      4  C   LIG    1        6.124   0.547  -3.890  0.00  0.00    +0.250 C 
ATOM      5  N   LIG    1        5.353   1.805  -3.849  0.00  0.00    -0.600 N 
ATOM      6  C   LIG    1        3.929   1.837  -3.587  0.00  0.00    +0.290 C 
ATOM      7  C   LIG    1        6.000   2.968  -4.064  0.00  0.00    +0.520 C 
ATOM      8  O   LIG    1        5.389   4.015  -4.036  0.00  0.00    -0.530 OA
ATOM      9  C   LIG    1        3.682   1.959  -2.064  0.00  0.00    +0.180 C 
ENDROOT
BRANCH   7  10
ATOM     10  C   LIG    1        7.481   2.967  -4.340  0.00  0.00    +0.000 C 
ATOM     11  C   LIG    1        7.964   4.404  -4.573  0.00  0.00    +0.060 C 
ATOM     12  C   LIG    1        9.490   4.398  -4.668  0.00  0.00    +0.260 C 
ATOM     13  N   LIG    1        9.937   3.394  -5.625  0.00  0.00    -0.610 N 
ATOM     14  C   LIG    1        9.190   2.369  -6.038  0.00  0.00    +0.520 C 
ATOM     15  O   LIG    1        9.684   1.571  -6.806  0.00  0.00    -0.550 OA
ATOM     16  C   LIG    1       11.293   3.518  -6.168  0.00  0.00    +0.280 C 
ATOM     17  C   LIG    1        7.771   2.149  -5.601  0.00  0.00    +0.090 C 
ENDBRANCH   7  10
BRANCH   1  18
ATOM     18  C   LIG    1        3.572   0.738  -0.028  0.00  0.00    +0.260 C 
BRANCH  18  21
ATOM     19  N   LIG    1        0.002  -0.004   0.002  0.00  0.00    -0.370 N 
ATOM     20  C   LIG    1        1.292  -0.402  -0.012  0.00  0.00    +0.250 A 
ATOM     21  C   LIG    1        2.066   0.708  -0.014  0.00  0.00    -0.240 A 
ATOM     22  C   LIG    1        1.220   1.822   0.000  0.00  0.00    +0.230 A 
ATOM     23  N   LIG    1       -0.017   1.397   0.010  0.00  0.00    -0.290 NA
BRANCH  19  25
ATOM     24  C   LIG    1       -2.063  -0.531   1.201  0.00  0.00    +0.040 C 
ATOM     25  C   LIG    1       -1.171  -0.882   0.009  0.00  0.00    +0.310 C 
ENDBRANCH  19  25
ENDBRANCH  18  21
ENDBRANCH   1  18
TORSDOF 4
