REMARK  Name = ZINCpk00000RjLce.0
REMARK                            x       y       z     vdW  Elec       q    Type
REMARK                         _______ _______ _______ _____ _____    ______ ____
ROOT
ATOM      1  C   LIG    1        0.867  -0.524   1.068  0.00  0.00    +0.030 C 
ATOM      2  C   LIG    1       -0.110   0.050   0.044  0.00  0.00    +0.180 C 
ATOM      3  O   LIG    1       -1.427  -0.430   0.338  0.00  0.00    -0.360 OA
ATOM      4  C   LIG    1       -1.575  -1.838   0.482  0.00  0.00    +0.210 C 
ATOM      5  C   LIG    1       -1.911  -2.187   1.935  0.00  0.00    +0.040 C 
ATOM      6  C   LIG    1       -0.662  -2.611   2.663  0.00  0.00    -0.040 C 
ATOM      7  C   LIG    1       -0.222  -1.908   3.678  0.00  0.00    -0.060 C 
ATOM      8  C   LIG    1        1.098  -2.242   4.324  0.00  0.00    +0.250 C 
ATOM      9  O   LIG    1        1.772  -1.033   4.678  0.00  0.00    -0.350 OA
ATOM     10  C   LIG    1        2.941  -0.749   3.910  0.00  0.00    +0.220 C 
ATOM     11  C   LIG    1        2.854   0.649   3.351  0.00  0.00    +0.500 C 
ATOM     12  N   LIG    1        3.296   0.893   2.090  0.00  0.00    -0.740 N 
ATOM     13  H   LIG    1        3.814   0.231   1.606  0.00  0.00    +0.410 HD
ATOM     14  C   LIG    1        2.942   2.184   1.477  0.00  0.00    +0.290 C 
ATOM     15  C   LIG    1        2.341   1.954   0.086  0.00  0.00    +0.280 C 
ATOM     16  N   LIG    1        0.939   2.352   0.092  0.00  0.00    -0.710 N 
ATOM     17  H   LIG    1        0.758   3.327   0.075  0.00  0.00    +0.410 HD
ATOM     18  O   LIG    1        2.395   1.546   4.025  0.00  0.00    -0.500 OA
ATOM     19  C   LIG    1       -0.127   1.552   0.114  0.00  0.00    +0.520 C 
ATOM     20  O   LIG    1       -1.230   2.092   0.194  0.00  0.00    -0.530 OA
ENDROOT
BRANCH  15  21
ATOM     21  C   LIG    1        3.089   2.824  -0.904  0.00  0.00    -0.140 A 
ATOM     22  C   LIG    1        2.614   4.083  -1.215  0.00  0.00    +0.050 A 
ATOM     23  C   LIG    1        3.300   4.879  -2.114  0.00  0.00    +0.020 A 
ATOM     24  C   LIG    1        4.455   4.411  -2.711  0.00  0.00    +0.060 A 
ATOM     25  C   LIG    1        4.930   3.150  -2.405  0.00  0.00    -0.010 A 
ATOM     26  C   LIG    1        4.247   2.354  -1.501  0.00  0.00    +0.110 A 
ATOM     27  F   LIG    1        4.710   1.121  -1.202  0.00  0.00    -0.140 F 
ENDBRANCH  15  21
TORSDOF 1
