REMARK  Name = ZINCrg00000NHPo1.0
REMARK                            x       y       z     vdW  Elec       q    Type
REMARK                         _______ _______ _______ _____ _____    ______ ____
ROOT
ATOM      1  C   LIG    1        4.943   1.242   0.151  0.00  0.00    +0.520 C 
ATOM      2  N   LIG    1        5.209   0.072   0.766  0.00  0.00    -0.720 N 
ATOM      3  H   LIG    1        4.557  -0.318   1.369  0.00  0.00    +0.400 HD
ATOM      4  O   LIG    1        5.758   1.729  -0.603  0.00  0.00    -0.540 OA
ENDROOT
BRANCH   1  10
ATOM      5  C   LIG    1       -1.186   3.052   0.027  0.00  0.00    +0.560 A 
ATOM      6  N   LIG    1       -0.070   3.763   0.020  0.00  0.00    -0.570 NA
ATOM      7  C   LIG    1        1.119   3.170   0.009  0.00  0.00    +0.230 A 
ATOM      8  C   LIG    1        1.178   1.794   0.000  0.00  0.00    -0.250 A 
ATOM      9  C   LIG    1        2.477   1.035  -0.022  0.00  0.00    +0.110 C 
ATOM     10  C   LIG    1        3.632   1.943   0.399  0.00  0.00    -0.010 C 
ATOM     11  C   LIG    1        3.569   3.228  -0.434  0.00  0.00    +0.070 C 
ATOM     12  C   LIG    1       -0.013   1.076   0.008  0.00  0.00    +0.370 A 
ATOM     13  C   LIG    1        2.350   4.035   0.010  0.00  0.00    +0.120 C 
ATOM     14  N   LIG    1       -1.162   1.727   0.017  0.00  0.00    -0.570 NA
BRANCH   5  15
ATOM     15  N   LIG    1       -2.406   3.706   0.039  0.00  0.00    -0.820 N 
ATOM     16  H   LIG    1       -3.230   3.196   0.044  0.00  0.00    +0.410 HD
ATOM     17  H   LIG    1       -2.436   4.676   0.043  0.00  0.00    +0.410 HD
ENDBRANCH   5  15
ENDBRANCH   1  10
BRANCH   2  18
ATOM     18  C   LIG    1        6.483  -0.609   0.525  0.00  0.00    +0.330 C 
BRANCH  18  19
ATOM     19  C   LIG    1        6.531  -1.884   1.327  0.00  0.00    -0.090 A 
ATOM     20  C   LIG    1        7.229  -1.927   2.517  0.00  0.00    +0.030 A 
ATOM     21  C   LIG    1        7.269  -3.095   3.256  0.00  0.00    +0.010 A 
ATOM     22  C   LIG    1        6.619  -4.227   2.801  0.00  0.00    +0.020 A 
ATOM     23  C   LIG    1        5.922  -4.193   1.608  0.00  0.00    -0.030 A 
ATOM     24  C   LIG    1        5.876  -3.020   0.866  0.00  0.00    +0.100 A 
BRANCH  24  25
ATOM     25  N   LIG    1        5.173  -2.982  -0.340  0.00  0.00    -0.490 N 
ATOM     26  C   LIG    1        5.719  -3.957  -1.301  0.00  0.00    +0.200 C 
ATOM     27  C   LIG    1        4.561  -4.886  -1.718  0.00  0.00    -0.020 C 
ATOM     28  C   LIG    1        3.301  -4.036  -1.407  0.00  0.00    +0.170 C 
ATOM     29  C   LIG    1        3.741  -3.282  -0.128  0.00  0.00    +0.210 C 
BRANCH  28  30
ATOM     30  O   LIG    1        2.171  -4.871  -1.146  0.00  0.00    -0.560 OA
ATOM     31  H   LIG    1        1.919  -5.435  -1.890  0.00  0.00    +0.380 HD
ENDBRANCH  28  30
ENDBRANCH  24  25
ENDBRANCH  18  19
ENDBRANCH   2  18
TORSDOF 6
