REMARK  Name = ZINCpk00000y6y2c.0
REMARK                            x       y       z     vdW  Elec       q    Type
REMARK                         _______ _______ _______ _____ _____    ______ ____
ROOT
ATOM      1  C   LIG    1        0.397  -2.116  -1.149  0.00  0.00    +0.250 C 
ENDROOT
BRANCH   1   2
ATOM      2  C   LIG    1        1.664  -2.747  -0.633  0.00  0.00    +0.500 C 
ATOM      3  N   LIG    1        2.014  -3.984  -1.038  0.00  0.00    -0.610 N 
ATOM      4  C   LIG    1        3.178  -4.604  -0.444  0.00  0.00    +0.290 C 
ATOM      5  C   LIG    1        4.439  -4.236  -1.253  0.00  0.00    -0.020 C 
ATOM      6  C   LIG    1        4.432  -4.926  -2.552  0.00  0.00    +0.160 C 
ATOM      7  C   LIG    1        3.271  -4.539  -3.463  0.00  0.00    +0.050 C 
ATOM      8  C   LIG    1        2.063  -5.375  -3.117  0.00  0.00    -0.070 C 
ATOM      9  C   LIG    1        1.236  -5.619  -4.381  0.00  0.00    +0.040 C 
ATOM     10  C   LIG    1        2.523  -6.719  -2.548  0.00  0.00    +0.030 C 
ATOM     11  C   LIG    1        1.198  -4.648  -2.073  0.00  0.00    +0.260 C 
ATOM     12  O   LIG    1        2.369  -2.142   0.147  0.00  0.00    -0.500 OA
BRANCH   6  13
ATOM     13  O   LIG    1        5.656  -4.630  -3.227  0.00  0.00    -0.570 OA
ATOM     14  H   LIG    1        6.449  -4.847  -2.717  0.00  0.00    +0.380 HD
ENDBRANCH   6  13
ENDBRANCH   1   2
BRANCH   1  17
ATOM     15  C   LIG    1        0.381   1.116   0.902  0.00  0.00    +0.090 C 
ATOM     16  C   LIG    1        0.407  -0.342   0.521  0.00  0.00    +0.520 C 
ATOM     17  N   LIG    1        0.371  -0.699  -0.778  0.00  0.00    -0.720 N 
ATOM     18  H   LIG    1        0.327  -0.018  -1.468  0.00  0.00    +0.410 HD
ATOM     19  O   LIG    1        0.462  -1.193   1.383  0.00  0.00    -0.520 OA
ENDBRANCH   1  17
BRANCH   1  20
ATOM     20  C   LIG    1       -0.812  -2.826  -0.536  0.00  0.00    +0.090 C 
BRANCH  20  21
ATOM     21  C   LIG    1       -2.077  -2.283  -1.149  0.00  0.00    -0.090 A 
ATOM     22  C   LIG    1       -2.716  -1.202  -0.570  0.00  0.00    +0.030 A 
ATOM     23  C   LIG    1       -3.873  -0.700  -1.134  0.00  0.00    -0.010 A 
ATOM     24  C   LIG    1       -4.400  -1.287  -2.275  0.00  0.00    +0.100 A 
ATOM     25  C   LIG    1       -3.760  -2.376  -2.850  0.00  0.00    -0.010 A 
ATOM     26  C   LIG    1       -2.600  -2.871  -2.286  0.00  0.00    +0.030 A 
BRANCH  24  27
ATOM     27  O   LIG    1       -5.541  -0.799  -2.827  0.00  0.00    -0.500 OA
ATOM     28  H   LIG    1       -6.349  -1.204  -2.484  0.00  0.00    +0.390 HD
ENDBRANCH  24  27
ENDBRANCH  20  21
ENDBRANCH   1  20
TORSDOF 6
