REMARK  Name = ZINCpe000000TDPe.0
REMARK                            x       y       z     vdW  Elec       q    Type
REMARK                         _______ _______ _______ _____ _____    ______ ____
ROOT
ATOM      1  C   LIG    1       -1.333  -0.927  -0.690  0.00  0.00    -0.270 C 
ATOM      2  C   LIG    1       -1.257  -2.130  -0.082  0.00  0.00    +0.230 C 
ATOM      3  N   LIG    1       -2.308  -2.624   0.638  0.00  0.00    -0.650 N 
ATOM      4  H   LIG    1       -2.205  -3.491   1.061  0.00  0.00    +0.420 HD
ATOM      5  C   LIG    1       -3.472  -1.981   0.788  0.00  0.00    +0.710 C 
ATOM      6  N   LIG    1       -3.701  -0.773   0.236  0.00  0.00    -0.720 N 
ATOM      7  H   LIG    1       -4.553  -0.325   0.357  0.00  0.00    +0.440 HD
ATOM      8  O   LIG    1       -4.352  -2.504   1.444  0.00  0.00    -0.560 OA
ATOM      9  C   LIG    1       -2.628  -0.150  -0.557  0.00  0.00    +0.320 C 
ENDROOT
BRANCH   1  10
ATOM     10  C   LIG    1       -0.244  -0.412  -1.431  0.00  0.00    +0.540 C 
ATOM     11  O   LIG    1        0.739  -1.102  -1.627  0.00  0.00    -0.520 OA
BRANCH  10  12
ATOM     12  O   LIG    1       -0.296   0.844  -1.921  0.00  0.00    -0.350 OA
BRANCH  12  14
ATOM     13  C   LIG    1        0.600   2.735  -3.131  0.00  0.00    +0.070 C 
ATOM     14  C   LIG    1        0.840   1.299  -2.660  0.00  0.00    +0.200 C 
ENDBRANCH  12  14
ENDBRANCH  10  12
ENDBRANCH   1  10
BRANCH   2  15
ATOM     15  C   LIG    1        0.010  -2.939  -0.194  0.00  0.00    +0.420 C 
BRANCH  15  16
ATOM     16  N   LIG    1        0.095  -3.873   0.932  0.00  0.00    -0.560 N 
ATOM     17  C   LIG    1       -0.442  -5.115   0.817  0.00  0.00    +0.550 A 
ATOM     18  N   LIG    1       -0.407  -5.999   1.768  0.00  0.00    -0.500 NA
ATOM     19  C   LIG    1        0.179  -5.735   2.963  0.00  0.00    +0.140 A 
ATOM     20  C   LIG    1        0.218  -6.684   3.985  0.00  0.00    +0.040 A 
ATOM     21  C   LIG    1        0.824  -6.373   5.182  0.00  0.00    +0.070 A 
ATOM     22  C   LIG    1        1.397  -5.125   5.386  0.00  0.00    -0.100 A 
ATOM     23  C   LIG    1        1.372  -4.171   4.392  0.00  0.00    +0.090 A 
ATOM     24  C   LIG    1        2.054  -4.811   6.706  0.00  0.00    +0.100 C 
ATOM     25  C   LIG    1        0.764  -4.466   3.174  0.00  0.00    -0.190 A 
ATOM     26  C   LIG    1        0.712  -3.491   2.074  0.00  0.00    +0.550 A 
ATOM     27  O   LIG    1        1.200  -2.382   2.189  0.00  0.00    -0.500 OA
ENDBRANCH  15  16
ENDBRANCH   2  15
TORSDOF 5
