REMARK  Name = ZINCqH000003933N.0
REMARK                            x       y       z     vdW  Elec       q    Type
REMARK                         _______ _______ _______ _____ _____    ______ ____
ROOT
ATOM      1  C   LIG    1       -4.013   2.800   2.402  0.00  0.00    +0.040 A 
ATOM      2  C   LIG    1       -4.743   3.248   3.454  0.00  0.00    +0.190 A 
ATOM      3  N   LIG    1       -6.050   3.251   3.075  0.00  0.00    -0.330 N 
ATOM      4  N   LIG    1       -6.115   2.790   1.754  0.00  0.00    -0.270 NA
ATOM      5  C   LIG    1       -4.899   2.526   1.349  0.00  0.00    +0.290 A 
ENDROOT
BRANCH   1   9
ATOM      6  N   LIG    1       -0.673   2.036   1.224  0.00  0.00    -0.740 N 
ATOM      7  H   LIG    1       -0.142   2.257   2.005  0.00  0.00    +0.400 HD
ATOM      8  C   LIG    1       -2.012   2.186   1.254  0.00  0.00    +0.710 C 
ATOM      9  N   LIG    1       -2.614   2.643   2.370  0.00  0.00    -0.660 N 
ATOM     10  H   LIG    1       -2.083   2.864   3.151  0.00  0.00    +0.410 HD
ATOM     11  O   LIG    1       -2.677   1.908   0.275  0.00  0.00    -0.570 OA
BRANCH   6  16
ATOM     12  C   LIG    1        1.477   1.939  -0.002  0.00  0.00    +0.120 C 
ATOM     13  C   LIG    1        2.107   0.881  -0.942  0.00  0.00    +0.060 C 
ATOM     14  C   LIG    1        1.353  -0.422  -0.604  0.00  0.00    +0.030 C 
ATOM     15  C   LIG    1        0.002  -0.004   0.002  0.00  0.00    +0.020 C 
ATOM     16  C   LIG    1       -0.019   1.538   0.011  0.00  0.00    +0.280 C 
BRANCH  12  18
ATOM     17  N   LIG    1        1.784   4.339  -0.974  0.00  0.00    -0.420 NA
ATOM     18  C   LIG    1        1.651   3.294  -0.550  0.00  0.00    +0.200 C 
ENDBRANCH  12  18
ENDBRANCH   6  16
ENDBRANCH   1   9
BRANCH   3  19
ATOM     19  C   LIG    1       -7.138   3.643   3.867  0.00  0.00    +0.170 A 
ATOM     20  C   LIG    1       -6.930   4.076   5.169  0.00  0.00    +0.030 A 
ATOM     21  C   LIG    1       -8.004   4.466   5.945  0.00  0.00    +0.060 A 
ATOM     22  C   LIG    1       -9.286   4.418   5.429  0.00  0.00    +0.060 A 
ATOM     23  C   LIG    1       -9.496   3.983   4.133  0.00  0.00    -0.160 A 
ATOM     24  C   LIG    1       -8.427   3.596   3.351  0.00  0.00    +0.070 A 
BRANCH  23  25
ATOM     25  C   LIG    1      -10.895   3.932   3.574  0.00  0.00    +0.510 C 
ATOM     26  F   LIG    1      -10.853   4.143   2.192  0.00  0.00    -0.170 F 
ATOM     27  F   LIG    1      -11.674   4.928   4.174  0.00  0.00    -0.170 F 
ATOM     28  F   LIG    1      -11.457   2.678   3.837  0.00  0.00    -0.170 F 
ENDBRANCH  23  25
ENDBRANCH   3  19
TORSDOF 5
