REMARK  Name = ZINCrD00000lcV25.0
REMARK                            x       y       z     vdW  Elec       q    Type
REMARK                         _______ _______ _______ _____ _____    ______ ____
ROOT
ATOM      1  N   LIG    1       -3.292   2.851  -2.050  0.00  0.00    -0.730 N 
ATOM      2  H   LIG    1       -3.531   2.074  -1.521  0.00  0.00    +0.400 HD
ATOM      3  C   LIG    1       -3.217   2.755  -3.392  0.00  0.00    +0.520 C 
ATOM      4  O   LIG    1       -2.918   3.726  -4.054  0.00  0.00    -0.530 OA
ENDROOT
BRANCH   3   5
ATOM      5  C   LIG    1       -3.505   1.440  -4.071  0.00  0.00    -0.010 C 
ATOM      6  C   LIG    1       -2.516   0.381  -3.575  0.00  0.00    +0.050 C 
ATOM      7  C   LIG    1       -2.774  -0.935  -4.311  0.00  0.00    +0.210 C 
ATOM      8  N   LIG    1       -2.614  -0.729  -5.756  0.00  0.00    -0.470 N 
ATOM      9  C   LIG    1       -3.584   0.249  -6.264  0.00  0.00    +0.220 C 
ATOM     10  C   LIG    1       -3.351   1.601  -5.585  0.00  0.00    +0.060 C 
BRANCH   8  11
ATOM     11  C   LIG    1       -2.712  -1.933  -6.446  0.00  0.00    +0.260 A 
ATOM     12  C   LIG    1       -1.875  -2.998  -6.117  0.00  0.00    +0.040 A 
ATOM     13  C   LIG    1       -2.012  -4.176  -6.834  0.00  0.00    +0.080 A 
ATOM     14  C   LIG    1       -2.974  -4.223  -7.835  0.00  0.00    +0.090 A 
ATOM     15  N   LIG    1       -3.724  -3.166  -8.078  0.00  0.00    -0.200 NA
ATOM     16 CL   LIG    1       -3.190  -5.673  -8.765  0.00  0.00    -0.000 Cl
ATOM     17  N   LIG    1       -3.605  -2.074  -7.414  0.00  0.00    -0.260 NA
ENDBRANCH   8  11
ENDBRANCH   3   5
BRANCH   1  19
ATOM     18  C   LIG    1       -4.281   4.984  -1.376  0.00  0.00    +0.040 C 
ATOM     19  C   LIG    1       -3.012   4.129  -1.391  0.00  0.00    +0.240 C 
BRANCH  19  20
ATOM     20  C   LIG    1       -2.554   3.872   0.046  0.00  0.00    +0.100 C 
BRANCH  20  21
ATOM     21  C   LIG    1       -1.240   3.136   0.030  0.00  0.00    -0.150 A 
ATOM     22  C   LIG    1       -1.221   1.752   0.017  0.00  0.00    +0.130 A 
ATOM     23  C   LIG    1       -0.013   1.076   0.008  0.00  0.00    -0.020 A 
ATOM     24  C   LIG    1        1.175   1.783   0.000  0.00  0.00    +0.090 A 
ATOM     25  C   LIG    1        1.158   3.165   0.009  0.00  0.00    -0.020 A 
ATOM     26  F   LIG    1       -2.382   1.060   0.019  0.00  0.00    -0.130 F 
ATOM     27  C   LIG    1       -0.050   3.843   0.023  0.00  0.00    +0.130 A 
ATOM     28  F   LIG    1       -0.066   5.194   0.030  0.00  0.00    -0.130 F 
ENDBRANCH  20  21
ENDBRANCH  19  20
ENDBRANCH   1  19
TORSDOF 5
