REMARK  Name = ZINCnE000001P1Y0.0
REMARK                            x       y       z     vdW  Elec       q    Type
REMARK                         _______ _______ _______ _____ _____    ______ ____
ROOT
ATOM      1  N   LIG    1       -1.313  -3.109   2.926  0.00  0.00    -0.480 NA
ATOM      2  C   LIG    1       -1.950  -1.877   3.459  0.00  0.00    +0.150 C 
ATOM      3  C   LIG    1       -3.110  -2.388   4.340  0.00  0.00    +0.020 C 
ATOM      4  C   LIG    1       -2.706  -3.822   4.742  0.00  0.00    +0.040 C 
ATOM      5  C   LIG    1       -1.336  -4.056   4.071  0.00  0.00    +0.220 C 
ENDROOT
BRANCH   5   6
ATOM      6  C   LIG    1       -1.227  -5.476   3.579  0.00  0.00    +0.300 A 
ATOM      7  N   LIG    1       -1.963  -5.855   2.552  0.00  0.00    -0.500 NA
ATOM      8  C   LIG    1       -1.896  -7.089   2.085  0.00  0.00    +0.340 A 
ATOM      9  C   LIG    1       -1.034  -8.002   2.707  0.00  0.00    -0.230 A 
ATOM     10  C   LIG    1       -0.276  -7.557   3.798  0.00  0.00    +0.340 A 
ATOM     11  N   LIG    1       -0.403  -6.303   4.194  0.00  0.00    -0.530 NA
BRANCH   9  12
ATOM     12  C   LIG    1       -0.927  -9.393   2.226  0.00  0.00    +0.530 C 
ATOM     13  O   LIG    1       -1.597  -9.763   1.272  0.00  0.00    -0.680 OA
ATOM     14  O   LIG    1       -0.169 -10.175   2.781  0.00  0.00    -0.680 OA
ENDBRANCH   9  12
ENDBRANCH   5   6
BRANCH   1  15
ATOM     15  C   LIG    1        0.064  -2.843   2.490  0.00  0.00    +0.210 C 
BRANCH  15  21
ATOM     16  C   LIG    1       -0.018   1.503   0.010  0.00  0.00    +0.100 C 
ATOM     17  C   LIG    1        0.002  -0.004   0.002  0.00  0.00    -0.080 A 
ATOM     18  C   LIG    1       -0.006  -0.689  -1.198  0.00  0.00    +0.010 A 
ATOM     19  C   LIG    1        0.018  -2.072  -1.206  0.00  0.00    -0.030 A 
ATOM     20  C   LIG    1        0.039  -2.769  -0.011  0.00  0.00    +0.040 A 
ATOM     21  C   LIG    1        0.042  -2.084   1.189  0.00  0.00    -0.050 A 
ATOM     22 CL   LIG    1        0.014  -2.932  -2.714  0.00  0.00    -0.070 Cl
ATOM     23  C   LIG    1        0.023  -0.702   1.196  0.00  0.00    +0.010 A 
ENDBRANCH  15  21
ENDBRANCH   1  15
TORSDOF 4
