REMARK  Name = ZINCrg00001JduTU.0
REMARK                            x       y       z     vdW  Elec       q    Type
REMARK                         _______ _______ _______ _____ _____    ______ ____
ROOT
ATOM      1  C   LIG    1       -3.148   7.632   5.447  0.00  0.00    +0.230 C 
ATOM      2  C   LIG    1       -3.080   9.129   5.767  0.00  0.00    +0.220 C 
ATOM      3  O   LIG    1       -3.917   9.409   6.892  0.00  0.00    -0.380 OA
ATOM      4  C   LIG    1       -5.303   9.135   6.673  0.00  0.00    +0.220 C 
ATOM      5  C   LIG    1       -5.485   7.638   6.400  0.00  0.00    +0.260 C 
ATOM      6  N   LIG    1       -4.563   7.248   5.321  0.00  0.00    -0.590 N 
ATOM      7  C   LIG    1       -5.002   6.559   4.249  0.00  0.00    +0.620 C 
ATOM      8  O   LIG    1       -4.210   6.157   3.418  0.00  0.00    -0.520 OA
ENDROOT
BRANCH   7   9
ATOM      9  C   LIG    1       -6.446   6.293   4.082  0.00  0.00    -0.010 A 
ATOM     10  N   LIG    1       -7.422   6.762   4.834  0.00  0.00    -0.260 NA
ATOM     11  N   LIG    1       -8.554   6.330   4.407  0.00  0.00    -0.380 N 
ATOM     12  H   LIG    1       -9.414   6.543   4.802  0.00  0.00    +0.450 HD
ATOM     13  C   LIG    1       -8.374   5.538   3.328  0.00  0.00    +0.180 A 
ATOM     14  C   LIG    1       -7.044   5.490   3.082  0.00  0.00    -0.140 A 
ATOM     15  C   LIG    1       -6.347   4.738   1.978  0.00  0.00    +0.130 C 
ENDBRANCH   7   9
BRANCH   1  16
ATOM     16  C   LIG    1       -2.419   7.352   4.132  0.00  0.00    +0.060 C 
BRANCH  16  19
ATOM     17  N   LIG    1       -1.461   5.400   2.953  0.00  0.00    -0.730 N 
ATOM     18  H   LIG    1       -1.199   6.000   2.237  0.00  0.00    +0.400 HD
ATOM     19  C   LIG    1       -2.106   5.881   4.034  0.00  0.00    +0.560 C 
ATOM     20  O   LIG    1       -2.433   5.131   4.928  0.00  0.00    -0.550 OA
BRANCH  17  21
ATOM     21  C   LIG    1       -1.156   3.970   2.858  0.00  0.00    +0.260 C 
BRANCH  21  22
ATOM     22  C   LIG    1       -0.427   3.691   1.542  0.00  0.00    +0.100 C 
BRANCH  22  23
ATOM     23  C   LIG    1       -0.108   2.197   1.443  0.00  0.00    +0.030 C 
ATOM     24  N   LIG    1        0.096   1.440   2.680  0.00  0.00    -0.120 NA
ATOM     25  N   LIG    1       -0.994   1.245   2.118  0.00  0.00    -0.120 NA
BRANCH  23  26
ATOM     26  C   LIG    1        0.625   1.745   0.179  0.00  0.00    +0.120 C 
BRANCH  26  27
ATOM     27  C   LIG    1        0.864   0.235   0.240  0.00  0.00    +0.160 C 
BRANCH  27  29
ATOM     28  C   LIG    1        2.133  -0.547  -1.946  0.00  0.00    +0.030 C 
ATOM     29  C   LIG    1        1.570  -0.200  -0.976  0.00  0.00    -0.190 C 
ENDBRANCH  27  29
ENDBRANCH  26  27
ENDBRANCH  23  26
ENDBRANCH  22  23
ENDBRANCH  21  22
ENDBRANCH  17  21
ENDBRANCH  16  19
ENDBRANCH   1  16
TORSDOF 9
