REMARK  Name = ZINCbw0000000HhO.0
REMARK                            x       y       z     vdW  Elec       q    Type
REMARK                         _______ _______ _______ _____ _____    ______ ____
ROOT
ATOM      1  C   LIG    1        1.175   1.783   0.000  0.00  0.00    -0.070 A 
ATOM      2  C   LIG    1        1.156   3.165   0.009  0.00  0.00    +0.020 A 
ATOM      3  C   LIG    1       -0.050   3.841   0.023  0.00  0.00    +0.040 A 
ATOM      4  C   LIG    1       -1.238   3.135   0.030  0.00  0.00    +0.030 A 
ATOM      5  C   LIG    1       -1.220   1.751   0.017  0.00  0.00    -0.030 A 
ATOM      6 CL   LIG    1       -2.712   0.863   0.019  0.00  0.00    -0.060 Cl
ATOM      7  C   LIG    1       -0.013   1.076   0.008  0.00  0.00    +0.040 A 
ENDROOT
BRANCH   1   9
ATOM      8  C   LIG    1        3.299   1.421   1.228  0.00  0.00    +0.070 C 
ATOM      9  C   LIG    1        2.490   1.048  -0.016  0.00  0.00    -0.020 C 
BRANCH   9  10
ATOM     10  C   LIG    1        3.264   1.429  -1.252  0.00  0.00    +0.450 C 
ATOM     11  O   LIG    1        3.575   0.582  -2.054  0.00  0.00    -0.450 OA
ENDBRANCH   9  10
ENDBRANCH   1   9
TORSDOF 2
