REMARK  Name = ZINCpk00000y6w06.0
REMARK                            x       y       z     vdW  Elec       q    Type
REMARK                         _______ _______ _______ _____ _____    ______ ____
ROOT
ATOM      1  C   LIG    1        4.162  -0.231  -0.537  0.00  0.00    +0.610 C 
ATOM      2  N   LIG    1        2.817  -0.316  -0.540  0.00  0.00    -0.610 N 
ATOM      3  C   LIG    1        1.888   0.793  -0.282  0.00  0.00    +0.260 C 
ATOM      4  C   LIG    1        0.457   0.221  -0.362  0.00  0.00    +0.080 C 
ATOM      5  C   LIG    1        0.674  -1.293  -0.101  0.00  0.00    +0.100 C 
ATOM      6  C   LIG    1        2.034  -1.538  -0.800  0.00  0.00    +0.270 C 
ATOM      7  O   LIG    1        4.835  -1.219  -0.764  0.00  0.00    -0.540 OA
ENDROOT
BRANCH   1  11
ATOM      8  N   LIG    1        6.352   2.597   0.060  0.00  0.00    -0.350 N 
ATOM      9  N   LIG    1        5.094   3.191   0.207  0.00  0.00    -0.290 NA
ATOM     10  C   LIG    1        4.174   2.286   0.019  0.00  0.00    +0.270 A 
ATOM     11  C   LIG    1        4.819   1.060  -0.261  0.00  0.00    -0.300 A 
ATOM     12  C   LIG    1        6.178   1.296  -0.220  0.00  0.00    +0.160 A 
ATOM     13  C   LIG    1        7.267   0.280  -0.451  0.00  0.00    +0.170 C 
BRANCH   8  14
ATOM     14  C   LIG    1        7.642   3.279   0.195  0.00  0.00    +0.260 C 
BRANCH  14  16
ATOM     15  C   LIG    1        7.725   3.808  -2.246  0.00  0.00    +0.020 C 
ATOM     16  C   LIG    1        7.734   4.405  -0.837  0.00  0.00    +0.040 C 
ENDBRANCH  14  16
BRANCH  14  17
ATOM     17  C   LIG    1        7.764   3.866   1.603  0.00  0.00    +0.020 C 
ATOM     18  C   LIG    1        9.162   4.457   1.789  0.00  0.00    +0.030 C 
ENDBRANCH  14  17
ENDBRANCH   8  14
ENDBRANCH   1  11
BRANCH   5  19
ATOM     19  O   LIG    1        0.760  -1.564   1.300  0.00  0.00    -0.540 OA
ATOM     20  H   LIG    1        0.895  -2.498   1.512  0.00  0.00    +0.380 HD
ENDBRANCH   5  19
BRANCH   5  21
ATOM     21  C   LIG    1       -0.434  -2.126  -0.750  0.00  0.00    +0.330 C 
BRANCH  21  22
ATOM     22  N   LIG    1       -0.197  -3.546  -0.483  0.00  0.00    -0.300 N 
ATOM     23  C   LIG    1       -1.072  -4.401   0.096  0.00  0.00    +0.140 A 
ATOM     24  C   LIG    1       -0.450  -5.602   0.146  0.00  0.00    +0.140 A 
ATOM     25  N   LIG    1        0.763  -5.424  -0.391  0.00  0.00    -0.260 NA
ATOM     26  N   LIG    1        0.881  -4.195  -0.753  0.00  0.00    -0.080 NA
ENDBRANCH  21  22
ENDBRANCH   5  21
TORSDOF 7
