REMARK  Name = ZINCrg00000Blmu5.0
REMARK                            x       y       z     vdW  Elec       q    Type
REMARK                         _______ _______ _______ _____ _____    ______ ____
ROOT
ATOM      1  C   LIG    1        3.389  -2.349   0.242  0.00  0.00    +0.240 C 
ATOM      2  C   LIG    1        3.806  -0.865   0.182  0.00  0.00    +0.280 C 
ATOM      3  N   LIG    1        2.573  -0.069   0.081  0.00  0.00    -0.610 N 
ATOM      4  C   LIG    1        1.417  -0.984   0.106  0.00  0.00    +0.260 C 
ATOM      5  C   LIG    1        2.510   1.274  -0.014  0.00  0.00    +0.600 C 
ATOM      6  O   LIG    1        3.533   1.925  -0.114  0.00  0.00    -0.500 OA
ATOM      7  C   LIG    1        1.976  -2.340  -0.398  0.00  0.00    +0.200 C 
ATOM      8  F   LIG    1        1.204  -3.406   0.075  0.00  0.00    -0.190 F 
ENDROOT
BRANCH   5   9
ATOM      9  C   LIG    1        1.202   1.953   0.003  0.00  0.00    -0.200 A 
ATOM     10  C   LIG    1        0.479   2.101   1.185  0.00  0.00    +0.140 A 
ATOM     11  C   LIG    1       -0.756   2.757   1.122  0.00  0.00    +0.230 A 
ATOM     12  N   LIG    1       -1.208   3.215  -0.013  0.00  0.00    -0.200 NA
ATOM     13  N   LIG    1       -0.566   3.101  -1.118  0.00  0.00    -0.440 N 
ATOM     14  H   LIG    1       -0.955   3.466  -1.928  0.00  0.00    +0.450 HD
ATOM     15  C   LIG    1        0.629   2.484  -1.186  0.00  0.00    +0.500 A 
ATOM     16  O   LIG    1        1.214   2.387  -2.251  0.00  0.00    -0.510 OA
ENDBRANCH   5   9
BRANCH   1  19
ATOM     17  O   LIG    1        5.488  -3.312   1.633  0.00  0.00    -0.520 OA
ATOM     18  C   LIG    1        4.437  -3.279   2.236  0.00  0.00    +0.520 C 
ATOM     19  N   LIG    1        3.326  -2.814   1.630  0.00  0.00    -0.720 N 
ATOM     20  H   LIG    1        2.485  -2.788   2.113  0.00  0.00    +0.410 HD
BRANCH  18  21
ATOM     21  C   LIG    1        4.372  -3.757   3.664  0.00  0.00    +0.120 C 
BRANCH  21  22
ATOM     22  C   LIG    1        5.738  -4.222   4.101  0.00  0.00    -0.070 A 
ATOM     23  C   LIG    1        6.107  -5.542   3.924  0.00  0.00    +0.070 A 
ATOM     24  C   LIG    1        7.362  -5.968   4.318  0.00  0.00    +0.010 A 
ATOM     25  C   LIG    1        8.244  -5.076   4.901  0.00  0.00    +0.110 A 
ATOM     26  C   LIG    1        7.871  -3.753   5.084  0.00  0.00    -0.070 A 
ATOM     27 CL   LIG    1        8.976  -2.632   5.814  0.00  0.00    -0.050 Cl
ATOM     28  F   LIG    1        9.468  -5.493   5.292  0.00  0.00    -0.130 F 
ATOM     29  C   LIG    1        6.618  -3.328   4.683  0.00  0.00    +0.070 A 
ENDBRANCH  21  22
ENDBRANCH  18  21
ENDBRANCH   1  19
TORSDOF 4
