REMARK  Name = ZINCrD00000F5LjJ.0
REMARK                            x       y       z     vdW  Elec       q    Type
REMARK                         _______ _______ _______ _____ _____    ______ ____
ROOT
ATOM      1  C   LIG    1       -5.297   0.561   1.225  0.00  0.00    +0.570 C 
ATOM      2  N   LIG    1       -4.787   0.142   0.051  0.00  0.00    -0.590 N 
ATOM      3  C   LIG    1       -5.367   0.612  -1.210  0.00  0.00    +0.290 C 
ATOM      4  O   LIG    1       -4.815   0.172   2.272  0.00  0.00    -0.540 OA
ENDROOT
BRANCH   1   6
ATOM      5  C   LIG    1       -6.943   1.905   2.418  0.00  0.00    +0.140 C 
ATOM      6  C   LIG    1       -6.431   1.485   1.242  0.00  0.00    -0.090 C 
BRANCH   5  13
ATOM      7  C   LIG    1       -8.618   3.272   3.656  0.00  0.00    +0.170 A 
ATOM      8  C   LIG    1       -9.693   4.147   3.659  0.00  0.00    -0.070 A 
ATOM      9  C   LIG    1      -10.234   4.585   2.465  0.00  0.00    +0.100 A 
ATOM     10  C   LIG    1       -9.709   4.155   1.257  0.00  0.00    -0.130 A 
ATOM     11  C   LIG    1       -8.637   3.288   1.234  0.00  0.00    +0.110 A 
ATOM     12 BR   LIG    1      -10.462   4.764  -0.367  0.00  0.00    -0.040 Br
ATOM     13  C   LIG    1       -8.082   2.832   2.434  0.00  0.00    -0.100 A 
BRANCH   7  15
ATOM     14  C   LIG    1       -8.683   3.332   6.030  0.00  0.00    +0.250 C 
ATOM     15  O   LIG    1       -8.086   2.842   4.828  0.00  0.00    -0.300 OA
ENDBRANCH   7  15
ENDBRANCH   5  13
ENDBRANCH   1   6
BRANCH   2  16
ATOM     16  C   LIG    1       -3.651  -0.783   0.034  0.00  0.00    +0.400 C 
BRANCH  16  17
ATOM     17  C   LIG    1       -2.364   0.002   0.026  0.00  0.00    +0.430 A 
ATOM     18  N   LIG    1       -2.434   1.304   0.034  0.00  0.00    -0.580 NA
ATOM     19  C   LIG    1       -1.329   2.074   0.032  0.00  0.00    +0.530 A 
ATOM     20  C   LIG    1       -0.017   1.403   0.010  0.00  0.00    -0.210 A 
ATOM     21  C   LIG    1        1.179   2.117   0.002  0.00  0.00    +0.110 A 
ATOM     22  C   LIG    1        2.376   1.433  -0.013  0.00  0.00    -0.010 A 
ATOM     23  C   LIG    1        2.394   0.046  -0.021  0.00  0.00    +0.080 A 
ATOM     24  C   LIG    1        1.218  -0.674  -0.013  0.00  0.00    -0.020 A 
ATOM     25  C   LIG    1        0.002  -0.004   0.002  0.00  0.00    +0.180 A 
ATOM     26  O   LIG    1       -1.412   3.290   0.040  0.00  0.00    -0.480 OA
ATOM     27  N   LIG    1       -1.204  -0.677   0.010  0.00  0.00    -0.620 N 
ATOM     28  H   LIG    1       -1.214  -1.647   0.005  0.00  0.00    +0.420 HD
ENDBRANCH  16  17
ENDBRANCH   2  16
TORSDOF 5
