REMARK  Name = ZINCrH000004szj3.2
REMARK                            x       y       z     vdW  Elec       q    Type
REMARK                         _______ _______ _______ _____ _____    ______ ____
ROOT
ATOM      1  N   LIG    1       -3.092   4.600  -3.057  0.00  0.00    -0.680 N 
ATOM      2  H   LIG    1       -3.070   5.328  -3.697  0.00  0.00    +0.410 HD
ATOM      3  C   LIG    1       -2.670   4.801  -1.793  0.00  0.00    +0.700 C 
ATOM      4  N   LIG    1       -2.314   6.037  -1.390  0.00  0.00    -0.720 N 
ATOM      5  H   LIG    1       -2.361   6.781  -2.010  0.00  0.00    +0.410 HD
ATOM      6  O   LIG    1       -2.611   3.867  -1.016  0.00  0.00    -0.570 OA
ENDROOT
BRANCH   1  13
ATOM      7  C   LIG    1       -4.565  -1.309  -7.110  0.00  0.00    +0.240 C 
ATOM      8  C   LIG    1       -4.396  -0.232  -6.070  0.00  0.00    +0.240 A 
ATOM      9  N   LIG    1       -4.830  -0.305  -4.848  0.00  0.00    -0.480 NA
ATOM     10  C   LIG    1       -4.499   0.843  -4.196  0.00  0.00    +0.010 A 
ATOM     11  C   LIG    1       -4.705   1.308  -2.895  0.00  0.00    +0.100 A 
ATOM     12  C   LIG    1       -4.240   2.540  -2.530  0.00  0.00    +0.030 A 
ATOM     13  C   LIG    1       -3.562   3.339  -3.446  0.00  0.00    +0.200 A 
ATOM     14  C   LIG    1       -3.349   2.894  -4.741  0.00  0.00    +0.010 A 
ATOM     15  C   LIG    1       -3.816   1.646  -5.123  0.00  0.00    +0.030 A 
ATOM     16  O   LIG    1       -3.774   0.941  -6.274  0.00  0.00    -0.210 OA
ENDBRANCH   1  13
BRANCH   4  17
ATOM     17  C   LIG    1       -1.855   6.255  -0.016  0.00  0.00    +0.300 C 
BRANCH  17  18
ATOM     18  C   LIG    1       -1.635   7.751   0.216  0.00  0.00    +0.130 C 
ATOM     19  C   LIG    1       -2.974   8.485   0.118  0.00  0.00    +0.030 C 
BRANCH  18  20
ATOM     20  N   LIG    1       -0.714   8.275  -0.801  0.00  0.00    -0.520 NA
ATOM     21  C   LIG    1       -0.573   9.735  -0.683  0.00  0.00    +0.220 C 
ATOM     22  C   LIG    1       -0.213  10.072   0.764  0.00  0.00    +0.040 C 
ATOM     23  C   LIG    1        0.946   9.224   1.218  0.00  0.00    -0.080 A 
ATOM     24  C   LIG    1        1.644   9.610   2.352  0.00  0.00    +0.000 A 
ATOM     25  C   LIG    1        2.712   8.859   2.803  0.00  0.00    +0.000 A 
ATOM     26  C   LIG    1        3.086   7.716   2.122  0.00  0.00    +0.000 A 
ATOM     27  C   LIG    1        2.392   7.332   0.992  0.00  0.00    +0.010 A 
ATOM     28  C   LIG    1        1.321   8.086   0.536  0.00  0.00    -0.110 A 
ATOM     29  C   LIG    1        0.598   7.628  -0.704  0.00  0.00    +0.270 C 
ENDBRANCH  18  20
ENDBRANCH  17  18
ENDBRANCH   4  17
TORSDOF 4
