REMARK  Name = ZINCkj000005lGYm.0
REMARK                            x       y       z     vdW  Elec       q    Type
REMARK                         _______ _______ _______ _____ _____    ______ ____
ROOT
ATOM      1  C   LIG    1       -1.253  -2.041  -0.443  0.00  0.00    +0.270 C 
ATOM      2  C   LIG    1       -1.215  -2.667  -1.841  0.00  0.00    +0.050 C 
ATOM      3  C   LIG    1       -1.208  -4.191  -1.711  0.00  0.00    +0.270 C 
ATOM      4  N   LIG    1       -2.417  -4.633  -1.006  0.00  0.00    -0.390 N 
ATOM      5  C   LIG    1       -2.422  -4.095   0.360  0.00  0.00    +0.270 C 
ATOM      6  H   LIG    1       -3.233  -4.303  -1.499  0.00  0.00    +0.420 HD
ATOM      7  C   LIG    1       -2.478  -2.567   0.310  0.00  0.00    +0.050 C 
ENDROOT
BRANCH   1  10
ATOM      8  O   LIG    1        0.867  -0.403  -0.752  0.00  0.00    -0.580 OA
ATOM      9  C   LIG    1       -0.216   0.148  -0.713  0.00  0.00    +0.710 C 
ATOM     10  N   LIG    1       -1.338  -0.583  -0.561  0.00  0.00    -0.750 N 
ATOM     11  H   LIG    1       -2.203  -0.144  -0.530  0.00  0.00    +0.400 HD
ATOM     12  N   LIG    1       -0.295   1.489  -0.822  0.00  0.00    -0.730 N 
ATOM     13  H   LIG    1       -1.159   1.927  -0.795  0.00  0.00    +0.400 HD
BRANCH  12  14
ATOM     14  C   LIG    1        0.925   2.283  -0.987  0.00  0.00    +0.260 C 
ATOM     15  C   LIG    1        1.312   3.086   0.266  0.00  0.00    +0.000 C 
ATOM     16  C   LIG    1        1.692   4.234  -0.683  0.00  0.00    +0.030 C 
ATOM     17  C   LIG    1        0.691   3.634  -1.684  0.00  0.00    +0.020 C 
ENDBRANCH  12  14
ENDBRANCH   1  10
BRANCH   4  18
ATOM     18  C   LIG    1       -2.443  -6.101  -0.952  0.00  0.00    +0.280 C 
BRANCH  18  19
ATOM     19  C   LIG    1       -3.774  -6.567  -0.359  0.00  0.00    -0.050 C 
ATOM     20  C   LIG    1       -3.824  -8.113  -0.289  0.00  0.00    +0.050 C 
ATOM     21  C   LIG    1       -5.284  -8.410  -0.719  0.00  0.00    +0.220 C 
ATOM     22  O   LIG    1       -5.543  -7.420  -1.738  0.00  0.00    -0.360 OA
ATOM     23  C   LIG    1       -4.941  -6.193  -1.294  0.00  0.00    +0.200 C 
ENDBRANCH  18  19
ENDBRANCH   4  18
TORSDOF 4
