REMARK  Name = ZINCpk00000eaunU.0
REMARK                            x       y       z     vdW  Elec       q    Type
REMARK                         _______ _______ _______ _____ _____    ______ ____
ROOT
ATOM      1  N   LIG    1       -2.401   1.314   2.794  0.00  0.00    -0.740 N 
ATOM      2  H   LIG    1       -2.108   2.127   3.234  0.00  0.00    +0.400 HD
ATOM      3  C   LIG    1       -1.760   0.874   1.693  0.00  0.00    +0.710 C 
ATOM      4  N   LIG    1       -0.710   1.564   1.204  0.00  0.00    -0.730 N 
ATOM      5  H   LIG    1       -0.416   2.377   1.644  0.00  0.00    +0.400 HD
ATOM      6  O   LIG    1       -2.128  -0.145   1.142  0.00  0.00    -0.560 OA
ENDROOT
BRANCH   1  12
ATOM      7  C   LIG    1       -7.304  -0.745   6.397  0.00  0.00    +0.160 A 
ATOM      8  C   LIG    1       -7.489   0.611   6.168  0.00  0.00    -0.110 A 
ATOM      9  C   LIG    1       -6.557   1.320   5.437  0.00  0.00    +0.090 A 
ATOM     10  C   LIG    1       -5.435   0.686   4.930  0.00  0.00    -0.190 A 
ATOM     11  C   LIG    1       -4.436   1.498   4.145  0.00  0.00    +0.090 C 
ATOM     12  C   LIG    1       -3.542   0.564   3.326  0.00  0.00    +0.240 C 
ATOM     13  C   LIG    1       -3.041  -0.554   4.248  0.00  0.00    +0.230 C 
ATOM     14  O   LIG    1       -4.165  -1.330   4.667  0.00  0.00    -0.300 OA
ATOM     15  C   LIG    1       -5.248  -0.668   5.152  0.00  0.00    +0.170 A 
ATOM     16  C   LIG    1       -6.185  -1.383   5.889  0.00  0.00    -0.040 A 
BRANCH   7  18
ATOM     17  C   LIG    1       -9.349  -0.722   7.609  0.00  0.00    +0.250 C 
ATOM     18  O   LIG    1       -8.220  -1.445   7.117  0.00  0.00    -0.310 OA
ENDBRANCH   7  18
ENDBRANCH   1  12
BRANCH   4  19
ATOM     19  C   LIG    1       -0.013   1.086   0.008  0.00  0.00    +0.370 C 
ATOM     20  C   LIG    1        1.424   1.623  -0.003  0.00  0.00    +0.050 C 
ATOM     21  C   LIG    1        2.049   1.366  -1.377  0.00  0.00    +0.060 C 
ATOM     22  C   LIG    1        1.370   2.258  -2.423  0.00  0.00    +0.310 C 
ATOM     23  N   LIG    1       -0.080   2.111  -2.297  0.00  0.00    -0.380 N 
ATOM     24  N   LIG    1       -1.070   2.461  -3.220  0.00  0.00    -0.310 NA
ATOM     25  C   LIG    1       -2.218   2.143  -2.675  0.00  0.00    +0.410 A 
ATOM     26  N   LIG    1       -1.996   1.617  -1.468  0.00  0.00    -0.510 NA
ATOM     27  C   LIG    1       -0.715   1.592  -1.228  0.00  0.00    +0.260 A 
ENDBRANCH   4  19
TORSDOF 3
