REMARK  Name = ZINCrH00000No4TW.0
REMARK                            x       y       z     vdW  Elec       q    Type
REMARK                         _______ _______ _______ _____ _____    ______ ____
ROOT
ATOM      1  C   LIG    1        1.161   3.569   0.010  0.00  0.00    +0.560 C 
ATOM      2  N   LIG    1        2.315   4.256  -0.099  0.00  0.00    -0.610 N 
ATOM      3  C   LIG    1        3.602   3.556  -0.221  0.00  0.00    +0.300 C 
ATOM      4  C   LIG    1        4.350   4.130  -1.435  0.00  0.00    +0.170 C 
ATOM      5  N   LIG    1        4.448   5.589  -1.298  0.00  0.00    -0.530 NA
ATOM      6  C   LIG    1        3.120   6.215  -1.306  0.00  0.00    +0.170 C 
ATOM      7  C   LIG    1        2.321   5.727  -0.093  0.00  0.00    +0.280 C 
ATOM      8  O   LIG    1        1.180   2.355   0.073  0.00  0.00    -0.530 OA
ENDROOT
BRANCH   1  12
ATOM      9  C   LIG    1       -2.551   5.647   0.133  0.00  0.00    -0.150 A 
ATOM     10  C   LIG    1       -1.501   6.040   0.969  0.00  0.00    +0.070 A 
ATOM     11  C   LIG    1       -0.300   5.366   0.928  0.00  0.00    +0.040 A 
ATOM     12  C   LIG    1       -0.131   4.292   0.053  0.00  0.00    -0.100 A 
ATOM     13  C   LIG    1       -1.178   3.899  -0.782  0.00  0.00    +0.060 A 
ATOM     14  C   LIG    1       -2.380   4.571  -0.743  0.00  0.00    +0.070 A 
BRANCH   9  15
ATOM     15  C   LIG    1       -3.836   6.367   0.175  0.00  0.00    +0.390 C 
ATOM     16  O   LIG    1       -3.983   7.301   0.935  0.00  0.00    -0.440 OA
BRANCH  15  18
ATOM     17  C   LIG    1       -6.177   6.848  -0.485  0.00  0.00    +0.030 C 
ATOM     18  C   LIG    1       -4.967   5.943  -0.726  0.00  0.00    +0.030 C 
ENDBRANCH  15  18
ENDBRANCH   9  15
ENDBRANCH   1  12
BRANCH   5  19
ATOM     19  C   LIG    1        5.306   6.159  -2.345  0.00  0.00    +0.210 C 
BRANCH  19  20
ATOM     20  C   LIG    1        6.562   5.335  -2.470  0.00  0.00    -0.020 C 
ATOM     21  C   LIG    1        6.907   4.827  -3.645  0.00  0.00    +0.010 C 
BRANCH  21  22
ATOM     22  C   LIG    1        8.138   4.019  -3.768  0.00  0.00    -0.060 A 
ATOM     23  C   LIG    1        8.943   3.793  -2.650  0.00  0.00    +0.010 A 
ATOM     24  C   LIG    1       10.088   3.034  -2.771  0.00  0.00    +0.000 A 
ATOM     25  C   LIG    1       10.445   2.505  -3.998  0.00  0.00    +0.000 A 
ATOM     26  C   LIG    1        9.655   2.729  -5.111  0.00  0.00    +0.000 A 
ATOM     27  C   LIG    1        8.504   3.483  -5.003  0.00  0.00    +0.010 A 
ENDBRANCH  21  22
ENDBRANCH  19  20
ENDBRANCH   5  19
TORSDOF 6
