REMARK  Name = ZINCrg000000rUpK.0
REMARK                            x       y       z     vdW  Elec       q    Type
REMARK                         _______ _______ _______ _____ _____    ______ ____
ROOT
ATOM      1  N   LIG    1       -1.494  -0.695   1.651  0.00  0.00    -0.260 N 
ATOM      2  N   LIG    1       -2.287  -1.396   0.725  0.00  0.00    -0.080 NA
ATOM      3  N   LIG    1       -2.443  -2.587   1.194  0.00  0.00    -0.030 NA
ATOM      4  N   LIG    1       -1.841  -2.706   2.321  0.00  0.00    -0.340 NA
ATOM      5  C   LIG    1       -1.245  -1.579   2.647  0.00  0.00    +0.230 A 
ENDROOT
BRANCH   1   8
ATOM      6  C   LIG    1        0.166   0.441  -0.659  0.00  0.00    +0.190 C 
ATOM      7  C   LIG    1       -0.326   1.176   0.561  0.00  0.00    +0.250 A 
ATOM      8  C   LIG    1       -1.059   0.642   1.564  0.00  0.00    -0.130 A 
ATOM      9  C   LIG    1       -1.311   1.665   2.514  0.00  0.00    +0.550 A 
ATOM     10  N   LIG    1       -0.726   2.793   2.065  0.00  0.00    -0.360 N 
ATOM     11  O   LIG    1       -1.942   1.545   3.549  0.00  0.00    -0.500 OA
ATOM     12  N   LIG    1       -0.102   2.496   0.847  0.00  0.00    -0.370 N 
ATOM     13  C   LIG    1        0.657   3.436   0.018  0.00  0.00    +0.370 C 
BRANCH  10  14
ATOM     14  C   LIG    1       -0.734   4.037   2.704  0.00  0.00    +0.140 A 
ATOM     15  C   LIG    1       -1.039   5.186   1.986  0.00  0.00    +0.000 A 
ATOM     16  C   LIG    1       -1.051   6.413   2.621  0.00  0.00    +0.030 A 
ATOM     17  C   LIG    1       -0.751   6.498   3.968  0.00  0.00    +0.020 A 
ATOM     18  C   LIG    1       -0.443   5.357   4.685  0.00  0.00    +0.040 A 
ATOM     19  C   LIG    1       -0.433   4.127   4.057  0.00  0.00    +0.030 A 
ENDBRANCH  10  14
ENDBRANCH   1   8
BRANCH   5  20
ATOM     20  S   LIG    1       -0.299  -1.277   4.103  0.00  0.00    +0.120 S 
BRANCH  20  21
ATOM     21  C   LIG    1       -0.296  -2.936   4.826  0.00  0.00    +0.010 C 
BRANCH  21  22
ATOM     22  C   LIG    1        0.512  -3.862   3.953  0.00  0.00    +0.530 C 
ATOM     23  O   LIG    1        1.381  -3.414   3.235  0.00  0.00    -0.530 OA
ATOM     24  N   LIG    1        0.269  -5.188   3.971  0.00  0.00    -0.840 N 
ATOM     25  H   LIG    1        0.789  -5.784   3.409  0.00  0.00    +0.410 HD
ATOM     26  H   LIG    1       -0.426  -5.546   4.545  0.00  0.00    +0.400 HD
ENDBRANCH  21  22
BRANCH  21  27
ATOM     27  C   LIG    1        0.324  -2.883   6.223  0.00  0.00    +0.020 C 
ATOM     28  C   LIG    1        0.408  -4.298   6.799  0.00  0.00    +0.040 C 
ATOM     29  C   LIG    1       -0.544  -2.012   7.134  0.00  0.00    +0.050 C 
ENDBRANCH  21  27
ENDBRANCH  20  21
ENDBRANCH   5  20
TORSDOF 6
