REMARK  Name = ZINCpk00000xI0S5.2
REMARK                            x       y       z     vdW  Elec       q    Type
REMARK                         _______ _______ _______ _____ _____    ______ ____
ROOT
ATOM      1  N   LIG    1        3.619   7.507  -0.324  0.00  0.00    -0.600 N 
ATOM      2  C   LIG    1        3.353   8.193   0.805  0.00  0.00    +0.530 C 
ATOM      3  O   LIG    1        3.420   7.639   1.882  0.00  0.00    -0.520 OA
ATOM      4  C   LIG    1        3.538   8.177  -1.624  0.00  0.00    +0.290 C 
ENDROOT
BRANCH   2   5
ATOM      5  C   LIG    1        2.972   9.649   0.730  0.00  0.00    +0.180 C 
ATOM      6  C   LIG    1        1.537   9.775   0.213  0.00  0.00    +0.030 C 
BRANCH   5   7
ATOM      7  N   LIG    1        3.064  10.250   2.067  0.00  0.00    -0.520 NA
ATOM      8  C   LIG    1        3.017  11.716   1.991  0.00  0.00    +0.170 C 
ATOM      9  C   LIG    1        3.262  12.309   3.380  0.00  0.00    +0.020 C 
ATOM     10  C   LIG    1        2.190  11.794   4.345  0.00  0.00    +0.020 C 
ATOM     11  C   LIG    1        2.228  10.264   4.370  0.00  0.00    +0.010 C 
ATOM     12  C   LIG    1        2.014   9.730   2.952  0.00  0.00    +0.180 C 
BRANCH  11  13
ATOM     13  C   LIG    1        1.121   9.740   5.286  0.00  0.00    +0.170 C 
BRANCH  13  14
ATOM     14  O   LIG    1        1.383  10.146   6.631  0.00  0.00    -0.570 OA
ATOM     15  H   LIG    1        0.719   9.848   7.268  0.00  0.00    +0.380 HD
ENDBRANCH  13  14
ENDBRANCH  11  13
ENDBRANCH   5   7
ENDBRANCH   2   5
BRANCH   1  16
ATOM     16  C   LIG    1        3.990   6.092  -0.250  0.00  0.00    +0.330 C 
BRANCH  16  19
ATOM     17  N   LIG    1        2.845   3.899  -0.278  0.00  0.00    -0.670 N 
ATOM     18  H   LIG    1        3.705   3.481  -0.119  0.00  0.00    +0.410 HD
ATOM     19  C   LIG    1        2.747   5.242  -0.327  0.00  0.00    +0.500 C 
ATOM     20  O   LIG    1        1.659   5.768  -0.432  0.00  0.00    -0.510 OA
BRANCH  17  25
ATOM     21  C   LIG    1       -1.782   0.695  -0.999  0.00  0.00    +0.100 C 
ATOM     22  C   LIG    1       -0.551   1.545  -0.809  0.00  0.00    -0.100 A 
ATOM     23  C   LIG    1       -0.434   2.748  -1.481  0.00  0.00    +0.020 A 
ATOM     24  C   LIG    1        0.690   3.532  -1.306  0.00  0.00    +0.010 A 
ATOM     25  C   LIG    1        1.705   3.108  -0.458  0.00  0.00    +0.140 A 
ATOM     26  C   LIG    1        1.586   1.897   0.211  0.00  0.00    -0.010 A 
ATOM     27  C   LIG    1        0.460   1.118   0.032  0.00  0.00    +0.030 A 
ENDBRANCH  17  25
ENDBRANCH  16  19
ENDBRANCH   1  16
TORSDOF 7
