REMARK  Name = ZINCtV000002xNrc.0
REMARK                            x       y       z     vdW  Elec       q    Type
REMARK                         _______ _______ _______ _____ _____    ______ ____
ROOT
ATOM      1  C   LIG    1       -3.717   8.533   0.082  0.00  0.00    +0.530 C 
ATOM      2  N   LIG    1       -2.765   7.583   0.068  0.00  0.00    -0.560 N 
ATOM      3  H   LIG    1       -1.829   7.835   0.060  0.00  0.00    +0.390 HD
ATOM      4  O   LIG    1       -4.890   8.218   0.091  0.00  0.00    -0.490 OA
ENDROOT
BRANCH   2   5
ATOM      5  N   LIG    1       -3.127   6.229   0.064  0.00  0.00    -0.250 NA
ATOM      6  C   LIG    1       -2.203   5.307   0.051  0.00  0.00    +0.310 A 
ATOM      7  N   LIG    1       -2.392   3.949   0.045  0.00  0.00    -0.620 N 
ATOM      8  H   LIG    1       -3.283   3.567   0.052  0.00  0.00    +0.430 HD
ATOM      9  C   LIG    1       -1.266   3.142   0.030  0.00  0.00    +0.180 A 
ATOM     10  C   LIG    1       -1.218   1.740   0.017  0.00  0.00    +0.010 A 
ATOM     11  C   LIG    1       -0.013   1.076   0.008  0.00  0.00    +0.110 A 
ATOM     12  C   LIG    1        1.181   1.776   0.000  0.00  0.00    -0.110 A 
ATOM     13  C   LIG    1        1.157   3.159   0.007  0.00  0.00    +0.140 A 
ATOM     14 BR   LIG    1        2.830   0.851  -0.020  0.00  0.00    -0.030 Br
ATOM     15  C   LIG    1       -0.053   3.830   0.022  0.00  0.00    -0.150 A 
ATOM     16  S   LIG    1       -0.449   5.554   0.035  0.00  0.00    +0.020 S 
ENDBRANCH   2   5
BRANCH   1  17
ATOM     17  C   LIG    1       -3.328   9.989   0.086  0.00  0.00    +0.080 C 
BRANCH  17  18
ATOM     18  C   LIG    1       -4.590  10.854   0.102  0.00  0.00    -0.030 C 
ATOM     19  C   LIG    1       -5.407  10.541   1.357  0.00  0.00    +0.040 C 
BRANCH  18  21
ATOM     20  C   LIG    1       -4.613  10.867  -2.397  0.00  0.00    +0.000 C 
ATOM     21  C   LIG    1       -5.430  10.554  -1.141  0.00  0.00    +0.020 C 
ENDBRANCH  18  21
BRANCH  18  22
ATOM     22  C   LIG    1       -4.196  12.332   0.106  0.00  0.00    +0.140 C 
BRANCH  22  23
ATOM     23  C   LIG    1       -5.439  13.184   0.122  0.00  0.00    +0.110 A 
ATOM     24  N   LIG    1       -6.026  13.581   1.187  0.00  0.00    -0.460 NA
ATOM     25  C   LIG    1       -7.128  14.342   1.051  0.00  0.00    +0.080 A 
ATOM     26  C   LIG    1       -7.956  14.911   2.039  0.00  0.00    +0.070 A 
ATOM     27  C   LIG    1       -9.042  15.653   1.686  0.00  0.00    +0.030 A 
ATOM     28  C   LIG    1       -9.353  15.865   0.350  0.00  0.00    +0.040 A 
ATOM     29  C   LIG    1       -8.561  15.322  -0.637  0.00  0.00    +0.060 A 
ATOM     30  C   LIG    1       -7.447  14.559  -0.294  0.00  0.00    -0.190 A 
ATOM     31  S   LIG    1       -6.243  13.734  -1.279  0.00  0.00    +0.100 S 
ENDBRANCH  22  23
ENDBRANCH  18  22
ENDBRANCH  17  18
ENDBRANCH   1  17
TORSDOF 6
