REMARK  Name = ZINCpk00000KfLM3.0
REMARK                            x       y       z     vdW  Elec       q    Type
REMARK                         _______ _______ _______ _____ _____    ______ ____
ROOT
ATOM      1  N   LIG    1       -4.164   2.452   2.405  0.00  0.00    -0.530 NA
ATOM      2  C   LIG    1       -4.561   1.042   2.501  0.00  0.00    +0.160 C 
ATOM      3  C   LIG    1       -3.311   0.166   2.614  0.00  0.00    +0.030 C 
ATOM      4  C   LIG    1       -2.427   0.385   1.383  0.00  0.00    +0.030 C 
ATOM      5  C   LIG    1       -2.068   1.870   1.279  0.00  0.00    +0.010 C 
ATOM      6  C   LIG    1       -3.354   2.696   1.205  0.00  0.00    +0.190 C 
ENDROOT
BRANCH   5   7
ATOM      7  C   LIG    1       -1.235   2.107   0.018  0.00  0.00    +0.130 C 
ATOM      8  N   LIG    1       -0.664   3.465   0.026  0.00  0.00    -0.720 N 
ATOM      9  H   LIG    1       -1.157   4.301   0.034  0.00  0.00    +0.440 HD
ATOM     10  C   LIG    1        0.673   3.321   0.013  0.00  0.00    +0.700 C 
ATOM     11  N   LIG    1        1.048   2.037   0.003  0.00  0.00    -0.580 N 
ATOM     12  C   LIG    1        2.443   1.587  -0.011  0.00  0.00    +0.340 C 
ATOM     13  O   LIG    1        1.453   4.253   0.010  0.00  0.00    -0.540 OA
ATOM     14  C   LIG    1       -2.079   1.882  -1.237  0.00  0.00    +0.090 C 
ATOM     15  C   LIG    1       -0.014   1.208   0.009  0.00  0.00    +0.530 C 
ATOM     16  O   LIG    1        0.002  -0.004   0.002  0.00  0.00    -0.460 OA
ENDBRANCH   5   7
BRANCH   1  17
ATOM     17  C   LIG    1       -5.340   3.333   2.435  0.00  0.00    +0.330 C 
BRANCH  17  20
ATOM     18  C   LIG    1       -7.225   2.680   5.412  0.00  0.00    +0.190 A 
ATOM     19  N   LIG    1       -6.250   3.319   4.812  0.00  0.00    -0.470 NA
ATOM     20  C   LIG    1       -6.269   2.893   3.536  0.00  0.00    +0.180 A 
ATOM     21  N   LIG    1       -7.240   2.036   3.427  0.00  0.00    -0.380 NA
ATOM     22  O   LIG    1       -7.798   1.896   4.495  0.00  0.00    +0.080 OA
BRANCH  18  23
ATOM     23  C   LIG    1       -7.622   2.807   6.861  0.00  0.00    +0.180 C 
BRANCH  23  25
ATOM     24  C   LIG    1       -9.945   3.513   6.271  0.00  0.00    +0.020 C 
ATOM     25  C   LIG    1       -8.667   3.915   7.008  0.00  0.00    -0.010 C 
ATOM     26  C   LIG    1       -8.978   4.129   8.490  0.00  0.00    +0.030 C 
ENDBRANCH  23  25
ENDBRANCH  18  23
ENDBRANCH  17  20
ENDBRANCH   1  17
TORSDOF 5
