REMARK  Name = ZINCpe00000gLFwh.0
REMARK                            x       y       z     vdW  Elec       q    Type
REMARK                         _______ _______ _______ _____ _____    ______ ____
ROOT
ATOM      1  C   LIG    1       -0.409  -0.089   2.938  0.00  0.00    +0.450 C 
ATOM      2  O   LIG    1       -1.301  -0.707   2.406  0.00  0.00    -0.490 OA
ENDROOT
BRANCH   1   3
ATOM      3  C   LIG    1        0.274  -0.653   4.157  0.00  0.00    +0.410 C 
BRANCH   3  14
ATOM      4  C   LIG    1       -2.068  -1.167   6.000  0.00  0.00    +0.060 C 
ATOM      5  C   LIG    1       -1.405  -2.131   5.354  0.00  0.00    +0.130 C 
ATOM      6  C   LIG    1       -1.689  -3.577   5.420  0.00  0.00    -0.040 A 
ATOM      7  C   LIG    1       -2.630  -4.345   6.095  0.00  0.00    +0.050 A 
ATOM      8  C   LIG    1       -2.629  -5.718   5.946  0.00  0.00    +0.060 A 
ATOM      9  C   LIG    1       -1.695  -6.336   5.130  0.00  0.00    +0.020 A 
ATOM     10  C   LIG    1       -0.752  -5.590   4.452  0.00  0.00    +0.100 A 
ATOM     11  C   LIG    1       -0.739  -4.204   4.589  0.00  0.00    -0.160 A 
ATOM     12  C   LIG    1        0.103  -3.136   4.027  0.00  0.00    +0.570 C 
ATOM     13  O   LIG    1        1.034  -3.301   3.261  0.00  0.00    -0.500 OA
ATOM     14  N   LIG    1       -0.320  -1.949   4.495  0.00  0.00    -0.550 N 
ENDBRANCH   3  14
ENDBRANCH   1   3
BRANCH   1  15
ATOM     15  O   LIG    1       -0.027   1.098   2.443  0.00  0.00    -0.320 OA
BRANCH  15  16
ATOM     16  C   LIG    1       -0.729   1.579   1.267  0.00  0.00    +0.200 C 
ATOM     17  C   LIG    1       -0.013   1.086   0.008  0.00  0.00    +0.070 C 
BRANCH  16  18
ATOM     18  C   LIG    1       -0.749   3.086   1.275  0.00  0.00    +0.520 C 
ATOM     19  N   LIG    1       -1.437   3.756   0.329  0.00  0.00    -0.690 N 
ATOM     20  H   LIG    1       -1.919   3.268  -0.357  0.00  0.00    +0.410 HD
ATOM     21  C   LIG    1       -1.455   5.104   0.337  0.00  0.00    +0.690 C 
ATOM     22  N   LIG    1       -2.143   5.773  -0.610  0.00  0.00    -0.740 N 
ATOM     23  H   LIG    1       -2.625   5.285  -1.296  0.00  0.00    +0.400 HD
ATOM     24  O   LIG    1       -0.852   5.715   1.196  0.00  0.00    -0.530 OA
ATOM     25  O   LIG    1       -0.147   3.696   2.133  0.00  0.00    -0.440 OA
BRANCH  22  26
ATOM     26  C   LIG    1       -2.163   7.238  -0.601  0.00  0.00    +0.270 C 
ATOM     27  C   LIG    1       -3.008   7.743  -1.772  0.00  0.00    +0.030 C 
ENDBRANCH  22  26
ENDBRANCH  16  18
ENDBRANCH  15  16
ENDBRANCH   1  15
TORSDOF 6
