REMARK  Name = ZINCrH000004sPo2.0
REMARK                            x       y       z     vdW  Elec       q    Type
REMARK                         _______ _______ _______ _____ _____    ______ ____
ROOT
ATOM      1  C   LIG    1        0.002  -0.004   0.002  0.00  0.00    +0.300 C 
ENDROOT
BRANCH   1   2
ATOM      2  C   LIG    1       -0.018   1.503   0.010  0.00  0.00    -0.100 A 
ATOM      3  C   LIG    1       -1.225   2.178   0.020  0.00  0.00    +0.020 A 
ATOM      4  C   LIG    1       -1.244   3.560   0.031  0.00  0.00    +0.000 A 
ATOM      5  C   LIG    1       -0.056   4.267   0.025  0.00  0.00    +0.010 A 
ATOM      6  C   LIG    1        1.151   3.592   0.010  0.00  0.00    +0.000 A 
ATOM      7  C   LIG    1        1.169   2.210   0.003  0.00  0.00    +0.020 A 
ENDBRANCH   1   2
BRANCH   1   8
ATOM      8  N   LIG    1       -1.058  -0.502  -0.878  0.00  0.00    -0.730 N 
ATOM      9  H   LIG    1       -1.921  -0.746  -0.509  0.00  0.00    +0.400 HD
ATOM     10  C   LIG    1       -0.834  -0.620  -2.202  0.00  0.00    +0.520 C 
ATOM     11  O   LIG    1        0.245  -0.315  -2.664  0.00  0.00    -0.530 OA
BRANCH  10  12
ATOM     12  C   LIG    1       -1.924  -1.133  -3.108  0.00  0.00    +0.000 C 
ATOM     13  C   LIG    1       -2.327  -2.543  -2.674  0.00  0.00    +0.040 C 
BRANCH  12  14
ATOM     14  C   LIG    1       -1.414  -1.169  -4.550  0.00  0.00    +0.110 C 
BRANCH  14  15
ATOM     15  C   LIG    1       -2.539  -1.564  -5.471  0.00  0.00    -0.050 A 
ATOM     16  C   LIG    1       -3.350  -0.592  -6.027  0.00  0.00    +0.000 A 
ATOM     17  C   LIG    1       -4.383  -0.952  -6.872  0.00  0.00    +0.040 A 
ATOM     18  C   LIG    1       -4.606  -2.285  -7.162  0.00  0.00    -0.020 A 
ATOM     19  C   LIG    1       -3.795  -3.259  -6.606  0.00  0.00    +0.100 A 
ATOM     20  F   LIG    1       -4.012  -4.562  -6.890  0.00  0.00    -0.140 F 
ATOM     21  C   LIG    1       -2.757  -2.897  -5.764  0.00  0.00    -0.020 A 
ENDBRANCH  14  15
ENDBRANCH  12  14
ENDBRANCH  10  12
ENDBRANCH   1   8
BRANCH   1  22
ATOM     22  C   LIG    1       -0.228  -0.525   1.422  0.00  0.00    +0.210 C 
BRANCH  22  27
ATOM     23  C   LIG    1        1.583  -5.184   1.732  0.00  0.00    +0.200 C 
ATOM     24  C   LIG    1        0.666  -3.999   1.564  0.00  0.00    +0.170 A 
ATOM     25  N   LIG    1       -0.608  -4.042   1.313  0.00  0.00    -0.380 NA
ATOM     26  O   LIG    1       -1.059  -2.919   1.236  0.00  0.00    +0.080 OA
ATOM     27  C   LIG    1       -0.086  -2.025   1.436  0.00  0.00    +0.180 A 
ATOM     28  N   LIG    1        1.018  -2.703   1.641  0.00  0.00    -0.470 NA
ENDBRANCH  22  27
ENDBRANCH   1  22
TORSDOF 7
