REMARK  Name = ZINCAx0000000g9U.0
REMARK                            x       y       z     vdW  Elec       q    Type
REMARK                         _______ _______ _______ _____ _____    ______ ____
ROOT
ATOM      1  C   LIG    1        1.069   2.988  -0.832  0.00  0.00    +0.050 C 
ATOM      2  C   LIG    1       -0.222   3.659  -0.441  0.00  0.00    +0.250 C 
ATOM      3  N   LIG    1       -1.239   2.960  -0.062  0.00  0.00    -0.500 NA
ATOM      4  C   LIG    1       -1.185   1.621   0.017  0.00  0.00    +0.660 C 
ATOM      5  N   LIG    1       -0.011   0.966   0.007  0.00  0.00    -0.740 N 
ATOM      6  H   LIG    1        0.002  -0.004   0.002  0.00  0.00    +0.420 HD
ATOM      7  O   LIG    1       -2.220   0.988   0.102  0.00  0.00    -0.500 OA
ATOM      8  C   LIG    1        1.249   1.715  -0.001  0.00  0.00    +0.330 C 
ENDROOT
BRANCH   8   9
ATOM      9  C   LIG    1        1.625   2.084   1.411  0.00  0.00    -0.130 A 
ATOM     10  C   LIG    1        0.651   2.500   2.299  0.00  0.00    +0.010 A 
ATOM     11  C   LIG    1        0.995   2.834   3.596  0.00  0.00    +0.000 A 
ATOM     12  C   LIG    1        2.315   2.762   4.001  0.00  0.00    +0.020 A 
ATOM     13  C   LIG    1        3.290   2.351   3.111  0.00  0.00    -0.010 A 
ATOM     14  C   LIG    1        2.945   2.012   1.817  0.00  0.00    +0.080 A 
ENDBRANCH   8   9
BRANCH   1  15
ATOM     15  C   LIG    1        2.222   3.924  -0.575  0.00  0.00    +0.470 C 
ATOM     16  O   LIG    1        3.098   3.607   0.195  0.00  0.00    -0.460 OA
BRANCH  15  17
ATOM     17  O   LIG    1        2.275   5.110  -1.200  0.00  0.00    -0.360 OA
BRANCH  17  19
ATOM     18  C   LIG    1        3.302   7.260  -1.705  0.00  0.00    +0.060 C 
ATOM     19  C   LIG    1        3.414   5.961  -0.904  0.00  0.00    +0.220 C 
ENDBRANCH  17  19
ENDBRANCH  15  17
ENDBRANCH   1  15
BRANCH   2  20
ATOM     20  C   LIG    1       -0.328   5.161  -0.494  0.00  0.00    +0.430 C 
BRANCH  20  21
ATOM     21  N   LIG    1       -1.669   5.572  -0.072  0.00  0.00    -0.560 N 
ATOM     22  C   LIG    1       -2.008   5.844   1.193  0.00  0.00    +0.710 C 
ATOM     23  N   LIG    1       -3.300   6.199   1.315  0.00  0.00    -0.710 N 
ATOM     24  H   LIG    1       -3.761   6.438   2.134  0.00  0.00    +0.440 HD
ATOM     25  C   LIG    1       -3.878   6.152  -0.040  0.00  0.00    +0.180 C 
ATOM     26  O   LIG    1       -1.235   5.779   2.129  0.00  0.00    -0.540 OA
ATOM     27  C   LIG    1       -2.713   5.727  -0.910  0.00  0.00    +0.550 C 
ATOM     28  O   LIG    1       -2.719   5.559  -2.111  0.00  0.00    -0.450 OA
BRANCH  25  29
ATOM     29  C   LIG    1       -4.377   7.514  -0.450  0.00  0.00    -0.140 A 
ATOM     30  C   LIG    1       -5.435   7.624  -1.333  0.00  0.00    +0.080 A 
ATOM     31  C   LIG    1       -5.897   8.871  -1.707  0.00  0.00    -0.080 A 
ATOM     32  C   LIG    1       -5.291  10.013  -1.205  0.00  0.00    +0.140 A 
ATOM     33  C   LIG    1       -4.226   9.900  -0.324  0.00  0.00    -0.010 A 
ATOM     34  C   LIG    1       -3.771   8.651   0.052  0.00  0.00    +0.070 A 
BRANCH  32  35
ATOM     35  O   LIG    1       -5.740  11.241  -1.576  0.00  0.00    -0.320 OA
ATOM     36  C   LIG    1       -6.841  11.282  -2.486  0.00  0.00    +0.240 C 
ENDBRANCH  32  35
ENDBRANCH  25  29
BRANCH  25  37
ATOM     37  C   LIG    1       -5.009   5.124  -0.107  0.00  0.00    +0.060 C 
ATOM     38  C   LIG    1       -4.496   3.768   0.383  0.00  0.00    +0.030 C 
ENDBRANCH  25  37
ENDBRANCH  20  21
ENDBRANCH   2  20
TORSDOF 9
