REMARK  Name = ZINCAx0000000g9U.1
REMARK                            x       y       z     vdW  Elec       q    Type
REMARK                         _______ _______ _______ _____ _____    ______ ____
ROOT
ATOM      1  C   LIG    1       -0.641   7.510  -1.885  0.00  0.00    -0.210 C 
ATOM      2  C   LIG    1       -1.491   6.479  -1.689  0.00  0.00    +0.170 C 
ATOM      3  N   LIG    1       -2.700   6.668  -1.084  0.00  0.00    -0.650 N 
ATOM      4  H   LIG    1       -3.280   5.898  -0.968  0.00  0.00    +0.430 HD
ATOM      5  C   LIG    1       -3.129   7.854  -0.635  0.00  0.00    +0.710 C 
ATOM      6  N   LIG    1       -2.392   8.976  -0.758  0.00  0.00    -0.710 N 
ATOM      7  H   LIG    1       -2.724   9.826  -0.430  0.00  0.00    +0.440 HD
ATOM      8  O   LIG    1       -4.220   7.923  -0.104  0.00  0.00    -0.560 OA
ATOM      9  C   LIG    1       -1.072   8.880  -1.404  0.00  0.00    +0.340 C 
ENDROOT
BRANCH   9  10
ATOM     10  C   LIG    1       -1.067   9.812  -2.589  0.00  0.00    -0.120 A 
ATOM     11  C   LIG    1       -2.123   9.802  -3.480  0.00  0.00    +0.030 A 
ATOM     12  C   LIG    1       -2.120  10.659  -4.565  0.00  0.00    +0.000 A 
ATOM     13  C   LIG    1       -1.056  11.519  -4.763  0.00  0.00    +0.010 A 
ATOM     14  C   LIG    1        0.003  11.524  -3.875  0.00  0.00    +0.000 A 
ATOM     15  C   LIG    1       -0.002  10.671  -2.788  0.00  0.00    +0.020 A 
ENDBRANCH   9  10
BRANCH   1  16
ATOM     16  C   LIG    1        0.610   7.316  -2.516  0.00  0.00    +0.530 C 
ATOM     17  O   LIG    1        1.627   7.266  -1.850  0.00  0.00    -0.460 OA
BRANCH  16  18
ATOM     18  O   LIG    1        0.676   7.189  -3.858  0.00  0.00    -0.350 OA
BRANCH  18  20
ATOM     19  C   LIG    1        1.846   6.873  -5.949  0.00  0.00    +0.070 C 
ATOM     20  C   LIG    1        1.972   6.996  -4.429  0.00  0.00    +0.200 C 
ENDBRANCH  18  20
ENDBRANCH  16  18
ENDBRANCH   1  16
BRANCH   2  21
ATOM     21  C   LIG    1       -1.101   5.099  -2.152  0.00  0.00    +0.400 C 
BRANCH  21  22
ATOM     22  N   LIG    1       -0.964   4.215  -0.992  0.00  0.00    -0.580 N 
ATOM     23  C   LIG    1        0.175   4.036  -0.313  0.00  0.00    +0.700 C 
ATOM     24  N   LIG    1        0.035   3.174   0.714  0.00  0.00    -0.710 N 
ATOM     25  H   LIG    1        0.722   2.897   1.339  0.00  0.00    +0.440 HD
ATOM     26  C   LIG    1       -1.371   2.735   0.700  0.00  0.00    +0.180 C 
ATOM     27  O   LIG    1        1.221   4.591  -0.591  0.00  0.00    -0.510 OA
ATOM     28  C   LIG    1       -1.970   3.482  -0.475  0.00  0.00    +0.530 C 
ATOM     29  O   LIG    1       -3.116   3.431  -0.869  0.00  0.00    -0.450 OA
BRANCH  26  30
ATOM     30  C   LIG    1       -2.061   3.123   1.982  0.00  0.00    -0.150 A 
ATOM     31  C   LIG    1       -3.137   2.384   2.438  0.00  0.00    +0.080 A 
ATOM     32  C   LIG    1       -3.767   2.735   3.617  0.00  0.00    -0.070 A 
ATOM     33  C   LIG    1       -3.327   3.836   4.336  0.00  0.00    +0.150 A 
ATOM     34  C   LIG    1       -2.251   4.579   3.873  0.00  0.00    -0.010 A 
ATOM     35  C   LIG    1       -1.620   4.221   2.698  0.00  0.00    +0.070 A 
BRANCH  33  36
ATOM     36  O   LIG    1       -3.950   4.187   5.492  0.00  0.00    -0.310 OA
ATOM     37  C   LIG    1       -5.051   3.377   5.908  0.00  0.00    +0.240 C 
ENDBRANCH  33  36
ENDBRANCH  26  30
BRANCH  26  38
ATOM     38  C   LIG    1       -1.461   1.223   0.479  0.00  0.00    +0.060 C 
ATOM     39  C   LIG    1       -0.649   0.840  -0.760  0.00  0.00    +0.020 C 
ENDBRANCH  26  38
ENDBRANCH  21  22
ENDBRANCH   2  21
TORSDOF 9
