REMARK  Name = ZINCqH0000007v6L.0
REMARK                            x       y       z     vdW  Elec       q    Type
REMARK                         _______ _______ _______ _____ _____    ______ ____
ROOT
ATOM      1  C   LIG    1       -0.016   1.344   0.009  0.00  0.00    +0.590 C 
ATOM      2  N   LIG    1        0.002  -0.004   0.002  0.00  0.00    -0.720 N 
ATOM      3  H   LIG    1        0.849  -0.478  -0.009  0.00  0.00    +0.410 HD
ATOM      4  O   LIG    1       -1.078   1.937   0.018  0.00  0.00    -0.510 OA
ENDROOT
BRANCH   1  11
ATOM      5  C   LIG    1        4.819   4.970  -0.017  0.00  0.00    +0.100 A 
ATOM      6  C   LIG    1        5.513   3.761  -0.029  0.00  0.00    -0.020 A 
ATOM      7  C   LIG    1        4.834   2.564  -0.029  0.00  0.00    +0.040 A 
ATOM      8  C   LIG    1        3.442   2.553  -0.016  0.00  0.00    +0.090 A 
ATOM      9  N   LIG    1        2.511   1.539  -0.008  0.00  0.00    -0.580 N 
ATOM     10  H   LIG    1        2.710   0.589  -0.010  0.00  0.00    +0.420 HD
ATOM     11  C   LIG    1        1.247   2.096   0.001  0.00  0.00    +0.020 A 
ATOM     12  C   LIG    1        1.357   3.450   0.008  0.00  0.00    +0.060 A 
ATOM     13  C   LIG    1        2.736   3.771  -0.003  0.00  0.00    -0.080 A 
ATOM     14  C   LIG    1        3.441   4.982  -0.003  0.00  0.00    +0.040 A 
BRANCH   5  16
ATOM     15  C   LIG    1        6.933   6.061  -0.031  0.00  0.00    +0.230 C 
ATOM     16  O   LIG    1        5.506   6.144  -0.018  0.00  0.00    -0.320 OA
ENDBRANCH   5  16
ENDBRANCH   1  11
BRANCH   2  17
ATOM     17  C   LIG    1       -1.256  -0.754   0.010  0.00  0.00    +0.290 C 
BRANCH  17  18
ATOM     18  C   LIG    1       -0.961  -2.232  -0.001  0.00  0.00    +0.430 C 
ATOM     19  O   LIG    1        0.189  -2.621  -0.014  0.00  0.00    -0.450 OA
BRANCH  18  20
ATOM     20  C   LIG    1       -2.022  -3.164   0.004  0.00  0.00    -0.320 A 
ATOM     21  C   LIG    1       -1.883  -4.523  -0.004  0.00  0.00    +0.130 A 
ATOM     22  C   LIG    1       -3.080  -5.211   0.004  0.00  0.00    -0.130 A 
ATOM     23  C   LIG    1       -4.173  -4.412   0.019  0.00  0.00    -0.180 A 
ATOM     24  C   LIG    1       -5.603  -4.919   0.030  0.00  0.00    +0.110 C 
ATOM     25  C   LIG    1       -5.606  -6.391  -0.391  0.00  0.00    +0.030 C 
ATOM     26  C   LIG    1       -4.567  -7.150   0.441  0.00  0.00    +0.020 C 
ATOM     27  C   LIG    1       -3.164  -6.732  -0.003  0.00  0.00    +0.100 C 
ATOM     28  S   LIG    1       -3.731  -2.762   0.030  0.00  0.00    +0.230 S 
ENDBRANCH  18  20
ENDBRANCH  17  18
ENDBRANCH   2  17
TORSDOF 5
