REMARK  Name = ZINCAx00000009k0.0
REMARK                            x       y       z     vdW  Elec       q    Type
REMARK                         _______ _______ _______ _____ _____    ______ ____
ROOT
ATOM      1  N   LIG    1        2.140   0.708  -0.009  0.00  0.00    -0.570 N 
ATOM      2  C   LIG    1        1.302  -0.335  -0.008  0.00  0.00    +0.710 C 
ATOM      3  N   LIG    1        0.011   0.043   0.007  0.00  0.00    -0.720 N 
ATOM      4  H   LIG    1       -0.763  -0.541   0.012  0.00  0.00    +0.440 HD
ATOM      5  C   LIG    1        0.003   1.516   0.018  0.00  0.00    +0.170 C 
ATOM      6  C   LIG    1       -0.671   2.041   1.287  0.00  0.00    +0.090 C 
ATOM      7  O   LIG    1        1.667  -1.494  -0.020  0.00  0.00    -0.540 OA
ATOM      8  C   LIG    1        1.475   1.880   0.006  0.00  0.00    +0.540 C 
ATOM      9  O   LIG    1        1.953   2.994   0.008  0.00  0.00    -0.450 OA
ENDROOT
BRANCH   5  10
ATOM     10  C   LIG    1       -0.686   2.051  -1.210  0.00  0.00    -0.090 A 
ATOM     11  C   LIG    1       -0.288   3.259  -1.752  0.00  0.00    +0.060 A 
ATOM     12  C   LIG    1       -0.912   3.754  -2.883  0.00  0.00    +0.030 A 
ATOM     13  C   LIG    1       -1.945   3.040  -3.465  0.00  0.00    +0.080 A 
ATOM     14  O   LIG    1       -2.573   3.519  -4.578  0.00  0.00    -0.320 OA
ATOM     15  C   LIG    1       -2.358   2.781  -5.783  0.00  0.00    +0.230 C 
ATOM     16  C   LIG    1       -3.324   1.611  -5.879  0.00  0.00    -0.010 C 
ATOM     17  C   LIG    1       -3.093   0.579  -4.786  0.00  0.00    +0.230 C 
ATOM     18  O   LIG    1       -3.369   1.134  -3.499  0.00  0.00    -0.320 OA
ATOM     19  C   LIG    1       -2.349   1.830  -2.918  0.00  0.00    +0.070 A 
ATOM     20  C   LIG    1       -1.718   1.334  -1.790  0.00  0.00    +0.040 A 
ENDBRANCH   5  10
BRANCH   1  21
ATOM     21  C   LIG    1        3.600   0.591  -0.024  0.00  0.00    +0.480 C 
BRANCH  21  25
ATOM     22  N   LIG    1        5.757  -0.283  -3.550  0.00  0.00    -0.500 N 
ATOM     23  C   LIG    1        5.894   1.062  -2.975  0.00  0.00    +0.200 C 
ATOM     24  C   LIG    1        5.464   1.032  -1.506  0.00  0.00    +0.200 C 
ATOM     25  N   LIG    1        4.075   0.562  -1.414  0.00  0.00    -0.560 NA
ATOM     26  C   LIG    1        3.939  -0.784  -1.989  0.00  0.00    +0.200 C 
ATOM     27  C   LIG    1        4.368  -0.754  -3.458  0.00  0.00    +0.190 C 
BRANCH  22  31
ATOM     28  C   LIG    1        7.102  -0.366  -7.489  0.00  0.00    -0.150 A 
ATOM     29  C   LIG    1        6.045   0.477  -7.124  0.00  0.00    +0.080 A 
ATOM     30  C   LIG    1        5.601   0.498  -5.822  0.00  0.00    +0.010 A 
ATOM     31  C   LIG    1        6.207  -0.311  -4.865  0.00  0.00    +0.090 A 
ATOM     32  C   LIG    1        7.260  -1.153  -5.223  0.00  0.00    +0.120 A 
ATOM     33  F   LIG    1        7.841  -1.940  -4.291  0.00  0.00    -0.120 F 
ATOM     34  C   LIG    1        7.706  -1.183  -6.524  0.00  0.00    +0.040 A 
BRANCH  28  36
ATOM     35  C   LIG    1        8.790  -1.207  -9.244  0.00  0.00    +0.080 C 
ATOM     36  C   LIG    1        7.575  -0.394  -8.878  0.00  0.00    +0.400 C 
ATOM     37  O   LIG    1        6.988   0.237  -9.732  0.00  0.00    -0.450 OA
ENDBRANCH  28  36
ENDBRANCH  22  31
ENDBRANCH  21  25
ENDBRANCH   1  21
TORSDOF 5
