REMARK  Name = ZINCrD000000CqaF.0
REMARK                            x       y       z     vdW  Elec       q    Type
REMARK                         _______ _______ _______ _____ _____    ______ ____
ROOT
ATOM      1  C   LIG    1        5.765  -1.853  -2.974  0.00  0.00    -0.070 A 
ATOM      2  C   LIG    1        5.012  -1.438  -4.074  0.00  0.00    +0.070 A 
ATOM      3  C   LIG    1        5.468  -1.688  -5.351  0.00  0.00    +0.120 A 
ATOM      4  C   LIG    1        6.664  -2.357  -5.544  0.00  0.00    -0.650 A 
ATOM      5  C   LIG    1        7.413  -2.775  -4.458  0.00  0.00    +0.120 A 
ATOM      6  C   LIG    1        6.971  -2.527  -3.175  0.00  0.00    +0.080 A 
ENDROOT
BRANCH   4   7
ATOM      7  S   LIG    1        7.236  -2.678  -7.180  0.00  0.00    +2.690 S 
ATOM      8  O   LIG    1        8.644  -2.841  -7.088  0.00  0.00    -0.940 OA
ATOM      9  O   LIG    1        6.619  -1.710  -8.018  0.00  0.00    -0.940 OA
BRANCH   7  10
ATOM     10  N   LIG    1        6.623  -4.148  -7.633  0.00  0.00    -1.000 NA
ATOM     11  C   LIG    1        7.368  -5.391  -7.377  0.00  0.00    +0.270 C 
ATOM     12  C   LIG    1        6.421  -6.383  -6.685  0.00  0.00    +0.220 C 
ATOM     13  O   LIG    1        5.225  -6.508  -7.459  0.00  0.00    -0.370 OA
ATOM     14  C   LIG    1        4.475  -5.297  -7.577  0.00  0.00    +0.220 C 
ATOM     15  C   LIG    1        5.321  -4.249  -8.310  0.00  0.00    +0.270 C 
ENDBRANCH   7  10
ENDBRANCH   4   7
BRANCH   1  17
ATOM     16  O   LIG    1        5.941  -1.951  -0.647  0.00  0.00    -0.490 OA
ATOM     17  C   LIG    1        5.285  -1.585  -1.603  0.00  0.00    +0.510 C 
BRANCH  17  18
ATOM     18  O   LIG    1        4.122  -0.934  -1.411  0.00  0.00    -0.340 OA
BRANCH  18  19
ATOM     19  C   LIG    1        3.712  -0.705  -0.037  0.00  0.00    +0.290 C 
BRANCH  19  20
ATOM     20  C   LIG    1        2.397   0.030  -0.021  0.00  0.00    -0.090 A 
ATOM     21  C   LIG    1        2.378   1.412  -0.013  0.00  0.00    +0.060 A 
ATOM     22  C   LIG    1        1.172   2.088   0.002  0.00  0.00    +0.050 A 
ATOM     23  C   LIG    1       -0.017   1.381   0.010  0.00  0.00    -0.020 A 
ATOM     24  C   LIG    1        0.002  -0.004   0.002  0.00  0.00    -0.040 A 
ATOM     25 CL   LIG    1       -1.489  -0.893   0.011  0.00  0.00    -0.040 Cl
ATOM     26 CL   LIG    1       -1.532   2.229   0.021  0.00  0.00    -0.040 Cl
ATOM     27  C   LIG    1        1.210  -0.678  -0.013  0.00  0.00    +0.080 A 
ENDBRANCH  19  20
ENDBRANCH  18  19
ENDBRANCH  17  18
ENDBRANCH   1  17
TORSDOF 6
