REMARK  Name = ZINCvU00000008wS.0
REMARK                            x       y       z     vdW  Elec       q    Type
REMARK                         _______ _______ _______ _____ _____    ______ ____
ROOT
ATOM      1  C   LIG    1        2.219  -4.435   2.224  0.00  0.00    +0.580 C 
ATOM      2  N   LIG    1        2.284  -4.636   0.893  0.00  0.00    -0.600 N 
ATOM      3  C   LIG    1        1.544  -5.665   0.141  0.00  0.00    +0.250 C 
ATOM      4  C   LIG    1        2.381  -5.900  -1.140  0.00  0.00    +0.040 C 
ATOM      5  C   LIG    1        2.881  -4.465  -1.454  0.00  0.00    +0.050 C 
ATOM      6  C   LIG    1        3.106  -3.863  -0.051  0.00  0.00    +0.310 C 
ATOM      7  O   LIG    1        2.878  -3.551   2.740  0.00  0.00    -0.550 OA
ENDROOT
BRANCH   6   8
ATOM      8  C   LIG    1        2.680  -2.418  -0.038  0.00  0.00    +0.090 A 
ATOM      9  N   LIG    1        1.462  -2.027  -0.024  0.00  0.00    -0.450 NA
ATOM     10  C   LIG    1        1.227  -0.701  -0.013  0.00  0.00    +0.080 A 
ATOM     11  C   LIG    1        0.002  -0.004   0.002  0.00  0.00    +0.070 A 
ATOM     12  C   LIG    1       -0.016   1.358   0.009  0.00  0.00    +0.030 A 
ATOM     13  C   LIG    1        1.166   2.084   0.002  0.00  0.00    +0.040 A 
ATOM     14  C   LIG    1        2.377   1.430  -0.013  0.00  0.00    +0.060 A 
ATOM     15  C   LIG    1        2.416   0.037  -0.021  0.00  0.00    -0.180 A 
ATOM     16  S   LIG    1        3.761  -1.098  -0.041  0.00  0.00    +0.110 S 
ENDBRANCH   6   8
BRANCH   1  18
ATOM     17  C   LIG    1        1.318  -5.051   4.360  0.00  0.00    +0.180 C 
ATOM     18  C   LIG    1        1.384  -5.253   3.022  0.00  0.00    -0.130 C 
BRANCH  17  21
ATOM     19  N   LIG    1       -0.992  -7.470   5.811  0.00  0.00    -0.470 N 
ATOM     20  C   LIG    1       -0.345  -6.919   4.754  0.00  0.00    +0.280 A 
ATOM     21  C   LIG    1        0.454  -5.897   5.186  0.00  0.00    -0.170 A 
ATOM     22  C   LIG    1        0.269  -5.811   6.646  0.00  0.00    -0.080 A 
ATOM     23  C   LIG    1        0.792  -4.988   7.640  0.00  0.00    +0.060 A 
ATOM     24  C   LIG    1        0.406  -5.170   8.950  0.00  0.00    -0.010 A 
ATOM     25  C   LIG    1       -0.499  -6.168   9.281  0.00  0.00    +0.030 A 
ATOM     26  C   LIG    1       -1.025  -6.990   8.307  0.00  0.00    -0.010 A 
ATOM     27  C   LIG    1       -0.647  -6.821   6.979  0.00  0.00    +0.090 A 
BRANCH  19  28
ATOM     28  C   LIG    1       -1.929  -8.593   5.723  0.00  0.00    +0.320 C 
BRANCH  28  29
ATOM     29  C   LIG    1       -3.359  -8.056   5.625  0.00  0.00    +0.200 C 
BRANCH  29  31
ATOM     30  N   LIG    1       -5.028 -10.054   5.470  0.00  0.00    -0.410 NA
ATOM     31  C   LIG    1       -4.301  -9.184   5.537  0.00  0.00    +0.200 C 
ENDBRANCH  29  31
ENDBRANCH  28  29
ENDBRANCH  19  28
ENDBRANCH  17  21
ENDBRANCH   1  18
TORSDOF 6
