REMARK  Name = ZINCqH0000050FLP.0
REMARK                            x       y       z     vdW  Elec       q    Type
REMARK                         _______ _______ _______ _____ _____    ______ ____
ROOT
ATOM      1  N   LIG    1        9.385   4.579   3.502  0.00  0.00    -0.540 NA
ATOM      2  C   LIG    1        9.954   3.421   2.799  0.00  0.00    +0.190 C 
ATOM      3  C   LIG    1        9.489   3.434   1.341  0.00  0.00    +0.180 C 
ATOM      4  N   LIG    1        8.020   3.404   1.297  0.00  0.00    -0.540 NA
ATOM      5  C   LIG    1        7.452   4.562   2.001  0.00  0.00    +0.180 C 
ATOM      6  C   LIG    1        7.917   4.549   3.459  0.00  0.00    +0.190 C 
ENDROOT
BRANCH   1   7
ATOM      7  C   LIG    1        9.870   4.643   4.887  0.00  0.00    +0.300 C 
BRANCH   7  12
ATOM      8  C   LIG    1        6.641   7.213   7.730  0.00  0.00    +0.140 C 
ATOM      9  C   LIG    1        7.805   6.896   6.827  0.00  0.00    +0.000 A 
ATOM     10  C   LIG    1        8.703   7.780   6.353  0.00  0.00    +0.110 A 
ATOM     11  N   LIG    1        9.583   7.074   5.577  0.00  0.00    -0.450 N 
ATOM     12  C   LIG    1        9.191   5.782   5.604  0.00  0.00    +0.210 A 
ATOM     13  C   LIG    1       10.734   7.619   4.853  0.00  0.00    +0.330 C 
ATOM     14  N   LIG    1        8.125   5.684   6.350  0.00  0.00    -0.480 NA
ENDBRANCH   7  12
ENDBRANCH   1   7
BRANCH   4  15
ATOM     15  C   LIG    1        7.535   3.339  -0.088  0.00  0.00    +0.280 C 
BRANCH  15  16
ATOM     16  C   LIG    1        6.054   3.063  -0.090  0.00  0.00    -0.170 A 
ATOM     17  C   LIG    1        5.098   3.997  -0.070  0.00  0.00    +0.010 A 
ATOM     18  C   LIG    1        3.807   3.512  -0.076  0.00  0.00    +0.010 A 
ATOM     19  C   LIG    1        3.710   2.167  -0.100  0.00  0.00    -0.150 A 
ATOM     20  S   LIG    1        5.322   1.464  -0.109  0.00  0.00    +0.150 S 
BRANCH  19  21
ATOM     21  C   LIG    1        2.445   1.403  -0.111  0.00  0.00    -0.020 A 
ATOM     22  C   LIG    1        1.221   2.072  -0.096  0.00  0.00    +0.030 A 
ATOM     23  C   LIG    1        0.044   1.353  -0.106  0.00  0.00    +0.020 A 
ATOM     24  C   LIG    1        0.076  -0.030  -0.131  0.00  0.00    +0.000 A 
ATOM     25  C   LIG    1        1.286  -0.701  -0.146  0.00  0.00    +0.020 A 
ATOM     26  C   LIG    1        2.470   0.007  -0.137  0.00  0.00    +0.010 A 
ENDBRANCH  19  21
ENDBRANCH  15  16
ENDBRANCH   4  15
TORSDOF 5
