REMARK  Name = ZINCkj000005lqn5.0
REMARK                            x       y       z     vdW  Elec       q    Type
REMARK                         _______ _______ _______ _____ _____    ______ ____
ROOT
ATOM      1  S   LIG    1       -0.154   1.845  -2.669  0.00  0.00    +2.710 S 
ATOM      2  O   LIG    1        1.247   2.019  -2.511  0.00  0.00    -0.930 OA
ATOM      3  O   LIG    1       -0.993   2.811  -3.287  0.00  0.00    -0.940 OA
ENDROOT
BRANCH   1   4
ATOM      4  C   LIG    1       -0.371   0.347  -3.572  0.00  0.00    -0.710 A 
ATOM      5  C   LIG    1        0.621  -0.617  -3.558  0.00  0.00    +0.180 A 
ATOM      6  C   LIG    1        0.451  -1.794  -4.260  0.00  0.00    -0.060 A 
ATOM      7  C   LIG    1       -0.711  -2.004  -4.989  0.00  0.00    +0.170 A 
ATOM      8  C   LIG    1       -1.702  -1.034  -5.006  0.00  0.00    +0.010 A 
ATOM      9  C   LIG    1       -1.529   0.140  -4.297  0.00  0.00    +0.180 A 
BRANCH   7  10
ATOM     10  O   LIG    1       -0.878  -3.160  -5.685  0.00  0.00    -0.310 OA
BRANCH  10  11
ATOM     11  C   LIG    1        0.184  -4.114  -5.622  0.00  0.00    +0.610 C 
ATOM     12  F   LIG    1        1.357  -3.540  -6.123  0.00  0.00    -0.160 F 
ATOM     13  F   LIG    1       -0.151  -5.235  -6.389  0.00  0.00    -0.120 F 
ATOM     14  F   LIG    1        0.385  -4.502  -4.293  0.00  0.00    -0.160 F 
ENDBRANCH  10  11
ENDBRANCH   7  10
ENDBRANCH   1   4
BRANCH   1  18
ATOM     15  C   LIG    1       -2.256   1.496   0.763  0.00  0.00    +0.170 C 
ATOM     16  C   LIG    1       -0.783   1.608   1.247  0.00  0.00    +0.070 C 
ATOM     17  C   LIG    1       -0.013   1.086   0.008  0.00  0.00    +0.310 C 
ATOM     18  N   LIG    1       -0.768   1.595  -1.151  0.00  0.00    -1.010 NA
ATOM     19  C   LIG    1       -2.156   1.845  -0.736  0.00  0.00    +0.300 C 
BRANCH  15  20
ATOM     20  N   LIG    1       -3.111   2.462   1.466  0.00  0.00    -0.630 N 
ATOM     21  H   LIG    1       -2.721   3.388   1.372  0.00  0.00    +0.440 HD
ATOM     22  H   LIG    1       -3.164   2.217   2.443  0.00  0.00    +0.440 HD
ATOM     23  H   LIG    1       -4.037   2.446   1.065  0.00  0.00    +0.440 HD
ENDBRANCH  15  20
ENDBRANCH   1  18
TORSDOF 5
