REMARK  Name = ZINCnE000001SseZ.0
REMARK                            x       y       z     vdW  Elec       q    Type
REMARK                         _______ _______ _______ _____ _____    ______ ____
ROOT
ATOM      1  O   LIG    1       -1.074   1.936   0.027  0.00  0.00    -0.490 OA
ATOM      2  C   LIG    1       -0.016   1.343   0.011  0.00  0.00    +0.510 C 
ATOM      3  N   LIG    1        0.002  -0.004   0.002  0.00  0.00    -0.680 N 
ATOM      4  H   LIG    1        0.845  -0.477  -0.083  0.00  0.00    +0.410 HD
ENDROOT
BRANCH   3   5
ATOM      5  C   LIG    1       -1.194  -0.721   0.115  0.00  0.00    +0.190 A 
ATOM      6  C   LIG    1       -1.220  -1.928   0.800  0.00  0.00    +0.000 A 
ATOM      7  C   LIG    1       -2.405  -2.631   0.916  0.00  0.00    -0.000 A 
ATOM      8  C   LIG    1       -3.562  -2.138   0.339  0.00  0.00    +0.010 A 
ATOM      9  C   LIG    1       -3.538  -0.938  -0.349  0.00  0.00    -0.000 A 
ATOM     10 CL   LIG    1       -4.992  -0.324  -1.071  0.00  0.00    -0.060 Cl
ATOM     11 CL   LIG    1       -2.439  -4.136   1.780  0.00  0.00    -0.060 Cl
ATOM     12  C   LIG    1       -2.357  -0.228  -0.462  0.00  0.00    +0.050 A 
ENDBRANCH   3   5
BRANCH   2  13
ATOM     13  C   LIG    1        1.279   2.115  -0.006  0.00  0.00    +0.180 C 
BRANCH  13  14
ATOM     14  C   LIG    1        0.983   3.592   0.009  0.00  0.00    -0.430 A 
ATOM     15  C   LIG    1        0.848   4.355   1.098  0.00  0.00    +0.410 A 
ATOM     16  N   LIG    1        0.591   5.628   0.847  0.00  0.00    -0.550 NA
ATOM     17  C   LIG    1        0.502   5.973  -0.400  0.00  0.00    +0.230 A 
ATOM     18  O   LIG    1        0.966   3.863   2.361  0.00  0.00    -0.710 OA
ATOM     19  S   LIG    1        0.764   4.617  -1.407  0.00  0.00    +0.030 S 
BRANCH  17  20
ATOM     20  N   LIG    1        0.239   7.257  -0.851  0.00  0.00    -0.440 N 
ATOM     21  C   LIG    1       -1.037   7.304  -1.609  0.00  0.00    +0.190 C 
ATOM     22  C   LIG    1       -1.422   8.804  -1.564  0.00  0.00    +0.030 C 
ATOM     23  C   LIG    1       -0.987   9.230  -0.143  0.00  0.00    +0.010 C 
ATOM     24  C   LIG    1        0.070   8.193   0.282  0.00  0.00    +0.200 C 
ENDBRANCH  17  20
ENDBRANCH  13  14
ENDBRANCH   2  13
TORSDOF 4
