REMARK  Name = ZINCpk00000e9Maw.0
REMARK                            x       y       z     vdW  Elec       q    Type
REMARK                         _______ _______ _______ _____ _____    ______ ____
ROOT
ATOM      1  CA  LIG    1       -1.244  -2.135   0.003  0.00  0.00    +0.300 C 
ENDROOT
BRANCH   1   2
ATOM      2  N   LIG    1       -2.643  -2.570   0.013  0.00  0.00    -0.710 N 
ATOM      3  H   LIG    1       -3.335  -1.985  -0.332  0.00  0.00    +0.410 HD
ATOM      4  C   LIG    1       -2.968  -3.783   0.503  0.00  0.00    +0.570 C 
ATOM      5  O   LIG    1       -2.101  -4.516   0.936  0.00  0.00    -0.530 OA
BRANCH   4   6
ATOM      6  C   LIG    1       -4.380  -4.221   0.514  0.00  0.00    -0.140 A 
ATOM      7  C   LIG    1       -5.379  -3.379   0.024  0.00  0.00    +0.050 A 
ATOM      8  C   LIG    1       -6.694  -3.796   0.033  0.00  0.00    +0.000 A 
ATOM      9  C   LIG    1       -7.025  -5.042   0.537  0.00  0.00    +0.040 A 
ATOM     10  C   LIG    1       -6.040  -5.879   1.029  0.00  0.00    +0.000 A 
ATOM     11  C   LIG    1       -4.720  -5.476   1.021  0.00  0.00    +0.080 A 
ENDBRANCH   4   6
ENDBRANCH   1   2
BRANCH   1  12
ATOM     12  C   LIG    1       -1.185  -0.630   0.010  0.00  0.00    +0.470 C 
ATOM     13  O   LIG    1       -2.208   0.015   0.023  0.00  0.00    -0.500 OA
BRANCH  12  14
ATOM     14  O   LIG    1        0.002  -0.004   0.002  0.00  0.00    -0.340 OA
BRANCH  14  15
ATOM     15  C   LIG    1       -0.018   1.448   0.010  0.00  0.00    +0.210 C 
BRANCH  15  16
ATOM     16  C   LIG    1        1.418   1.977  -0.001  0.00  0.00    +0.320 C 
BRANCH  16  18
ATOM     17  C   LIG    1        2.793   0.338  -1.364  0.00  0.00    +0.290 C 
ATOM     18  N   LIG    1        2.066   1.605  -1.261  0.00  0.00    -0.630 N 
BRANCH  18  19
ATOM     19  C   LIG    1        1.991   2.459  -2.364  0.00  0.00    +0.210 A 
ATOM     20  C   LIG    1        1.297   3.659  -2.269  0.00  0.00    -0.080 A 
ATOM     21  C   LIG    1        1.228   4.503  -3.360  0.00  0.00    +0.050 A 
ATOM     22  C   LIG    1        1.841   4.151  -4.548  0.00  0.00    -0.060 A 
ATOM     23  C   LIG    1        2.528   2.955  -4.648  0.00  0.00    +0.050 A 
ATOM     24  C   LIG    1        2.605   2.108  -3.559  0.00  0.00    -0.080 A 
ENDBRANCH  18  19
ENDBRANCH  16  18
ENDBRANCH  15  16
ENDBRANCH  14  15
ENDBRANCH  12  14
ENDBRANCH   1  12
BRANCH   1  25
ATOM     25  C   LIG    1       -0.555  -2.666  -1.256  0.00  0.00    +0.210 C 
BRANCH  25  26
ATOM     26  O   LIG    1       -1.146  -2.067  -2.411  0.00  0.00    -0.570 OA
ATOM     27  H   LIG    1       -0.757  -2.359  -3.248  0.00  0.00    +0.390 HD
ENDBRANCH  25  26
ENDBRANCH   1  25
TORSDOF 10
