REMARK  Name = ZINCtj00001n1jTU.0
REMARK                            x       y       z     vdW  Elec       q    Type
REMARK                         _______ _______ _______ _____ _____    ______ ____
ROOT
ATOM      1  O   LIG    1        4.018  -0.556   0.315  0.00  0.00    -0.550 OA
ATOM      2  C   LIG    1        3.062   0.013  -0.214  0.00  0.00    +0.570 C 
ATOM      3  C   LIG    1        2.798  -0.298  -1.624  0.00  0.00    -0.140 A 
ATOM      4  C   LIG    1        1.503  -0.465  -2.118  0.00  0.00    +0.060 A 
ATOM      5  C   LIG    1        1.298  -0.728  -3.457  0.00  0.00    -0.010 A 
ATOM      6  C   LIG    1        2.373  -0.871  -4.318  0.00  0.00    +0.070 A 
ATOM      7  C   LIG    1        3.662  -0.777  -3.833  0.00  0.00    -0.050 A 
ATOM      8  C   LIG    1        3.882  -0.504  -2.496  0.00  0.00    +0.170 A 
ATOM      9  O   LIG    1        5.147  -0.435  -2.011  0.00  0.00    -0.300 OA
ATOM     10  C   LIG    1        6.115   0.305  -2.747  0.00  0.00    +0.250 C 
ATOM     11  C   LIG    1        5.933   1.777  -2.498  0.00  0.00    -0.060 C 
ATOM     12  C   LIG    1        6.369   2.341  -1.403  0.00  0.00    +0.000 C 
ATOM     13  C   LIG    1        7.069   1.543  -0.335  0.00  0.00    +0.070 C 
ATOM     14  C   LIG    1        7.077   2.342   0.969  0.00  0.00    +0.090 C 
ATOM     15  C   LIG    1        5.653   2.644   1.375  0.00  0.00    +0.530 C 
ATOM     16  N   LIG    1        4.906   1.678   1.965  0.00  0.00    -0.710 N 
ATOM     17  H   LIG    1        5.272   0.789   2.115  0.00  0.00    +0.410 HD
ATOM     18  C   LIG    1        3.530   2.008   2.370  0.00  0.00    +0.270 C 
ATOM     19  C   LIG    1        2.593   0.856   2.009  0.00  0.00    +0.300 C 
ATOM     20  O   LIG    1        5.189   3.747   1.175  0.00  0.00    -0.490 OA
ATOM     21  C   LIG    1        7.748   1.526   2.075  0.00  0.00    +0.260 C 
ATOM     22  N   LIG    1        9.180   1.371   1.799  0.00  0.00    -0.500 N 
ATOM     23  C   LIG    1        9.809   2.696   1.712  0.00  0.00    +0.240 C 
ATOM     24  C   LIG    1        9.168   3.476   0.562  0.00  0.00    +0.260 C 
ATOM     25  H   LIG    1        9.311   0.876   0.932  0.00  0.00    +0.430 HD
ATOM     26  H   LIG    1        9.610   0.848   2.550  0.00  0.00    +0.440 HD
ATOM     27  O   LIG    1        7.764   3.579   0.783  0.00  0.00    -0.320 OA
ATOM     28  N   LIG    1        2.355   0.850   0.555  0.00  0.00    -0.600 N 
ENDROOT
BRANCH  28  29
ATOM     29  C   LIG    1        1.359   1.764  -0.001  0.00  0.00    +0.310 C 
BRANCH  29  30
ATOM     30  C   LIG    1        2.052   3.037  -0.493  0.00  0.00    -0.070 C 
ATOM     31  C   LIG    1        1.982   3.346  -1.990  0.00  0.00    +0.010 C 
ATOM     32  C   LIG    1        1.163   4.176  -0.997  0.00  0.00    +0.030 C 
ENDBRANCH  29  30
ENDBRANCH  28  29
TORSDOF 2
