REMARK  Name = ZINCrD000000AM4Q.0
REMARK                            x       y       z     vdW  Elec       q    Type
REMARK                         _______ _______ _______ _____ _____    ______ ____
ROOT
ATOM      1  C   LIG    1        0.048  -2.628   1.058  0.00  0.00    +0.250 C 
ATOM      2  C   LIG    1       -1.213  -1.768   1.171  0.00  0.00    +0.010 C 
ATOM      3  C   LIG    1       -1.252  -0.770   0.010  0.00  0.00    +0.280 C 
ATOM      4  N   LIG    1        0.002  -0.004   0.002  0.00  0.00    -0.620 N 
ATOM      5  C   LIG    1        1.276  -0.735  -0.020  0.00  0.00    +0.280 C 
ATOM      6  C   LIG    1       -0.016   1.344   0.009  0.00  0.00    +0.520 C 
ATOM      7  O   LIG    1       -1.075   1.936   0.018  0.00  0.00    -0.540 OA
ATOM      8  C   LIG    1        1.287  -1.734   1.147  0.00  0.00    +0.000 C 
ENDROOT
BRANCH   1  11
ATOM      9  O   LIG    1        1.354  -4.986   0.972  0.00  0.00    -0.590 OA
ATOM     10  C   LIG    1        0.756  -4.758   2.006  0.00  0.00    +0.700 C 
ATOM     11  N   LIG    1        0.072  -3.606   2.148  0.00  0.00    -0.740 N 
ATOM     12  H   LIG    1       -0.405  -3.424   2.973  0.00  0.00    +0.400 HD
ATOM     13  N   LIG    1        0.778  -5.657   3.009  0.00  0.00    -0.740 N 
ATOM     14  H   LIG    1        0.301  -5.475   3.834  0.00  0.00    +0.390 HD
BRANCH  13  15
ATOM     15  C   LIG    1        1.522  -6.910   2.854  0.00  0.00    +0.250 C 
ATOM     16  C   LIG    1        0.642  -7.941   2.145  0.00  0.00    +0.000 C 
ATOM     17  C   LIG    1        1.419  -9.249   1.983  0.00  0.00    +0.000 C 
ATOM     18  C   LIG    1        1.817  -9.780   3.361  0.00  0.00    +0.000 C 
ATOM     19  C   LIG    1        2.697  -8.749   4.070  0.00  0.00    +0.020 C 
ATOM     20  C   LIG    1        1.920  -7.441   4.232  0.00  0.00    +0.010 C 
ENDBRANCH  13  15
ENDBRANCH   1  11
BRANCH   6  21
ATOM     21  C   LIG    1        1.278   2.115   0.001  0.00  0.00    +0.060 C 
BRANCH  21  22
ATOM     22  C   LIG    1        0.979   3.615   0.012  0.00  0.00    +0.100 C 
BRANCH  22  23
ATOM     23  C   LIG    1        2.273   4.386   0.004  0.00  0.00    -0.090 A 
ATOM     24  C   LIG    1        2.875   4.738   1.198  0.00  0.00    +0.040 A 
ATOM     25  C   LIG    1        4.065   5.440   1.191  0.00  0.00    -0.010 A 
ATOM     26  C   LIG    1        4.649   5.802  -0.011  0.00  0.00    +0.090 A 
ATOM     27  C   LIG    1        4.042   5.454  -1.206  0.00  0.00    -0.010 A 
ATOM     28  F   LIG    1        5.809   6.494  -0.018  0.00  0.00    -0.140 F 
ATOM     29  C   LIG    1        2.855   4.746  -1.197  0.00  0.00    +0.040 A 
ENDBRANCH  22  23
ENDBRANCH  21  22
ENDBRANCH   6  21
TORSDOF 5
