REMARK  Name = ZINCrH000004jMQO.0
REMARK                            x       y       z     vdW  Elec       q    Type
REMARK                         _______ _______ _______ _____ _____    ______ ____
ROOT
ATOM      1  C   LIG    1       -3.199   1.498  -2.340  0.00  0.00    +0.500 C 
ATOM      2  N   LIG    1       -2.369   1.047  -1.379  0.00  0.00    -0.720 N 
ATOM      3  H   LIG    1       -2.046   1.653  -0.694  0.00  0.00    +0.400 HD
ATOM      4  O   LIG    1       -3.603   0.740  -3.196  0.00  0.00    -0.530 OA
ENDROOT
BRANCH   1   5
ATOM      5  C   LIG    1       -3.625   2.943  -2.351  0.00  0.00    +0.320 C 
BRANCH   5   7
ATOM      6  C   LIG    1       -3.969   3.588  -4.781  0.00  0.00    +0.280 C 
ATOM      7  N   LIG    1       -4.520   3.180  -3.486  0.00  0.00    -0.600 N 
ATOM      8  C   LIG    1       -5.851   3.024  -3.340  0.00  0.00    +0.570 C 
ATOM      9  O   LIG    1       -6.301   2.605  -2.291  0.00  0.00    -0.530 OA
BRANCH   8  10
ATOM     10  C   LIG    1       -6.762   3.361  -4.454  0.00  0.00    -0.130 A 
ATOM     11  C   LIG    1       -7.961   4.029  -4.202  0.00  0.00    +0.060 A 
ATOM     12  C   LIG    1       -8.804   4.345  -5.247  0.00  0.00    +0.000 A 
ATOM     13  C   LIG    1       -8.469   3.992  -6.541  0.00  0.00    +0.030 A 
ATOM     14  C   LIG    1       -7.284   3.324  -6.798  0.00  0.00    +0.000 A 
ATOM     15  C   LIG    1       -6.429   3.007  -5.763  0.00  0.00    +0.040 A 
ENDBRANCH   8  10
ENDBRANCH   5   7
ENDBRANCH   1   5
BRANCH   2  16
ATOM     16  C   LIG    1       -1.955  -0.358  -1.368  0.00  0.00    +0.280 C 
BRANCH  16  17
ATOM     17  C   LIG    1       -1.105  -0.630  -0.126  0.00  0.00    -0.030 C 
ATOM     18  C   LIG    1       -0.660  -2.094  -0.122  0.00  0.00    +0.040 C 
ATOM     19  C   LIG    1        0.166  -2.379  -1.378  0.00  0.00    +0.010 C 
ATOM     20  C   LIG    1        1.398  -1.472  -1.395  0.00  0.00    +0.000 C 
ATOM     21  C   LIG    1        0.954  -0.009  -1.399  0.00  0.00    +0.010 C 
ATOM     22  C   LIG    1        0.128   0.277  -0.143  0.00  0.00    +0.020 C 
BRANCH  17  23
ATOM     23  C   LIG    1       -1.918  -0.349   1.111  0.00  0.00    -0.080 A 
ATOM     24  C   LIG    1       -3.132  -0.982   1.299  0.00  0.00    +0.010 A 
ATOM     25  C   LIG    1       -3.878  -0.724   2.434  0.00  0.00    +0.010 A 
ATOM     26  C   LIG    1       -3.411   0.168   3.380  0.00  0.00    +0.000 A 
ATOM     27  C   LIG    1       -2.196   0.801   3.193  0.00  0.00    +0.000 A 
ATOM     28  C   LIG    1       -1.450   0.542   2.059  0.00  0.00    +0.010 A 
ENDBRANCH  17  23
ENDBRANCH  16  17
ENDBRANCH   2  16
TORSDOF 6
