REMARK  Name = ZINCrH000004pVvn.0
REMARK                            x       y       z     vdW  Elec       q    Type
REMARK                         _______ _______ _______ _____ _____    ______ ____
ROOT
ATOM      1  C   LIG    1       -3.107   4.199   0.159  0.00  0.00    +0.510 C 
ATOM      2  N   LIG    1       -1.792   4.364  -0.083  0.00  0.00    -0.640 N 
ATOM      3  H   LIG    1       -1.431   5.254  -0.218  0.00  0.00    +0.410 HD
ATOM      4  O   LIG    1       -3.575   3.083   0.234  0.00  0.00    -0.480 OA
ENDROOT
BRANCH   1  15
ATOM      5  C   LIG    1       -5.325   4.177   2.072  0.00  0.00    +0.110 C 
ATOM      6  C   LIG    1       -4.526   5.448   1.776  0.00  0.00    +0.170 C 
ATOM      7  O   LIG    1       -3.405   5.532   2.663  0.00  0.00    -0.300 OA
ATOM      8  C   LIG    1       -2.437   6.434   2.343  0.00  0.00    +0.060 A 
ATOM      9  C   LIG    1       -1.525   6.826   3.311  0.00  0.00    +0.030 A 
ATOM     10  C   LIG    1       -0.534   7.738   2.999  0.00  0.00    +0.040 A 
ATOM     11  C   LIG    1       -0.450   8.262   1.723  0.00  0.00    +0.020 A 
ATOM     12  C   LIG    1       -1.358   7.877   0.754  0.00  0.00    +0.030 A 
ATOM     13  C   LIG    1       -2.355   6.963   1.060  0.00  0.00    +0.020 A 
ATOM     14  O   LIG    1       -3.245   6.598   0.098  0.00  0.00    -0.300 OA
ATOM     15  C   LIG    1       -3.997   5.403   0.336  0.00  0.00    +0.210 C 
ENDBRANCH   1  15
BRANCH   2  16
ATOM     16  C   LIG    1       -0.949   3.254  -0.140  0.00  0.00    +0.310 A 
ATOM     17  C   LIG    1       -1.333   1.949  -0.084  0.00  0.00    -0.100 A 
ATOM     18  C   LIG    1       -0.182   1.160  -0.170  0.00  0.00    +0.250 A 
ATOM     19  N   LIG    1        0.852   1.953  -0.282  0.00  0.00    -0.280 NA
ATOM     20  N   LIG    1        0.397   3.278  -0.267  0.00  0.00    -0.380 N 
BRANCH  20  21
ATOM     21  C   LIG    1        1.232   4.477  -0.370  0.00  0.00    +0.370 C 
BRANCH  21  22
ATOM     22  C   LIG    1        1.493   4.785  -1.822  0.00  0.00    -0.120 A 
ATOM     23  C   LIG    1        2.539   4.167  -2.482  0.00  0.00    +0.070 A 
ATOM     24  C   LIG    1        2.775   4.443  -3.815  0.00  0.00    +0.030 A 
ATOM     25  C   LIG    1        1.972   5.348  -4.486  0.00  0.00    -0.020 A 
ATOM     26  C   LIG    1        0.929   5.970  -3.824  0.00  0.00    +0.030 A 
ATOM     27 CL   LIG    1        2.272   5.701  -6.159  0.00  0.00    -0.060 Cl
ATOM     28  C   LIG    1        0.690   5.688  -2.492  0.00  0.00    +0.040 A 
ENDBRANCH  21  22
ENDBRANCH  20  21
ENDBRANCH   2  16
TORSDOF 4
