REMARK  Name = ZINCrD00000fDmnb.0
REMARK                            x       y       z     vdW  Elec       q    Type
REMARK                         _______ _______ _______ _____ _____    ______ ____
ROOT
ATOM      1  O   LIG    1       -1.479   5.198  -0.073  0.00  0.00    -0.520 OA
ATOM      2  C   LIG    1       -0.980   4.097   0.025  0.00  0.00    +0.550 C 
ATOM      3  N   LIG    1       -0.612   3.424  -1.083  0.00  0.00    -0.610 N 
ATOM      4  C   LIG    1        0.086   2.131  -0.987  0.00  0.00    +0.260 C 
ATOM      5  C   LIG    1       -0.641   1.122  -1.883  0.00  0.00    +0.230 C 
ATOM      6  O   LIG    1       -0.783   1.673  -3.194  0.00  0.00    -0.370 OA
ATOM      7  C   LIG    1       -1.581   2.860  -3.247  0.00  0.00    +0.080 C 
ATOM      8  C   LIG    1       -2.958   2.570  -2.654  0.00  0.00    +0.060 C 
ATOM      9  C   LIG    1       -3.507   1.262  -3.234  0.00  0.00    -0.330 C 
ATOM     10  S   LIG    1       -3.659   1.460  -5.037  0.00  0.00    +2.250 S 
ATOM     11  C   LIG    1       -2.059   2.128  -5.593  0.00  0.00    -0.150 C 
ATOM     12  N   LIG    1       -4.704   2.495  -5.298  0.00  0.00    -1.060 NA
ATOM     13  O   LIG    1       -4.053   0.275  -5.715  0.00  0.00    -0.930 OA
ATOM     14  C   LIG    1       -1.703   3.321  -4.698  0.00  0.00    +0.130 C 
ATOM     15  C   LIG    1       -0.902   3.956  -2.424  0.00  0.00    +0.290 C 
ENDROOT
BRANCH  12  16
ATOM     16  C   LIG    1       -5.968   2.256  -4.981  0.00  0.00    +0.240 A 
ATOM     17  C   LIG    1       -6.338   1.016  -4.399  0.00  0.00    -0.150 A 
ATOM     18  C   LIG    1       -7.642   0.787  -4.074  0.00  0.00    +0.060 A 
ATOM     19  C   LIG    1       -8.608   1.756  -4.319  0.00  0.00    -0.060 A 
ATOM     20  C   LIG    1       -8.262   2.973  -4.893  0.00  0.00    +0.040 A 
ATOM     21  C   LIG    1       -6.965   3.234  -5.225  0.00  0.00    -0.020 A 
ENDBRANCH  12  16
BRANCH   2  22
ATOM     22  C   LIG    1       -0.771   3.482   1.385  0.00  0.00    -0.170 C 
ATOM     23  C   LIG    1       -1.800   3.803   2.471  0.00  0.00    +0.080 C 
ATOM     24  C   LIG    1       -1.766   2.411   1.836  0.00  0.00    +0.060 C 
BRANCH  22  25
ATOM     25  C   LIG    1        0.687   3.320   1.819  0.00  0.00    +0.060 C 
BRANCH  25  26
ATOM     26  C   LIG    1        1.382   4.683   1.791  0.00  0.00    +0.210 C 
ATOM     27  F   LIG    1        2.680   4.555   2.297  0.00  0.00    -0.210 F 
ENDBRANCH  25  26
ENDBRANCH  22  25
ENDBRANCH   2  22
TORSDOF 4
