REMARK  Name = ZINCrD00000lax2P.0
REMARK                            x       y       z     vdW  Elec       q    Type
REMARK                         _______ _______ _______ _____ _____    ______ ____
ROOT
ATOM      1  C   LIG    1       -2.594   0.951   1.974  0.00  0.00    +0.600 C 
ATOM      2  N   LIG    1       -1.810   0.658   0.917  0.00  0.00    -0.610 N 
ATOM      3  C   LIG    1       -2.396   0.258  -0.372  0.00  0.00    +0.240 C 
ATOM      4  C   LIG    1       -1.710  -1.033  -0.835  0.00  0.00    +0.220 C 
ATOM      5  O   LIG    1       -0.293  -0.848  -0.811  0.00  0.00    -0.370 OA
ATOM      6  C   LIG    1        0.241  -0.585   0.488  0.00  0.00    +0.220 C 
ATOM      7  C   LIG    1       -0.343   0.729   1.019  0.00  0.00    +0.290 C 
ATOM      8  O   LIG    1       -2.090   1.207   3.052  0.00  0.00    -0.480 OA
ENDROOT
BRANCH   1  13
ATOM      9  C   LIG    1       -7.791   1.349   0.589  0.00  0.00    +0.190 C 
ATOM     10  C   LIG    1       -6.425   1.143   1.191  0.00  0.00    +0.060 A 
ATOM     11  N   LIG    1       -6.202   0.653   2.368  0.00  0.00    -0.480 NA
ATOM     12  C   LIG    1       -4.954   0.539   2.747  0.00  0.00    +0.150 A 
ATOM     13  C   LIG    1       -4.053   0.961   1.825  0.00  0.00    -0.310 A 
ATOM     14  C   LIG    1       -4.553  -0.015   4.090  0.00  0.00    +0.170 C 
ATOM     15  S   LIG    1       -4.949   1.531   0.419  0.00  0.00    +0.160 S 
ENDBRANCH   1  13
BRANCH   7  16
ATOM     16  C   LIG    1        0.059   0.918   2.459  0.00  0.00    -0.210 A 
ATOM     17  C   LIG    1        0.752   1.966   2.962  0.00  0.00    +0.100 A 
ATOM     18  N   LIG    1        0.907   1.759   4.286  0.00  0.00    -0.390 N 
ATOM     19  N   LIG    1        0.290   0.543   4.609  0.00  0.00    -0.280 NA
ATOM     20  C   LIG    1        1.259   3.151   2.182  0.00  0.00    +0.140 C 
ATOM     21  C   LIG    1       -0.224   0.043   3.514  0.00  0.00    +0.150 A 
ATOM     22  C   LIG    1       -0.985  -1.253   3.407  0.00  0.00    +0.150 C 
BRANCH  18  23
ATOM     23  C   LIG    1        1.600   2.648   5.222  0.00  0.00    +0.370 C 
BRANCH  23  24
ATOM     24  C   LIG    1        0.603   3.654   5.802  0.00  0.00    +0.440 C 
ATOM     25  F   LIG    1        0.047   4.410   4.765  0.00  0.00    -0.180 F 
ATOM     26  F   LIG    1        1.264   4.503   6.696  0.00  0.00    -0.180 F 
ATOM     27  F   LIG    1       -0.413   2.968   6.476  0.00  0.00    -0.170 F 
ENDBRANCH  23  24
ENDBRANCH  18  23
ENDBRANCH   7  16
TORSDOF 4
