REMARK  Name = ZINCnE000001TTgh.0
REMARK                            x       y       z     vdW  Elec       q    Type
REMARK                         _______ _______ _______ _____ _____    ______ ____
ROOT
ATOM      1  C   LIG    1        1.420   2.051  -0.001  0.00  0.00    -0.040 C 
ATOM      2  C   LIG    1       -0.019   1.526   0.010  0.00  0.00    +0.040 C 
ATOM      3  C   LIG    1        0.002  -0.004   0.002  0.00  0.00    +0.180 C 
ATOM      4  N   LIG    1        0.706  -0.479  -1.196  0.00  0.00    -0.500 NA
ATOM      5  C   LIG    1        2.103  -0.026  -1.205  0.00  0.00    +0.150 C 
ATOM      6  C   LIG    1        2.145   1.503  -1.232  0.00  0.00    +0.040 C 
ENDROOT
BRANCH   1   8
ATOM      7  O   LIG    1        0.450   4.139  -0.522  0.00  0.00    -0.450 OA
ATOM      8  C   LIG    1        1.405   3.557  -0.053  0.00  0.00    +0.400 C 
BRANCH   8   9
ATOM      9  C   LIG    1        2.551   4.322   0.466  0.00  0.00    -0.160 A 
ATOM     10  C   LIG    1        3.652   3.656   1.012  0.00  0.00    +0.060 A 
ATOM     11  C   LIG    1        4.723   4.379   1.492  0.00  0.00    +0.000 A 
ATOM     12  C   LIG    1        4.706   5.762   1.442  0.00  0.00    +0.030 A 
ATOM     13  C   LIG    1        3.618   6.430   0.907  0.00  0.00    +0.000 A 
ATOM     14  C   LIG    1        2.542   5.720   0.419  0.00  0.00    +0.070 A 
ENDBRANCH   8   9
ENDBRANCH   1   8
BRANCH   4  15
ATOM     15  C   LIG    1        0.626  -1.941  -1.309  0.00  0.00    +0.110 C 
BRANCH  15  16
ATOM     16  C   LIG    1        1.358  -2.390  -2.547  0.00  0.00    -0.070 A 
ATOM     17  C   LIG    1        1.291  -1.725  -3.701  0.00  0.00    -0.010 A 
ATOM     18  S   LIG    1        2.272  -2.542  -4.911  0.00  0.00    +0.040 S 
ATOM     19  C   LIG    1        2.724  -3.783  -3.749  0.00  0.00    -0.060 A 
ATOM     20  C   LIG    1        2.147  -3.527  -2.575  0.00  0.00    +0.030 A 
ENDBRANCH  15  16
BRANCH  15  21
ATOM     21  C   LIG    1       -0.819  -2.359  -1.401  0.00  0.00    +0.510 C 
ATOM     22  O   LIG    1       -1.119  -3.538  -1.318  0.00  0.00    -0.690 OA
ATOM     23  O   LIG    1       -1.688  -1.519  -1.558  0.00  0.00    -0.670 OA
ENDBRANCH  15  21
ENDBRANCH   4  15
TORSDOF 5
