REMARK  Name = ZINCkj000005mkq6.0
REMARK                            x       y       z     vdW  Elec       q    Type
REMARK                         _______ _______ _______ _____ _____    ______ ____
ROOT
ATOM      1  C   LIG    1        2.374   4.248  -0.123  0.00  0.00    +0.250 C 
ENDROOT
BRANCH   1   2
ATOM      2  N   LIG    1        2.162   5.701  -0.114  0.00  0.00    -0.500 N 
ATOM      3  H   LIG    1        1.724   5.971   0.754  0.00  0.00    +0.430 HD
ATOM      4  H   LIG    1        1.566   5.959  -0.886  0.00  0.00    +0.430 HD
BRANCH   2   5
ATOM      5  C   LIG    1        3.455   6.386  -0.243  0.00  0.00    +0.270 C 
BRANCH   5   6
ATOM      6  C   LIG    1        3.234   7.900  -0.233  0.00  0.00    +0.030 C 
BRANCH   6   7
ATOM      7  C   LIG    1        4.581   8.613  -0.368  0.00  0.00    +0.310 C 
BRANCH   7   8
ATOM      8  N   LIG    1        4.369  10.062  -0.358  0.00  0.00    -0.470 N 
ATOM      9  C   LIG    1        4.358  10.874   0.744  0.00  0.00    +0.120 A 
ATOM     10  C   LIG    1        4.131  12.126   0.304  0.00  0.00    +0.150 A 
ATOM     11  N   LIG    1        4.008  12.080  -1.031  0.00  0.00    -0.480 NA
ATOM     12  C   LIG    1        4.155  10.848  -1.435  0.00  0.00    +0.390 A 
ENDBRANCH   7   8
ENDBRANCH   6   7
ENDBRANCH   5   6
ENDBRANCH   2   5
ENDBRANCH   1   2
BRANCH   1  13
ATOM     13  C   LIG    1        1.027   3.535   0.011  0.00  0.00    +0.230 C 
BRANCH  13  14
ATOM     14  O   LIG    1        0.406   3.917   1.240  0.00  0.00    -0.540 OA
ATOM     15  H   LIG    1        0.925   3.699   2.027  0.00  0.00    +0.390 HD
ENDBRANCH  13  14
BRANCH  13  16
ATOM     16  C   LIG    1        1.248   2.021   0.001  0.00  0.00    +0.190 C 
BRANCH  16  17
ATOM     17  O   LIG    1       -0.016   1.355   0.009  0.00  0.00    -0.300 OA
BRANCH  17  18
ATOM     18  C   LIG    1        0.002  -0.004   0.002  0.00  0.00    +0.120 A 
ATOM     19  C   LIG    1        1.212  -0.682  -0.019  0.00  0.00    -0.090 A 
ATOM     20  C   LIG    1        1.228  -2.064  -0.021  0.00  0.00    +0.050 A 
ATOM     21  C   LIG    1        0.040  -2.770  -0.013  0.00  0.00    -0.020 A 
ATOM     22  C   LIG    1       -1.168  -2.096   0.002  0.00  0.00    +0.060 A 
ATOM     23  C   LIG    1       -1.189  -0.715   0.010  0.00  0.00    -0.010 A 
ENDBRANCH  17  18
ENDBRANCH  16  17
ENDBRANCH  13  16
ENDBRANCH   1  13
TORSDOF 10
