REMARK  Name = ZINCrH00000tj14I.0
REMARK                            x       y       z     vdW  Elec       q    Type
REMARK                         _______ _______ _______ _____ _____    ______ ____
ROOT
ATOM      1  N   LIG    1        2.546  -2.989   3.218  0.00  0.00    -0.600 N 
ATOM      2  C   LIG    1        2.395  -1.887   2.457  0.00  0.00    +0.490 C 
ATOM      3  O   LIG    1        3.039  -0.889   2.700  0.00  0.00    -0.530 OA
ATOM      4  C   LIG    1        1.767  -4.195   2.925  0.00  0.00    +0.300 C 
ENDROOT
BRANCH   2   5
ATOM      5  C   LIG    1        1.424  -1.896   1.304  0.00  0.00    +0.180 C 
ATOM      6  C   LIG    1        1.828  -2.982   0.305  0.00  0.00    +0.060 C 
BRANCH   5   7
ATOM      7  N   LIG    1        1.444  -0.586   0.638  0.00  0.00    -0.650 NA
ATOM      8  H   LIG    1        2.390  -0.253   0.523  0.00  0.00    +0.350 HD
BRANCH   7   9
ATOM      9  C   LIG    1        0.627   0.390   1.371  0.00  0.00    +0.190 C 
ATOM     10  C   LIG    1       -0.812   0.341   0.855  0.00  0.00    +0.050 C 
BRANCH   9  11
ATOM     11  C   LIG    1        1.189   1.773   1.162  0.00  0.00    -0.070 A 
ATOM     12  C   LIG    1        1.934   2.052   0.032  0.00  0.00    +0.040 A 
ATOM     13  C   LIG    1        2.449   3.321  -0.160  0.00  0.00    +0.020 A 
ATOM     14  C   LIG    1        2.220   4.310   0.778  0.00  0.00    +0.020 A 
ATOM     15  C   LIG    1        1.475   4.031   1.909  0.00  0.00    +0.020 A 
ATOM     16  C   LIG    1        0.954   2.764   2.098  0.00  0.00    -0.030 A 
ATOM     17 CL   LIG    1        0.012   2.415   3.514  0.00  0.00    -0.070 Cl
ENDBRANCH   9  11
ENDBRANCH   7   9
ENDBRANCH   5   7
ENDBRANCH   2   5
BRANCH   1  18
ATOM     18  C   LIG    1        3.489  -2.981   4.339  0.00  0.00    +0.330 C 
BRANCH  18  21
ATOM     19  N   LIG    1        3.455  -2.436   6.752  0.00  0.00    -0.670 N 
ATOM     20  H   LIG    1        4.413  -2.591   6.770  0.00  0.00    +0.410 HD
ATOM     21  C   LIG    1        2.781  -2.523   5.588  0.00  0.00    +0.500 C 
ATOM     22  O   LIG    1        1.604  -2.231   5.546  0.00  0.00    -0.510 OA
BRANCH  19  27
ATOM     23  C   LIG    1        0.695  -1.171  11.544  0.00  0.00    +0.100 C 
ATOM     24  C   LIG    1        1.428  -1.507  10.271  0.00  0.00    -0.100 A 
ATOM     25  C   LIG    1        0.808  -2.269   9.298  0.00  0.00    +0.030 A 
ATOM     26  C   LIG    1        1.477  -2.579   8.130  0.00  0.00    +0.010 A 
ATOM     27  C   LIG    1        2.774  -2.124   7.934  0.00  0.00    +0.140 A 
ATOM     28  C   LIG    1        3.396  -1.363   8.915  0.00  0.00    -0.010 A 
ATOM     29  C   LIG    1        2.720  -1.052  10.078  0.00  0.00    +0.030 A 
ENDBRANCH  19  27
ENDBRANCH  18  21
ENDBRANCH   1  18
TORSDOF 7
