REMARK  Name = ZINCpe00000MIHim.0
REMARK                            x       y       z     vdW  Elec       q    Type
REMARK                         _______ _______ _______ _____ _____    ______ ____
ROOT
ATOM      1  N   LIG    1        4.963   0.806   0.691  0.00  0.00    -0.700 N 
ATOM      2  H   LIG    1        4.947  -0.126   0.959  0.00  0.00    +0.410 HD
ENDROOT
BRANCH   1  11
ATOM      3  C   LIG    1        1.123  -2.502   1.548  0.00  0.00    +0.190 C 
ATOM      4  N   LIG    1        1.182  -1.066   1.242  0.00  0.00    -0.540 NA
ATOM      5  C   LIG    1        0.219  -0.712   0.187  0.00  0.00    +0.180 C 
ATOM      6  C   LIG    1        0.059   0.809   0.164  0.00  0.00    +0.130 C 
ATOM      7  C   LIG    1        1.413   1.466   0.117  0.00  0.00    +0.220 A 
ATOM      8  N   LIG    1        1.503   2.741  -0.244  0.00  0.00    -0.560 NA
ATOM      9  C   LIG    1        2.668   3.353  -0.295  0.00  0.00    +0.530 A 
ATOM     10  N   LIG    1        3.791   2.733   0.006  0.00  0.00    -0.560 NA
ATOM     11  C   LIG    1        3.781   1.456   0.374  0.00  0.00    +0.450 A 
ATOM     12  C   LIG    1        2.559   0.779   0.437  0.00  0.00    -0.240 A 
ATOM     13  C   LIG    1        2.538  -0.667   0.850  0.00  0.00    +0.240 C 
ENDBRANCH   1  11
BRANCH   1  14
ATOM     14  C   LIG    1        6.237   1.526   0.621  0.00  0.00    +0.290 C 
ATOM     15  C   LIG    1        7.244   0.871   1.569  0.00  0.00    +0.040 C 
ATOM     16  C   LIG    1        8.632   1.456   1.281  0.00  0.00    +0.050 C 
ATOM     17  C   LIG    1        9.079   0.999  -0.108  0.00  0.00    +0.270 C 
ATOM     18  N   LIG    1        8.037   1.266  -1.092  0.00  0.00    -0.550 N 
ATOM     19  C   LIG    1        6.758   1.483  -0.787  0.00  0.00    +0.500 C 
ATOM     20  O   LIG    1        5.972   1.656  -1.695  0.00  0.00    -0.500 OA
BRANCH  18  21
ATOM     21  C   LIG    1        8.403   1.298  -2.438  0.00  0.00    +0.300 A 
ATOM     22  C   LIG    1        8.412   0.240  -3.294  0.00  0.00    -0.100 A 
ATOM     23  C   LIG    1        8.839   0.702  -4.542  0.00  0.00    +0.240 A 
ATOM     24  N   LIG    1        9.079   1.985  -4.445  0.00  0.00    -0.280 NA
ATOM     25  N   LIG    1        8.807   2.387  -3.131  0.00  0.00    -0.370 N 
ATOM     26  C   LIG    1        8.940   3.746  -2.600  0.00  0.00    +0.350 C 
ENDBRANCH  18  21
ENDBRANCH   1  14
TORSDOF 3
