REMARK  Name = ZINCrH00000No4FM.0
REMARK                            x       y       z     vdW  Elec       q    Type
REMARK                         _______ _______ _______ _____ _____    ______ ____
ROOT
ATOM      1  N   LIG    1       -1.753   2.342   1.404  0.00  0.00    -0.180 NA
ATOM      2  N   LIG    1       -1.921   3.499   1.817  0.00  0.00    -0.190 NA
ENDROOT
BRANCH   2   3
ATOM      3  C   LIG    1       -2.314   3.714   3.112  0.00  0.00    +0.140 A 
ATOM      4  C   LIG    1       -2.526   2.633   3.970  0.00  0.00    +0.070 A 
ATOM      5  C   LIG    1       -2.921   2.857   5.272  0.00  0.00    +0.150 A 
ATOM      6  C   LIG    1       -3.107   4.150   5.729  0.00  0.00    -0.170 A 
ATOM      7  C   LIG    1       -2.899   5.226   4.885  0.00  0.00    +0.160 A 
ATOM      8  C   LIG    1       -2.498   5.016   3.582  0.00  0.00    -0.000 A 
BRANCH   6   9
ATOM      9  C   LIG    1       -3.540   4.386   7.154  0.00  0.00    +0.520 C 
ATOM     10  F   LIG    1       -4.761   5.068   7.163  0.00  0.00    -0.170 F 
ATOM     11  F   LIG    1       -2.573   5.153   7.813  0.00  0.00    -0.170 F 
ATOM     12  F   LIG    1       -3.686   3.158   7.807  0.00  0.00    -0.170 F 
ENDBRANCH   6   9
BRANCH   8  13
ATOM     13  N   LIG    1       -2.270   6.169   2.682  0.00  0.00    +0.020 N 
ATOM     14  O   LIG    1       -1.921   5.982   1.530  0.00  0.00    -0.100 OA
ATOM     15  O   LIG    1       -2.432   7.304   3.093  0.00  0.00    -0.170 OA
ENDBRANCH   8  13
ENDBRANCH   2   3
BRANCH   1  16
ATOM     16  C   LIG    1       -1.333   2.112   0.020  0.00  0.00    +0.280 C 
BRANCH  16  19
ATOM     17  C   LIG    1        1.211  -0.683  -0.014  0.00  0.00    +0.140 A 
ATOM     18  C   LIG    1        0.002  -0.004   0.002  0.00  0.00    -0.070 A 
ATOM     19  C   LIG    1       -0.017   1.378   0.010  0.00  0.00    -0.020 A 
ATOM     20  C   LIG    1        1.169   2.089   0.002  0.00  0.00    -0.080 A 
ATOM     21  C   LIG    1        2.382   1.418  -0.013  0.00  0.00    +0.140 A 
ATOM     22  C   LIG    1        2.405   0.028  -0.021  0.00  0.00    +0.050 A 
BRANCH  17  24
ATOM     23  C   LIG    1       -0.036  -2.708  -0.014  0.00  0.00    +0.240 C 
ATOM     24  O   LIG    1        1.228  -2.043  -0.022  0.00  0.00    -0.300 OA
ENDBRANCH  17  24
BRANCH  21  25
ATOM     25  O   LIG    1        3.548   2.119  -0.021  0.00  0.00    -0.300 OA
ATOM     26  C   LIG    1        3.448   3.544  -0.011  0.00  0.00    +0.250 C 
ENDBRANCH  21  25
BRANCH  22  27
ATOM     27  O   LIG    1        3.594  -0.634  -0.037  0.00  0.00    -0.470 OA
ATOM     28  H   LIG    1        3.929  -0.820  -0.925  0.00  0.00    +0.390 HD
ENDBRANCH  22  27
ENDBRANCH  16  19
ENDBRANCH   1  16
TORSDOF 8
