REMARK  Name = ZINCrH00000No4FM.1
REMARK                            x       y       z     vdW  Elec       q    Type
REMARK                         _______ _______ _______ _____ _____    ______ ____
ROOT
ATOM      1  N   LIG    1        2.240   0.855   0.031  0.00  0.00    -0.560 N 
ATOM      2  H   LIG    1        3.119   1.257  -0.048  0.00  0.00    +0.410 HD
ENDROOT
BRANCH   1   3
ATOM      3  C   LIG    1        1.101   1.661   0.024  0.00  0.00    +0.320 A 
ATOM      4  C   LIG    1       -0.162   1.082   0.021  0.00  0.00    +0.000 A 
ATOM      5  C   LIG    1       -1.287   1.883   0.007  0.00  0.00    +0.180 A 
ATOM      6  C   LIG    1       -1.158   3.260   0.007  0.00  0.00    -0.230 A 
ATOM      7  C   LIG    1        0.098   3.840   0.009  0.00  0.00    +0.210 A 
ATOM      8  C   LIG    1        1.227   3.045   0.018  0.00  0.00    -0.120 A 
BRANCH   6   9
ATOM      9  C   LIG    1       -2.388   4.130  -0.002  0.00  0.00    +0.520 C 
ATOM     10  F   LIG    1       -2.111   5.335   0.653  0.00  0.00    -0.170 F 
ATOM     11  F   LIG    1       -3.431   3.470   0.656  0.00  0.00    -0.170 F 
ATOM     12  F   LIG    1       -2.763   4.394  -1.324  0.00  0.00    -0.170 F 
ENDBRANCH   6   9
BRANCH   8  13
ATOM     13  N   LIG    1        2.572   3.668   0.021  0.00  0.00    +0.050 N 
ATOM     14  O   LIG    1        3.566   2.971  -0.078  0.00  0.00    -0.200 OA
ATOM     15  O   LIG    1        2.683   4.876   0.123  0.00  0.00    -0.130 OA
ENDBRANCH   8  13
ENDBRANCH   1   3
BRANCH   1  17
ATOM     16  C   LIG    1        3.173  -1.285   0.161  0.00  0.00    +0.260 C 
ATOM     17  N   LIG    1        2.114  -0.535   0.153  0.00  0.00    -0.250 NA
BRANCH  16  20
ATOM     18  C   LIG    1        4.052  -4.928   0.419  0.00  0.00    +0.140 A 
ATOM     19  C   LIG    1        4.180  -3.556   0.297  0.00  0.00    -0.060 A 
ATOM     20  C   LIG    1        3.040  -2.748   0.289  0.00  0.00    +0.010 A 
ATOM     21  C   LIG    1        1.775  -3.328   0.409  0.00  0.00    -0.040 A 
ATOM     22  C   LIG    1        1.653  -4.701   0.525  0.00  0.00    +0.140 A 
ATOM     23  C   LIG    1        2.790  -5.503   0.533  0.00  0.00    +0.060 A 
BRANCH  18  25
ATOM     24  C   LIG    1        6.424  -5.059   0.307  0.00  0.00    +0.250 C 
ATOM     25  O   LIG    1        5.160  -5.716   0.427  0.00  0.00    -0.300 OA
ENDBRANCH  18  25
BRANCH  22  26
ATOM     26  O   LIG    1        0.422  -5.266   0.637  0.00  0.00    -0.300 OA
ATOM     27  C   LIG    1       -0.702  -4.383   0.623  0.00  0.00    +0.250 C 
ENDBRANCH  22  26
BRANCH  23  28
ATOM     28  O   LIG    1        2.667  -6.853   0.652  0.00  0.00    -0.470 OA
ATOM     29  H   LIG    1        2.678  -7.170   1.565  0.00  0.00    +0.390 HD
ENDBRANCH  23  28
ENDBRANCH  16  20
ENDBRANCH   1  17
TORSDOF 8
