REMARK  Name = ZINCpe00000bTIOz.0
REMARK                            x       y       z     vdW  Elec       q    Type
REMARK                         _______ _______ _______ _____ _____    ______ ____
ROOT
ATOM      1  C   LIG    1        1.011  -3.259   3.410  0.00  0.00    +0.300 C 
ENDROOT
BRANCH   1   2
ATOM      2  N   LIG    1        0.480  -2.020   3.982  0.00  0.00    -0.610 N 
ATOM      3  C   LIG    1       -0.648  -1.477   3.484  0.00  0.00    +0.610 C 
ATOM      4  O   LIG    1       -1.187  -1.976   2.513  0.00  0.00    -0.520 OA
ATOM      5  C   LIG    1        1.175  -1.371   5.097  0.00  0.00    +0.280 C 
BRANCH   3   6
ATOM      6  C   LIG    1       -1.227  -0.285   4.111  0.00  0.00    -0.290 A 
ATOM      7  C   LIG    1       -2.598   0.005   4.255  0.00  0.00    +0.320 A 
ATOM      8  N   LIG    1       -3.700  -0.655   3.898  0.00  0.00    -0.450 NA
ATOM      9  C   LIG    1       -4.893  -0.162   4.152  0.00  0.00    +0.380 A 
ATOM     10  C   LIG    1       -5.019   1.070   4.803  0.00  0.00    -0.050 A 
ATOM     11  C   LIG    1       -3.901   1.747   5.169  0.00  0.00    +0.360 A 
ATOM     12  N   LIG    1       -2.679   1.210   4.893  0.00  0.00    -0.310 N 
ATOM     13  N   LIG    1       -1.378   1.661   5.141  0.00  0.00    -0.310 NA
ATOM     14  C   LIG    1       -0.519   0.784   4.689  0.00  0.00    +0.320 A 
ENDBRANCH   3   6
ENDBRANCH   1   2
BRANCH   1  16
ATOM     15  C   LIG    1        2.438  -4.214   1.595  0.00  0.00    +0.030 C 
ATOM     16  C   LIG    1        1.980  -2.922   2.274  0.00  0.00    +0.210 C 
BRANCH  16  17
ATOM     17  N   LIG    1        1.304  -2.068   1.294  0.00  0.00    -0.710 N 
ATOM     18  H   LIG    1        0.338  -2.095   1.211  0.00  0.00    +0.420 HD
ATOM     19  C   LIG    1        2.025  -1.245   0.507  0.00  0.00    +0.520 C 
ATOM     20  O   LIG    1        3.233  -1.212   0.610  0.00  0.00    -0.540 OA
BRANCH  19  21
ATOM     21  C   LIG    1        1.331  -0.367  -0.502  0.00  0.00    +0.090 C 
ATOM     22  C   LIG    1        2.200   0.873  -0.803  0.00  0.00    +0.050 C 
ATOM     23  C   LIG    1        1.560   1.954   0.110  0.00  0.00    +0.010 C 
ATOM     24  C   LIG    1        0.070   1.533   0.064  0.00  0.00    +0.190 C 
ATOM     25  C   LIG    1        1.080  -1.153  -1.790  0.00  0.00    +0.060 C 
ATOM     26  O   LIG    1        0.086   0.097   0.034  0.00  0.00    -0.360 OA
ENDBRANCH  19  21
ENDBRANCH  16  17
ENDBRANCH   1  16
TORSDOF 5
