REMARK  Name = ZINCpe00000MJMjP.0
REMARK                            x       y       z     vdW  Elec       q    Type
REMARK                         _______ _______ _______ _____ _____    ______ ____
ROOT
ATOM      1  N   LIG    1        0.236   2.075  -1.405  0.00  0.00    -0.590 N 
ATOM      2  C   LIG    1        0.581   1.391  -0.151  0.00  0.00    +0.300 C 
ATOM      3  C   LIG    1       -0.477   1.735   0.905  0.00  0.00    +0.280 C 
ATOM      4  N   LIG    1       -0.668   3.193   0.919  0.00  0.00    -0.620 N 
ATOM      5  C   LIG    1       -1.012   3.877  -0.336  0.00  0.00    +0.270 C 
ATOM      6  C   LIG    1       -0.528   3.890   2.064  0.00  0.00    +0.520 C 
ATOM      7  O   LIG    1       -0.158   3.329   3.074  0.00  0.00    -0.530 OA
ATOM      8  C   LIG    1        0.048   3.532  -1.389  0.00  0.00    +0.280 C 
ENDROOT
BRANCH   1  16
ATOM      9  C   LIG    1        0.890  -3.049  -3.158  0.00  0.00    +0.210 C 
ATOM     10  C   LIG    1        0.422  -1.966  -4.095  0.00  0.00    +0.210 A 
ATOM     11  N   LIG    1        0.135  -2.113  -5.365  0.00  0.00    -0.260 NA
ATOM     12  N   LIG    1       -0.233  -0.987  -5.870  0.00  0.00    -0.240 NA
ATOM     13  C   LIG    1       -0.196  -0.055  -4.931  0.00  0.00    +0.110 A 
ATOM     14  C   LIG    1       -0.486   1.323  -4.914  0.00  0.00    +0.190 A 
ATOM     15  C   LIG    1       -0.342   2.015  -3.754  0.00  0.00    -0.030 A 
ATOM     16  C   LIG    1        0.092   1.356  -2.587  0.00  0.00    +0.420 A 
ATOM     17  N   LIG    1        0.368   0.073  -2.603  0.00  0.00    -0.340 NA
ATOM     18  N   LIG    1        0.225  -0.669  -3.778  0.00  0.00    -0.270 N 
ENDBRANCH   1  16
BRANCH   6  19
ATOM     19  C   LIG    1       -0.831   5.366   2.090  0.00  0.00    -0.010 C 
ATOM     20  C   LIG    1       -0.058   6.016   3.254  0.00  0.00    +0.050 C 
ATOM     21  C   LIG    1        0.013   7.504   3.027  0.00  0.00    -0.020 C 
ATOM     22  C   LIG    1       -1.171   8.252   3.663  0.00  0.00    +0.200 C 
ATOM     23  O   LIG    1       -2.434   7.586   3.476  0.00  0.00    -0.380 OA
ATOM     24  C   LIG    1       -2.675   7.041   2.205  0.00  0.00    +0.210 C 
ATOM     25  C   LIG    1       -2.276   5.553   2.222  0.00  0.00    +0.000 C 
ENDBRANCH   6  19
TORSDOF 2
