REMARK  Name = ZINCqH0000034K63.0
REMARK                            x       y       z     vdW  Elec       q    Type
REMARK                         _______ _______ _______ _____ _____    ______ ____
ROOT
ATOM      1  N   LIG    1       -1.237   2.069   0.019  0.00  0.00    -1.050 N 
ATOM      2  H   LIG    1       -1.372   2.827  -0.570  0.00  0.00    +0.430 HD
ENDROOT
BRANCH   1   8
ATOM      3  C   LIG    1        6.237   1.957  -0.047  0.00  0.00    +0.320 C 
ATOM      4  N   LIG    1        4.916   1.324  -0.038  0.00  0.00    -0.620 N 
ATOM      5  C   LIG    1        3.695   2.147  -0.021  0.00  0.00    +0.310 C 
ATOM      6  C   LIG    1        2.374   1.413  -0.013  0.00  0.00    -0.120 A 
ATOM      7  C   LIG    1        1.180   2.094   0.002  0.00  0.00    +0.060 A 
ATOM      8  C   LIG    1       -0.017   1.384   0.010  0.00  0.00    +0.120 A 
ATOM      9  C   LIG    1        0.002  -0.004   0.002  0.00  0.00    +0.060 A 
ATOM     10  C   LIG    1        1.204  -0.684  -0.014  0.00  0.00    +0.010 A 
ATOM     11  C   LIG    1        2.399   0.022  -0.021  0.00  0.00    +0.170 A 
ATOM     12  N   LIG    1        3.624  -0.651  -0.036  0.00  0.00    -0.660 N 
ATOM     13  H   LIG    1        3.620  -1.621  -0.042  0.00  0.00    +0.430 HD
ATOM     14  C   LIG    1        4.804  -0.017  -0.044  0.00  0.00    +0.710 C 
ATOM     15  O   LIG    1        5.820  -0.683  -0.058  0.00  0.00    -0.580 OA
ENDBRANCH   1   8
BRANCH   1  16
ATOM     16  S   LIG    1       -2.450   1.584   1.036  0.00  0.00    +2.690 S 
ATOM     17  O   LIG    1       -2.574   0.178   0.872  0.00  0.00    -0.950 OA
ATOM     18  O   LIG    1       -3.528   2.487   0.835  0.00  0.00    -0.950 OA
BRANCH  16  19
ATOM     19  C   LIG    1       -1.885   1.844   2.685  0.00  0.00    -0.680 A 
ATOM     20  C   LIG    1       -1.210   0.838   3.351  0.00  0.00    +0.130 A 
ATOM     21  C   LIG    1       -0.762   1.043   4.642  0.00  0.00    +0.000 A 
ATOM     22  C   LIG    1       -0.997   2.252   5.271  0.00  0.00    -0.010 A 
ATOM     23  C   LIG    1       -1.676   3.256   4.607  0.00  0.00    -0.010 A 
ATOM     24  C   LIG    1       -2.120   3.052   3.313  0.00  0.00    +0.120 A 
BRANCH  22  25
ATOM     25  C   LIG    1       -0.514   2.474   6.681  0.00  0.00    -0.040 C 
ATOM     26  C   LIG    1        0.457   3.656   6.707  0.00  0.00    +0.040 C 
ATOM     27  C   LIG    1        0.200   1.216   7.180  0.00  0.00    +0.030 C 
ATOM     28  C   LIG    1       -1.709   2.775   7.588  0.00  0.00    +0.040 C 
ENDBRANCH  22  25
ENDBRANCH  16  19
ENDBRANCH   1  16
TORSDOF 4
