REMARK  Name = ZINCfA000000Jm2r.0
REMARK                            x       y       z     vdW  Elec       q    Type
REMARK                         _______ _______ _______ _____ _____    ______ ____
ROOT
ATOM      1  C   LIG    1        3.978   2.430  -1.532  0.00  0.00    -0.060 C 
ATOM      2  C   LIG    1        3.885   1.030  -2.144  0.00  0.00    +0.070 C 
ATOM      3  C   LIG    1        5.048   0.177  -1.630  0.00  0.00    +0.250 C 
ATOM      4  N   LIG    1        6.321   0.797  -2.015  0.00  0.00    -0.500 N 
ATOM      5  C   LIG    1        6.449   2.111  -1.374  0.00  0.00    +0.250 C 
ATOM      6  H   LIG    1        7.084   0.205  -1.721  0.00  0.00    +0.430 HD
ATOM      7  H   LIG    1        6.351   0.908  -3.017  0.00  0.00    +0.430 HD
ATOM      8  C   LIG    1        5.341   3.038  -1.877  0.00  0.00    +0.070 C 
ENDROOT
BRANCH   1  10
ATOM      9  C   LIG    1        1.511   2.639  -1.869  0.00  0.00    +0.020 C 
ATOM     10  C   LIG    1        2.865   3.313  -2.100  0.00  0.00    +0.030 C 
ENDBRANCH   1  10
BRANCH   1  11
ATOM     11  C   LIG    1        3.830   2.336  -0.012  0.00  0.00    +0.080 C 
BRANCH  11  12
ATOM     12  C   LIG    1        3.885   3.719   0.585  0.00  0.00    -0.090 A 
ATOM     13  C   LIG    1        5.103   4.272   0.936  0.00  0.00    -0.020 A 
ATOM     14  C   LIG    1        5.153   5.540   1.484  0.00  0.00    +0.010 A 
ATOM     15  C   LIG    1        3.986   6.255   1.681  0.00  0.00    +0.020 A 
ATOM     16  C   LIG    1        2.769   5.701   1.331  0.00  0.00    +0.020 A 
ATOM     17  C   LIG    1        2.719   4.433   0.783  0.00  0.00    +0.010 A 
ENDBRANCH  11  12
ENDBRANCH   1  11
TORSDOF 3
