REMARK  Name = ZINCqH00000512Wn.1
REMARK                            x       y       z     vdW  Elec       q    Type
REMARK                         _______ _______ _______ _____ _____    ______ ____
ROOT
ATOM      1  N   LIG    1       -0.748   1.584  -1.157  0.00  0.00    -0.690 N 
ATOM      2  H   LIG    1       -0.472   2.408  -1.588  0.00  0.00    +0.410 HD
ENDROOT
BRANCH   1  14
ATOM      3  N   LIG    1       -3.611  -2.053  -0.912  0.00  0.00    -0.720 NA
ATOM      4  H   LIG    1       -4.367  -2.574  -1.225  0.00  0.00    +0.330 HD
ATOM      5  C   LIG    1       -3.275  -0.936  -1.533  0.00  0.00    +0.550 A 
ATOM      6  N   LIG    1       -4.006  -0.556  -2.595  0.00  0.00    -0.640 NA
ATOM      7  C   LIG    1       -3.722   0.545  -3.254  0.00  0.00    +0.470 A 
ATOM      8  N   LIG    1       -4.246   1.198  -4.341  0.00  0.00    -0.490 N 
ATOM      9  H   LIG    1       -5.012   0.911  -4.863  0.00  0.00    +0.460 HD
ATOM     10  N   LIG    1       -3.484   2.352  -4.564  0.00  0.00    -0.450 N 
ATOM     11  H   LIG    1       -3.643   2.994  -5.274  0.00  0.00    +0.460 HD
ATOM     12  C   LIG    1       -2.499   2.440  -3.651  0.00  0.00    +0.440 A 
ATOM     13  C   LIG    1       -2.580   1.357  -2.803  0.00  0.00    -0.350 A 
ATOM     14  C   LIG    1       -1.828   0.882  -1.641  0.00  0.00    +0.530 A 
ATOM     15  N   LIG    1       -2.220  -0.248  -1.073  0.00  0.00    -0.580 NA
ENDBRANCH   1  14
BRANCH   1  16
ATOM     16  C   LIG    1       -0.013   1.086   0.008  0.00  0.00    +0.270 C 
ATOM     17  C   LIG    1       -0.667   1.597   1.303  0.00  0.00    +0.020 C 
ATOM     18  C   LIG    1        0.399   2.438   2.034  0.00  0.00    +0.010 C 
ATOM     19  C   LIG    1        1.746   1.900   1.490  0.00  0.00    +0.030 C 
ATOM     20  C   LIG    1        1.429   1.634  -0.003  0.00  0.00    +0.030 C 
BRANCH  20  21
ATOM     21  C   LIG    1        2.379   0.610  -0.569  0.00  0.00    -0.040 A 
ATOM     22  C   LIG    1        2.515  -0.621   0.046  0.00  0.00    +0.030 A 
ATOM     23  C   LIG    1        3.382  -1.562  -0.476  0.00  0.00    +0.080 A 
ATOM     24  C   LIG    1        4.121  -1.269  -1.607  0.00  0.00    -0.190 A 
ATOM     25  C   LIG    1        3.988  -0.037  -2.220  0.00  0.00    +0.060 A 
ATOM     26  C   LIG    1        3.117   0.903  -1.700  0.00  0.00    +0.010 A 
BRANCH  24  27
ATOM     27  C   LIG    1        5.070  -2.293  -2.174  0.00  0.00    +0.510 C 
ATOM     28  F   LIG    1        5.168  -2.123  -3.559  0.00  0.00    -0.180 F 
ATOM     29  F   LIG    1        4.591  -3.578  -1.895  0.00  0.00    -0.180 F 
ATOM     30  F   LIG    1        6.332  -2.131  -1.593  0.00  0.00    -0.180 F 
ENDBRANCH  24  27
ENDBRANCH  20  21
ENDBRANCH   1  16
TORSDOF 4
