REMARK  Name = ZINCpe00000gLMn6.0
REMARK                            x       y       z     vdW  Elec       q    Type
REMARK                         _______ _______ _______ _____ _____    ______ ____
ROOT
ATOM      1  N   LIG    1       -1.599   6.013   2.679  0.00  0.00    -0.730 N 
ATOM      2  H   LIG    1       -1.049   5.524   3.312  0.00  0.00    +0.400 HD
ATOM      3  C   LIG    1       -1.580   5.681   1.373  0.00  0.00    +0.710 C 
ATOM      4  N   LIG    1       -0.798   4.670   0.946  0.00  0.00    -0.750 N 
ATOM      5  H   LIG    1       -0.249   4.181   1.578  0.00  0.00    +0.400 HD
ATOM      6  O   LIG    1       -2.268   6.294   0.580  0.00  0.00    -0.590 OA
ENDROOT
BRANCH   1   7
ATOM      7  C   LIG    1       -2.449   7.112   3.143  0.00  0.00    +0.290 C 
BRANCH   7   8
ATOM      8  C   LIG    1       -2.377   7.203   4.669  0.00  0.00    +0.160 C 
BRANCH   8   9
ATOM      9  N   LIG    1       -0.976   7.337   5.087  0.00  0.00    -0.530 NA
ATOM     10  C   LIG    1       -0.783   6.834   6.454  0.00  0.00    +0.150 C 
ATOM     11  C   LIG    1        0.699   6.938   6.826  0.00  0.00    +0.220 C 
ATOM     12  O   LIG    1        1.127   8.295   6.683  0.00  0.00    -0.380 OA
ATOM     13  C   LIG    1        0.954   8.817   5.363  0.00  0.00    +0.220 C 
ATOM     14  C   LIG    1       -0.525   8.732   4.976  0.00  0.00    +0.160 C 
ENDBRANCH   8   9
BRANCH   8  16
ATOM     15  C   LIG    1       -4.631   8.280   4.711  0.00  0.00    +0.030 C 
ATOM     16  C   LIG    1       -3.171   8.421   5.145  0.00  0.00    -0.040 C 
ATOM     17  C   LIG    1       -3.099   8.512   6.671  0.00  0.00    +0.030 C 
ENDBRANCH   8  16
ENDBRANCH   7   8
ENDBRANCH   1   7
BRANCH   4  18
ATOM     18  C   LIG    1       -0.778   4.309  -0.474  0.00  0.00    +0.440 C 
BRANCH  18  19
ATOM     19  C   LIG    1        0.170   3.156  -0.686  0.00  0.00    +0.120 A 
ATOM     20  N   LIG    1        1.447   3.244  -0.956  0.00  0.00    -0.220 NA
ATOM     21  N   LIG    1        1.959   2.070  -1.076  0.00  0.00    -0.290 NA
ATOM     22  C   LIG    1        1.021   1.157  -0.885  0.00  0.00    +0.200 A 
ATOM     23  C   LIG    1        1.022  -0.251  -0.899  0.00  0.00    +0.080 A 
ATOM     24  C   LIG    1       -0.139  -0.918  -0.659  0.00  0.00    +0.070 A 
ATOM     25  C   LIG    1       -1.317  -0.197  -0.402  0.00  0.00    +0.030 A 
ATOM     26  C   LIG    1       -1.303   1.152  -0.392  0.00  0.00    +0.230 A 
ATOM     27  N   LIG    1       -0.147   1.834  -0.631  0.00  0.00    -0.380 N 
ENDBRANCH  18  19
ENDBRANCH   4  18
TORSDOF 6
