REMARK  Name = ZINCvU0000000H5L.0
REMARK                            x       y       z     vdW  Elec       q    Type
REMARK                         _______ _______ _______ _____ _____    ______ ____
ROOT
ATOM      1  C   LIG    1       -0.804  -0.656   0.306  0.00  0.00    +0.280 A 
ATOM      2  N   LIG    1        0.280  -1.165  -0.185  0.00  0.00    -0.430 NA
ATOM      3  C   LIG    1        1.386  -0.424  -0.046  0.00  0.00    +0.080 A 
ATOM      4  C   LIG    1        1.194   0.766   0.600  0.00  0.00    -0.080 A 
ATOM      5  S   LIG    1       -0.455   0.910   1.027  0.00  0.00    +0.180 S 
ENDROOT
BRANCH   3   6
ATOM      6  C   LIG    1        2.651  -0.839  -0.529  0.00  0.00    +0.250 C 
ATOM      7  C   LIG    1        3.120  -2.108  -0.240  0.00  0.00    -0.050 C 
ATOM      8  N   LIG    1        4.238  -2.710  -0.740  0.00  0.00    -0.470 NA
ATOM      9  C   LIG    1        4.346  -3.904  -0.226  0.00  0.00    +0.360 C 
ATOM     10  O   LIG    1        3.330  -4.171   0.618  0.00  0.00    -0.290 OA
ATOM     11  C   LIG    1        2.515  -3.095   0.667  0.00  0.00    +0.480 C 
ATOM     12  O   LIG    1        1.496  -2.970   1.321  0.00  0.00    -0.390 OA
BRANCH   9  13
ATOM     13  C   LIG    1        5.439  -4.846  -0.536  0.00  0.00    -0.060 A 
ATOM     14  C   LIG    1        5.456  -6.116   0.045  0.00  0.00    +0.070 A 
ATOM     15  C   LIG    1        6.478  -6.994  -0.254  0.00  0.00    +0.000 A 
ATOM     16  C   LIG    1        7.490  -6.615  -1.117  0.00  0.00    +0.050 A 
ATOM     17  C   LIG    1        7.482  -5.356  -1.692  0.00  0.00    +0.000 A 
ATOM     18  C   LIG    1        6.464  -4.470  -1.407  0.00  0.00    -0.020 A 
ATOM     19  C   LIG    1        6.457  -3.100  -2.034  0.00  0.00    +0.120 C 
ENDBRANCH   9  13
ENDBRANCH   3   6
BRANCH   1  22
ATOM     20  C   LIG    1       -3.612  -3.000  -0.544  0.00  0.00    +0.120 C 
ATOM     21  C   LIG    1       -2.235  -2.399  -0.423  0.00  0.00    +0.510 C 
ATOM     22  N   LIG    1       -2.056  -1.257   0.269  0.00  0.00    -0.480 N 
ATOM     23  O   LIG    1       -1.288  -2.944  -0.950  0.00  0.00    -0.460 OA
BRANCH  22  24
ATOM     24  C   LIG    1       -3.132  -0.676   0.952  0.00  0.00    +0.100 A 
ATOM     25  C   LIG    1       -3.134  -0.630   2.339  0.00  0.00    +0.020 A 
ATOM     26  C   LIG    1       -4.196  -0.056   3.009  0.00  0.00    +0.030 A 
ATOM     27  C   LIG    1       -5.258   0.474   2.299  0.00  0.00    -0.070 A 
ATOM     28  C   LIG    1       -5.260   0.430   0.917  0.00  0.00    -0.070 A 
ATOM     29  C   LIG    1       -6.419   1.008   0.147  0.00  0.00    +0.110 C 
ATOM     30  C   LIG    1       -6.416   1.100   3.034  0.00  0.00    +0.100 C 
ATOM     31  C   LIG    1       -4.198  -0.139   0.241  0.00  0.00    +0.030 A 
ENDBRANCH  22  24
ENDBRANCH   1  22
TORSDOF 4
