REMARK  Name = ZINCpk00000KfLqy.0
REMARK                            x       y       z     vdW  Elec       q    Type
REMARK                         _______ _______ _______ _____ _____    ______ ____
ROOT
ATOM      1  C   LIG    1        4.849   4.018   0.197  0.00  0.00    +0.340 C 
ATOM      2  C   LIG    1        5.917   2.909   0.299  0.00  0.00    +0.060 C 
ATOM      3  C   LIG    1        5.105   1.690   0.811  0.00  0.00    +0.050 C 
ATOM      4  C   LIG    1        3.748   1.896   0.098  0.00  0.00    +0.260 C 
ATOM      5  N   LIG    1        3.541   3.356   0.089  0.00  0.00    -0.610 N 
ATOM      6  C   LIG    1        2.349   3.979   0.002  0.00  0.00    +0.600 C 
ATOM      7  O   LIG    1        2.302   5.192  -0.082  0.00  0.00    -0.520 OA
ENDROOT
BRANCH   6   8
ATOM      8  C   LIG    1        1.103   3.192   0.007  0.00  0.00    -0.240 A 
ATOM      9  C   LIG    1        0.671   2.566  -1.145  0.00  0.00    +0.340 A 
ATOM     10  N   LIG    1       -0.467   1.846  -1.145  0.00  0.00    -0.480 N 
ATOM     11  C   LIG    1       -1.204   1.715  -0.028  0.00  0.00    +0.520 A 
ATOM     12  C   LIG    1       -0.807   2.340   1.169  0.00  0.00    -0.070 A 
ATOM     13  O   LIG    1       -2.228   1.052  -0.053  0.00  0.00    -0.520 OA
ATOM     14  C   LIG    1        0.339   3.072   1.193  0.00  0.00    +0.150 A 
BRANCH  10  15
ATOM     15  C   LIG    1       -0.905   1.191  -2.380  0.00  0.00    +0.320 C 
BRANCH  15  16
ATOM     16  C   LIG    1       -0.311  -0.218  -2.448  0.00  0.00    +0.160 C 
BRANCH  16  17
ATOM     17  O   LIG    1       -0.847  -1.012  -1.387  0.00  0.00    -0.370 OA
ATOM     18  C   LIG    1       -0.355  -2.353  -1.360  0.00  0.00    +0.200 C 
ENDBRANCH  16  17
ENDBRANCH  15  16
ENDBRANCH  10  15
ENDBRANCH   6   8
BRANCH   1  21
ATOM     19  C   LIG    1        5.631   6.463  -2.305  0.00  0.00    +0.190 A 
ATOM     20  N   LIG    1        5.572   6.122  -1.040  0.00  0.00    -0.470 NA
ATOM     21  C   LIG    1        5.098   4.863  -1.025  0.00  0.00    +0.170 A 
ATOM     22  N   LIG    1        4.888   4.512  -2.259  0.00  0.00    -0.380 NA
ATOM     23  O   LIG    1        5.188   5.417  -3.010  0.00  0.00    +0.080 OA
BRANCH  19  25
ATOM     24  C   LIG    1        7.606   7.716  -3.127  0.00  0.00    +0.050 C 
ATOM     25  C   LIG    1        6.101   7.783  -2.858  0.00  0.00    +0.180 C 
ENDBRANCH  19  25
ENDBRANCH   1  21
TORSDOF 6
