REMARK  Name = ZINCvU0000000Iht.0
REMARK                            x       y       z     vdW  Elec       q    Type
REMARK                         _______ _______ _______ _____ _____    ______ ____
ROOT
ATOM      1  C   LIG    1       -4.963   5.575  -1.242  0.00  0.00    +0.270 C 
ENDROOT
BRANCH   1   3
ATOM      2  O   LIG    1       -6.025   6.233  -3.245  0.00  0.00    -0.490 OA
ATOM      3  C   LIG    1       -6.166   5.801  -2.120  0.00  0.00    +0.520 C 
ATOM      4  N   LIG    1       -7.401   5.521  -1.657  0.00  0.00    -0.670 N 
ATOM      5  H   LIG    1       -7.510   5.115  -0.782  0.00  0.00    +0.420 HD
BRANCH   4   6
ATOM      6  C   LIG    1       -8.525   5.817  -2.436  0.00  0.00    +0.160 A 
ATOM      7  C   LIG    1       -8.464   5.701  -3.818  0.00  0.00    +0.100 A 
ATOM      8  C   LIG    1       -9.577   5.989  -4.584  0.00  0.00    -0.160 A 
ATOM      9  C   LIG    1      -10.748   6.402  -3.977  0.00  0.00    +0.080 A 
ATOM     10  C   LIG    1      -10.812   6.525  -2.601  0.00  0.00    +0.060 A 
ATOM     11  C   LIG    1       -9.704   6.234  -1.828  0.00  0.00    -0.030 A 
ATOM     12 CL   LIG    1       -9.784   6.388  -0.101  0.00  0.00    -0.040 Cl
BRANCH   8  13
ATOM     13  C   LIG    1       -9.512   5.857  -6.084  0.00  0.00    +0.510 C 
ATOM     14  F   LIG    1       -9.206   4.535  -6.423  0.00  0.00    -0.170 F 
ATOM     15  F   LIG    1       -8.521   6.709  -6.585  0.00  0.00    -0.170 F 
ATOM     16  F   LIG    1      -10.749   6.206  -6.636  0.00  0.00    -0.170 F 
ENDBRANCH   8  13
ENDBRANCH   4   6
ENDBRANCH   1   3
BRANCH   1  17
ATOM     17  O   LIG    1       -3.760   5.949  -1.965  0.00  0.00    -0.330 OA
BRANCH  17  18
ATOM     18  C   LIG    1       -2.588   5.806  -1.317  0.00  0.00    +0.510 C 
ATOM     19  O   LIG    1       -2.571   5.382  -0.178  0.00  0.00    -0.500 OA
BRANCH  18  20
ATOM     20  C   LIG    1       -1.323   6.167  -1.989  0.00  0.00    -0.130 A 
ATOM     21  C   LIG    1       -1.345   6.757  -3.254  0.00  0.00    +0.090 A 
ATOM     22  C   LIG    1       -0.160   7.085  -3.880  0.00  0.00    -0.010 A 
ATOM     23  C   LIG    1        1.049   6.836  -3.254  0.00  0.00    +0.060 A 
ATOM     24  C   LIG    1        1.078   6.256  -1.997  0.00  0.00    +0.010 A 
ATOM     25  C   LIG    1       -0.100   5.923  -1.361  0.00  0.00    -0.010 A 
BRANCH  25  26
ATOM     26  C   LIG    1       -0.066   5.292   0.007  0.00  0.00    +0.150 C 
BRANCH  26  27
ATOM     27  C   LIG    1        1.356   5.243   0.503  0.00  0.00    -0.080 A 
ATOM     28  C   LIG    1        1.903   6.340   1.143  0.00  0.00    +0.010 A 
ATOM     29  C   LIG    1        3.207   6.295   1.598  0.00  0.00    +0.000 A 
ATOM     30  C   LIG    1        3.964   5.153   1.415  0.00  0.00    +0.000 A 
ATOM     31  C   LIG    1        3.419   4.058   0.772  0.00  0.00    +0.000 A 
ATOM     32  C   LIG    1        2.113   4.101   0.320  0.00  0.00    +0.000 A 
ENDBRANCH  26  27
ENDBRANCH  25  26
ENDBRANCH  18  20
ENDBRANCH  17  18
ENDBRANCH   1  17
TORSDOF 8
