REMARK  Name = ZINCvU0000000CHs.0
REMARK                            x       y       z     vdW  Elec       q    Type
REMARK                         _______ _______ _______ _____ _____    ______ ____
ROOT
ATOM      1  C   LIG    1       -0.078   2.261  -2.138  0.00  0.00    +0.560 C 
ATOM      2  N   LIG    1       -0.692   2.382  -0.945  0.00  0.00    -0.600 N 
ATOM      3  C   LIG    1       -2.014   3.015  -0.844  0.00  0.00    +0.270 C 
ATOM      4  C   LIG    1       -1.945   4.137   0.198  0.00  0.00    +0.030 C 
ATOM      5  C   LIG    1       -1.417   3.570   1.518  0.00  0.00    +0.040 C 
ATOM      6  C   LIG    1       -0.002   3.016   1.310  0.00  0.00    +0.080 C 
ATOM      7  C   LIG    1       -0.052   1.883   0.280  0.00  0.00    +0.310 C 
ATOM      8  O   LIG    1        1.058   1.832  -2.197  0.00  0.00    -0.520 OA
ENDROOT
BRANCH   6   9
ATOM      9  C   LIG    1        0.532   2.485   2.616  0.00  0.00    +0.100 A 
ATOM     10  N   LIG    1       -0.021   1.551   3.293  0.00  0.00    -0.460 NA
ATOM     11  C   LIG    1        0.569   1.174   4.443  0.00  0.00    +0.080 A 
ATOM     12  C   LIG    1        0.185   0.183   5.369  0.00  0.00    +0.080 A 
ATOM     13  C   LIG    1        0.929  -0.040   6.488  0.00  0.00    +0.030 A 
ATOM     14  C   LIG    1        2.076   0.700   6.738  0.00  0.00    +0.040 A 
ATOM     15  C   LIG    1        2.476   1.673   5.850  0.00  0.00    +0.060 A 
ATOM     16  C   LIG    1        1.728   1.916   4.700  0.00  0.00    -0.180 A 
ATOM     17  S   LIG    1        1.945   3.061   3.380  0.00  0.00    +0.110 S 
ENDBRANCH   6   9
BRANCH   1  23
ATOM     18  C   LIG    1       -0.086   3.279  -4.422  0.00  0.00    -0.010 A 
ATOM     19  C   LIG    1       -0.764   3.636  -5.585  0.00  0.00    +0.030 A 
ATOM     20  C   LIG    1       -2.116   3.383  -5.700  0.00  0.00    +0.040 A 
ATOM     21  C   LIG    1       -2.806   2.770  -4.668  0.00  0.00    +0.010 A 
ATOM     22  C   LIG    1       -2.150   2.404  -3.510  0.00  0.00    +0.050 A 
ATOM     23  C   LIG    1       -0.785   2.651  -3.375  0.00  0.00    -0.120 A 
BRANCH  18  29
ATOM     24  C   LIG    1        2.280   2.490  -4.193  0.00  0.00    +0.040 A 
ATOM     25  C   LIG    1        3.642   2.765  -4.076  0.00  0.00    +0.050 A 
ATOM     26  C   LIG    1        4.082   4.073  -4.045  0.00  0.00    +0.020 A 
ATOM     27  C   LIG    1        3.179   5.119  -4.135  0.00  0.00    +0.030 A 
ATOM     28  C   LIG    1        1.827   4.867  -4.258  0.00  0.00    +0.030 A 
ATOM     29  C   LIG    1        1.363   3.554  -4.291  0.00  0.00    -0.030 A 
BRANCH  24  31
ATOM     30  N   LIG    1        1.450   0.061  -4.239  0.00  0.00    -0.430 NA
ATOM     31  C   LIG    1        1.817   1.135  -4.219  0.00  0.00    +0.280 C 
ENDBRANCH  24  31
ENDBRANCH  18  29
ENDBRANCH   1  23
TORSDOF 4
