REMARK  Name = ZINCvU00000008gx.0
REMARK                            x       y       z     vdW  Elec       q    Type
REMARK                         _______ _______ _______ _____ _____    ______ ____
ROOT
ATOM      1  N   LIG    1        0.808   6.866  -1.236  0.00  0.00    -0.640 N 
ATOM      2  H   LIG    1        0.302   6.069  -1.461  0.00  0.00    +0.410 HD
ATOM      3  C   LIG    1        2.080   6.757  -0.806  0.00  0.00    +0.560 C 
ATOM      4  O   LIG    1        2.714   7.756  -0.524  0.00  0.00    -0.470 OA
ENDROOT
BRANCH   3   5
ATOM      5  C   LIG    1        2.706   5.423  -0.677  0.00  0.00    +0.010 A 
ATOM      6  C   LIG    1        4.080   5.290  -0.382  0.00  0.00    -0.200 A 
ATOM      7  C   LIG    1        5.162   6.243  -0.144  0.00  0.00    +0.160 A 
ATOM      8  N   LIG    1        6.240   5.556   0.085  0.00  0.00    -0.270 NA
ATOM      9  O   LIG    1        5.950   4.175   0.016  0.00  0.00    -0.080 OA
ATOM     10  C   LIG    1        5.048   7.745  -0.162  0.00  0.00    +0.210 C 
ATOM     11  C   LIG    1        4.642   4.006  -0.266  0.00  0.00    +0.310 A 
ATOM     12  N   LIG    1        3.886   2.932  -0.429  0.00  0.00    -0.460 NA
ATOM     13  C   LIG    1        2.593   3.020  -0.712  0.00  0.00    +0.290 A 
ATOM     14  C   LIG    1        1.960   4.262  -0.843  0.00  0.00    -0.020 A 
BRANCH  13  15
ATOM     15  C   LIG    1        1.806   1.785  -0.886  0.00  0.00    -0.190 A 
ATOM     16  C   LIG    1        2.292   0.530  -0.787  0.00  0.00    +0.100 A 
ATOM     17  C   LIG    1        1.363  -0.466  -0.992  0.00  0.00    +0.010 A 
ATOM     18  C   LIG    1        0.123  -0.038  -1.257  0.00  0.00    -0.010 A 
ATOM     19  S   LIG    1        0.087   1.720  -1.257  0.00  0.00    +0.140 S 
ENDBRANCH  13  15
ENDBRANCH   3   5
BRANCH   1  24
ATOM     20  N   LIG    1       -1.048   8.378  -1.776  0.00  0.00    -0.380 N 
ATOM     21  N   LIG    1       -1.236   9.766  -1.752  0.00  0.00    -0.280 NA
ATOM     22  C   LIG    1       -0.128  10.325  -1.335  0.00  0.00    +0.250 A 
ATOM     23  C   LIG    1        0.804   9.318  -1.073  0.00  0.00    -0.100 A 
ATOM     24  C   LIG    1        0.218   8.122  -1.358  0.00  0.00    +0.300 A 
BRANCH  20  25
ATOM     25  C   LIG    1       -2.042   7.381  -2.182  0.00  0.00    +0.370 C 
BRANCH  25  31
ATOM     26  C   LIG    1       -2.697   4.322   1.725  0.00  0.00    +0.090 C 
ATOM     27  C   LIG    1       -3.157   5.489   0.889  0.00  0.00    -0.080 A 
ATOM     28  C   LIG    1       -4.314   6.166   1.226  0.00  0.00    +0.020 A 
ATOM     29  C   LIG    1       -4.735   7.237   0.460  0.00  0.00    +0.020 A 
ATOM     30  C   LIG    1       -4.000   7.630  -0.643  0.00  0.00    +0.040 A 
ATOM     31  C   LIG    1       -2.843   6.952  -0.980  0.00  0.00    -0.120 A 
ATOM     32  C   LIG    1       -2.424   5.879  -0.216  0.00  0.00    +0.000 A 
ENDBRANCH  25  31
ENDBRANCH  20  25
ENDBRANCH   1  24
TORSDOF 5
