REMARK  Name = ZINCrD0000075six.0
REMARK                            x       y       z     vdW  Elec       q    Type
REMARK                         _______ _______ _______ _____ _____    ______ ____
ROOT
ATOM      1  C   LIG    1        0.060  -4.250  -0.022  0.00  0.00    +0.510 C 
ATOM      2  O   LIG    1       -0.979  -4.872   0.076  0.00  0.00    -0.510 OA
ENDROOT
BRANCH   1   3
ATOM      3  C   LIG    1        0.040  -2.775  -0.013  0.00  0.00    -0.160 A 
ATOM      4  C   LIG    1       -1.174  -2.091   0.107  0.00  0.00    +0.120 A 
ATOM      5  C   LIG    1       -1.189  -0.715   0.115  0.00  0.00    -0.010 A 
ATOM      6  C   LIG    1        0.002  -0.004   0.002  0.00  0.00    +0.210 A 
ATOM      7  C   LIG    1        1.211  -0.681  -0.124  0.00  0.00    -0.030 A 
ATOM      8  C   LIG    1        1.234  -2.057  -0.126  0.00  0.00    +0.120 A 
BRANCH   6   9
ATOM      9  N   LIG    1       -0.017   1.390   0.010  0.00  0.00    -0.560 N 
ATOM     10  C   LIG    1        1.183   2.234   0.020  0.00  0.00    +0.270 C 
ATOM     11  C   LIG    1        0.699   3.633   0.461  0.00  0.00    +0.060 C 
ATOM     12  C   LIG    1       -0.785   3.604   0.029  0.00  0.00    +0.070 C 
ATOM     13  C   LIG    1       -1.137   2.133   0.003  0.00  0.00    +0.520 C 
ATOM     14  O   LIG    1       -2.265   1.689  -0.019  0.00  0.00    -0.500 OA
ENDBRANCH   6   9
ENDBRANCH   1   3
BRANCH   1  15
ATOM     15  O   LIG    1        1.230  -4.907  -0.138  0.00  0.00    -0.340 OA
BRANCH  15  16
ATOM     16  C   LIG    1        1.174  -6.358  -0.139  0.00  0.00    +0.240 C 
BRANCH  16  18
ATOM     17  O   LIG    1        3.515  -6.162  -0.365  0.00  0.00    -0.430 OA
ATOM     18  C   LIG    1        2.568  -6.914  -0.277  0.00  0.00    +0.400 C 
BRANCH  18  19
ATOM     19  C   LIG    1        2.780  -8.370  -0.304  0.00  0.00    -0.170 A 
ATOM     20  C   LIG    1        1.691  -9.242  -0.203  0.00  0.00    +0.070 A 
ATOM     21  C   LIG    1        1.900 -10.603  -0.229  0.00  0.00    +0.010 A 
ATOM     22  C   LIG    1        3.182 -11.115  -0.356  0.00  0.00    -0.060 A 
ATOM     23  C   LIG    1        3.661 -12.551  -0.409  0.00  0.00    +0.080 C 
ATOM     24  C   LIG    1        5.174 -12.484  -0.112  0.00  0.00    +0.030 C 
ATOM     25  C   LIG    1        5.542 -11.062  -0.585  0.00  0.00    +0.080 C 
ATOM     26  C   LIG    1        4.265 -10.258  -0.457  0.00  0.00    -0.110 A 
ATOM     27  C   LIG    1        4.069  -8.891  -0.437  0.00  0.00    +0.090 A 
ENDBRANCH  18  19
ENDBRANCH  16  18
ENDBRANCH  15  16
ENDBRANCH   1  15
TORSDOF 6
