REMARK  Name = ZINCpe000000Z3Ex.0
REMARK                            x       y       z     vdW  Elec       q    Type
REMARK                         _______ _______ _______ _____ _____    ______ ____
ROOT
ATOM      1  O   LIG    1       -3.954   1.591  -1.010  0.00  0.00    -0.580 OA
ATOM      2  C   LIG    1       -3.338   1.607   0.038  0.00  0.00    +0.730 C 
ATOM      3  N   LIG    1       -1.991   1.656   0.028  0.00  0.00    -0.660 N 
ATOM      4  C   LIG    1       -0.967   1.698  -1.034  0.00  0.00    +0.360 C 
ATOM      5  C   LIG    1       -0.013   1.086   0.008  0.00  0.00    -0.490 C 
ATOM      6  C   LIG    1       -0.946   1.687   1.074  0.00  0.00    +0.340 C 
ATOM      7  N   LIG    1       -4.002   1.577   1.211  0.00  0.00    -0.740 N 
ATOM      8  H   LIG    1       -3.510   1.590   2.047  0.00  0.00    +0.400 HD
ENDROOT
BRANCH   5   9
ATOM      9  S   LIG    1        1.648   1.816  -0.004  0.00  0.00    +2.620 S 
ATOM     10  O   LIG    1        1.599   3.172   0.416  0.00  0.00    -0.940 OA
ATOM     11  O   LIG    1        2.350   1.437  -1.180  0.00  0.00    -0.940 OA
BRANCH   9  12
ATOM     12  N   LIG    1        2.450   1.038   1.219  0.00  0.00    -1.000 NA
ATOM     13  C   LIG    1        2.437   1.572   2.589  0.00  0.00    +0.300 C 
ATOM     14  C   LIG    1        3.876   1.657   3.097  0.00  0.00    +0.170 C 
ATOM     15  N   LIG    1        4.525   0.348   2.946  0.00  0.00    -0.690 NA
ATOM     16  H   LIG    1        5.436   0.344   3.378  0.00  0.00    +0.350 HD
ATOM     17  C   LIG    1        4.612  -0.044   1.532  0.00  0.00    +0.170 C 
ATOM     18  C   LIG    1        3.199  -0.202   0.962  0.00  0.00    +0.300 C 
ENDBRANCH   9  12
ENDBRANCH   5   9
BRANCH   7  19
ATOM     19  C   LIG    1       -5.466   1.525   1.223  0.00  0.00    +0.280 C 
BRANCH  19  20
ATOM     20  C   LIG    1       -5.964   1.499   2.670  0.00  0.00    +0.060 C 
BRANCH  20  21
ATOM     21  C   LIG    1       -7.470   1.445   2.682  0.00  0.00    -0.120 C 
ATOM     22  C   LIG    1       -8.072   0.302   2.779  0.00  0.00    -0.040 C 
ATOM     23  C   LIG    1       -9.584   0.234   2.792  0.00  0.00    +0.050 C 
ATOM     24  C   LIG    1      -10.100   0.548   1.386  0.00  0.00    +0.010 C 
ATOM     25  C   LIG    1      -10.242   2.046   1.187  0.00  0.00    +0.000 C 
ATOM     26  C   LIG    1       -8.918   2.789   1.197  0.00  0.00    +0.000 C 
ATOM     27  C   LIG    1       -8.270   2.726   2.587  0.00  0.00    +0.060 C 
ENDBRANCH  20  21
ENDBRANCH  19  20
ENDBRANCH   7  19
TORSDOF 5
