REMARK  Name = ZINCrD00000hQ4w7.0
REMARK                            x       y       z     vdW  Elec       q    Type
REMARK                         _______ _______ _______ _____ _____    ______ ____
ROOT
ATOM      1  O   LIG    1       -1.996   3.074  -5.838  0.00  0.00    -0.520 OA
ATOM      2  C   LIG    1       -1.477   3.954  -6.497  0.00  0.00    +0.610 C 
ATOM      3  N   LIG    1       -1.649   5.245  -6.152  0.00  0.00    -0.610 N 
ATOM      4  C   LIG    1       -1.102   6.446  -6.824  0.00  0.00    +0.300 C 
ATOM      5  C   LIG    1       -0.692   7.388  -5.672  0.00  0.00    +0.000 C 
ATOM      6  C   LIG    1       -1.114   8.833  -6.009  0.00  0.00    +0.040 C 
ATOM      7  C   LIG    1       -2.567   8.932  -5.478  0.00  0.00    +0.030 C 
ATOM      8  C   LIG    1       -2.479   8.152  -4.141  0.00  0.00    +0.070 C 
ATOM      9  C   LIG    1       -1.570   6.949  -4.471  0.00  0.00    +0.010 C 
ATOM     10  C   LIG    1       -2.446   5.793  -4.995  0.00  0.00    +0.330 C 
ENDROOT
BRANCH   9  11
ATOM     11  C   LIG    1       -0.738   6.532  -3.286  0.00  0.00    +0.200 A 
ATOM     12  N   LIG    1       -1.184   6.111  -2.127  0.00  0.00    -0.470 NA
ATOM     13  C   LIG    1       -0.090   5.857  -1.388  0.00  0.00    +0.180 A 
ATOM     14  N   LIG    1        0.947   6.136  -2.119  0.00  0.00    -0.380 NA
ATOM     15  O   LIG    1        0.597   6.521  -3.215  0.00  0.00    +0.080 OA
BRANCH  13  16
ATOM     16  C   LIG    1       -0.070   5.347   0.030  0.00  0.00    +0.220 C 
BRANCH  16  17
ATOM     17  C   LIG    1       -0.050   3.840   0.022  0.00  0.00    -0.090 A 
ATOM     18  C   LIG    1        1.156   3.165   0.008  0.00  0.00    +0.010 A 
ATOM     19  C   LIG    1        1.175   1.783   0.000  0.00  0.00    +0.000 A 
ATOM     20  C   LIG    1       -0.013   1.076   0.008  0.00  0.00    +0.010 A 
ATOM     21  C   LIG    1       -1.219   1.751   0.017  0.00  0.00    +0.000 A 
ATOM     22  C   LIG    1       -1.238   3.133   0.029  0.00  0.00    +0.030 A 
ENDBRANCH  16  17
ENDBRANCH  13  16
ENDBRANCH   9  11
BRANCH   2  23
ATOM     23  C   LIG    1       -0.659   3.608  -7.678  0.00  0.00    +0.050 A 
ATOM     24  N   LIG    1       -0.084   4.519  -8.415  0.00  0.00    -0.520 NA
ATOM     25  S   LIG    1        0.704   3.838  -9.579  0.00  0.00    +0.470 S 
ATOM     26  C   LIG    1        0.324   2.212  -9.177  0.00  0.00    -0.090 A 
ATOM     27  C   LIG    1       -0.449   2.286  -8.072  0.00  0.00    +0.040 A 
ENDBRANCH   2  23
TORSDOF 4
