REMARK  Name = ZINCqH0000005Ewh.0
REMARK                            x       y       z     vdW  Elec       q    Type
REMARK                         _______ _______ _______ _____ _____    ______ ____
ROOT
ATOM      1  C   LIG    1        0.002  -0.004   0.002  0.00  0.00    +0.340 C 
ENDROOT
BRANCH   1   2
ATOM      2  C   LIG    1       -1.273  -0.527   0.612  0.00  0.00    -0.100 A 
ATOM      3  C   LIG    1       -2.476   0.096   0.338  0.00  0.00    +0.050 A 
ATOM      4  C   LIG    1       -3.646  -0.387   0.894  0.00  0.00    +0.030 A 
ATOM      5  C   LIG    1       -3.612  -1.486   1.731  0.00  0.00    +0.080 A 
ATOM      6  C   LIG    1       -2.408  -2.106   2.009  0.00  0.00    -0.180 A 
ATOM      7  C   LIG    1       -1.238  -1.627   1.449  0.00  0.00    +0.110 A 
BRANCH   6   8
ATOM      8  C   LIG    1       -2.370  -3.304   2.922  0.00  0.00    +0.510 C 
ATOM      9  F   LIG    1       -1.311  -4.140   2.552  0.00  0.00    -0.170 F 
ATOM     10  F   LIG    1       -3.576  -4.006   2.821  0.00  0.00    -0.170 F 
ATOM     11  F   LIG    1       -2.188  -2.878   4.243  0.00  0.00    -0.170 F 
ENDBRANCH   6   8
ENDBRANCH   1   2
BRANCH   1  12
ATOM     12  N   LIG    1       -0.018   1.461   0.010  0.00  0.00    -0.710 N 
ATOM     13  H   LIG    1       -0.864   1.934   0.017  0.00  0.00    +0.410 HD
ATOM     14  C   LIG    1        1.140   2.151   0.003  0.00  0.00    +0.570 C 
ATOM     15  O   LIG    1        2.201   1.557  -0.011  0.00  0.00    -0.510 OA
BRANCH  14  16
ATOM     16  C   LIG    1        1.120   3.627   0.011  0.00  0.00    -0.170 A 
ATOM     17  C   LIG    1       -0.096   4.312   0.026  0.00  0.00    +0.070 A 
ATOM     18  C   LIG    1       -0.108   5.691   0.034  0.00  0.00    +0.010 A 
ATOM     19  C   LIG    1        1.082   6.398   0.026  0.00  0.00    +0.080 A 
ATOM     20  C   LIG    1        2.292   5.729   0.011  0.00  0.00    -0.130 A 
ATOM     21  C   LIG    1        3.582   6.508   0.004  0.00  0.00    +0.110 C 
ATOM     22  C   LIG    1        2.320   4.346   0.009  0.00  0.00    +0.160 A 
ATOM     23  F   LIG    1        3.502   3.693  -0.000  0.00  0.00    -0.110 F 
ENDBRANCH  14  16
ENDBRANCH   1  12
BRANCH   1  24
ATOM     24  C   LIG    1        0.119  -0.497  -1.417  0.00  0.00    +0.450 C 
ATOM     25  O   LIG    1        0.180   0.294  -2.329  0.00  0.00    -0.490 OA
BRANCH  24  27
ATOM     26  C   LIG    1        0.270  -2.218  -3.059  0.00  0.00    +0.280 C 
ATOM     27  O   LIG    1        0.156  -1.815  -1.669  0.00  0.00    -0.350 OA
ENDBRANCH  24  27
ENDBRANCH   1  24
TORSDOF 6
