REMARK  Name = ZINCqH0000008pF2.0
REMARK                            x       y       z     vdW  Elec       q    Type
REMARK                         _______ _______ _______ _____ _____    ______ ____
ROOT
ATOM      1  N   LIG    1       -1.194   2.127   0.019  0.00  0.00    -0.720 N 
ATOM      2  H   LIG    1       -2.027   1.630   0.021  0.00  0.00    +0.400 HD
ATOM      3  C   LIG    1       -0.018   1.469   0.010  0.00  0.00    +0.590 C 
ATOM      4  O   LIG    1        1.027   2.091   0.004  0.00  0.00    -0.530 OA
ENDROOT
BRANCH   3   5
ATOM      5  C   LIG    1        0.002  -0.004   0.002  0.00  0.00    -0.280 A 
ATOM      6  C   LIG    1       -1.091  -0.846   0.014  0.00  0.00    +0.300 A 
ATOM      7  N   LIG    1       -0.639  -2.109  -0.002  0.00  0.00    -0.460 N 
ATOM      8  H   LIG    1       -1.197  -2.902  -0.000  0.00  0.00    +0.450 HD
ATOM      9  N   LIG    1        0.759  -2.108  -0.016  0.00  0.00    -0.280 NA
ATOM     10  C   LIG    1        1.188  -0.866  -0.014  0.00  0.00    +0.180 A 
BRANCH  10  11
ATOM     11  C   LIG    1        2.602  -0.421  -0.026  0.00  0.00    -0.020 A 
ATOM     12  C   LIG    1        3.572  -1.157   0.652  0.00  0.00    +0.050 A 
ATOM     13  C   LIG    1        4.888  -0.739   0.638  0.00  0.00    +0.020 A 
ATOM     14  C   LIG    1        5.245   0.407  -0.048  0.00  0.00    +0.030 A 
ATOM     15  C   LIG    1        4.285   1.142  -0.724  0.00  0.00    -0.040 A 
ATOM     16 CL   LIG    1        4.742   2.580  -1.584  0.00  0.00    -0.070 Cl
ATOM     17  C   LIG    1        2.967   0.731  -0.720  0.00  0.00    +0.110 A 
ENDBRANCH  10  11
ENDBRANCH   3   5
BRANCH   1  19
ATOM     18  C   LIG    1       -1.088   4.095   1.466  0.00  0.00    +0.030 C 
ATOM     19  C   LIG    1       -1.214   3.591   0.027  0.00  0.00    +0.220 C 
BRANCH  19  20
ATOM     20  C   LIG    1       -2.531   4.087  -0.573  0.00  0.00    +0.260 C 
BRANCH  20  21
ATOM     21  C   LIG    1       -2.501   5.590  -0.678  0.00  0.00    -0.150 A 
ATOM     22  C   LIG    1       -3.055   6.364   0.324  0.00  0.00    +0.050 A 
ATOM     23  C   LIG    1       -3.022   7.743   0.230  0.00  0.00    +0.000 A 
ATOM     24  C   LIG    1       -2.447   8.349  -0.871  0.00  0.00    +0.050 A 
ATOM     25  C   LIG    1       -1.897   7.577  -1.877  0.00  0.00    -0.010 A 
ATOM     26  C   LIG    1       -1.924   6.196  -1.782  0.00  0.00    +0.110 A 
ATOM     27  F   LIG    1       -1.387   5.440  -2.764  0.00  0.00    -0.130 F 
ENDBRANCH  20  21
BRANCH  20  28
ATOM     28  O   LIG    1       -3.617   3.689   0.266  0.00  0.00    -0.550 OA
ATOM     29  H   LIG    1       -3.565   4.037   1.167  0.00  0.00    +0.380 HD
ENDBRANCH  20  28
ENDBRANCH  19  20
ENDBRANCH   1  19
TORSDOF 6
