REMARK  Name = ZINCrD000000ApFn.0
REMARK                            x       y       z     vdW  Elec       q    Type
REMARK                         _______ _______ _______ _____ _____    ______ ____
ROOT
ATOM      1  O   LIG    1        2.328   1.207  -0.014  0.00  0.00    -0.540 OA
ATOM      2  C   LIG    1        1.396   1.982  -0.001  0.00  0.00    +0.510 C 
ATOM      3  N   LIG    1        1.624   3.311   0.004  0.00  0.00    -0.610 N 
ATOM      4  C   LIG    1        0.505   4.263   0.014  0.00  0.00    +0.260 C 
ATOM      5  C   LIG    1        0.698   5.232   1.190  0.00  0.00    +0.020 C 
ATOM      6  C   LIG    1        2.078   5.885   1.084  0.00  0.00    +0.000 C 
ATOM      7  C   LIG    1        3.162   4.808   1.165  0.00  0.00    +0.020 C 
ATOM      8  C   LIG    1        2.997   3.834  -0.006  0.00  0.00    +0.270 C 
ENDROOT
BRANCH   6   9
ATOM      9  C   LIG    1        2.260   6.880   2.232  0.00  0.00    +0.060 C 
BRANCH   9  10
ATOM     10  C   LIG    1        1.271   8.007   2.083  0.00  0.00    -0.080 A 
ATOM     11  C   LIG    1        1.614   9.137   1.365  0.00  0.00    +0.000 A 
ATOM     12  C   LIG    1        0.704  10.168   1.224  0.00  0.00    +0.000 A 
ATOM     13  C   LIG    1       -0.544  10.074   1.810  0.00  0.00    +0.000 A 
ATOM     14  C   LIG    1       -0.884   8.947   2.534  0.00  0.00    +0.000 A 
ATOM     15  C   LIG    1        0.023   7.913   2.670  0.00  0.00    +0.000 A 
ENDBRANCH   9  10
ENDBRANCH   6   9
BRANCH   2  16
ATOM     16  C   LIG    1       -0.018   1.461   0.010  0.00  0.00    +0.290 C 
BRANCH  16  17
ATOM     17  N   LIG    1        0.002  -0.004   0.002  0.00  0.00    -0.730 N 
ATOM     18  H   LIG    1        0.849  -0.478  -0.009  0.00  0.00    +0.410 HD
BRANCH  17  19
ATOM     19  C   LIG    1       -1.208  -0.725   0.010  0.00  0.00    +0.070 A 
ATOM     20  C   LIG    1       -1.333  -2.076  -0.002  0.00  0.00    +0.160 A 
ATOM     21  N   LIG    1       -2.661  -2.365   0.014  0.00  0.00    -0.390 N 
ATOM     22  N   LIG    1       -3.364  -1.153   0.027  0.00  0.00    -0.260 NA
ATOM     23  C   LIG    1       -2.497  -0.173   0.025  0.00  0.00    +0.200 A 
BRANCH  21  24
ATOM     24  C   LIG    1       -3.253  -3.705   0.011  0.00  0.00    +0.380 C 
BRANCH  24  25
ATOM     25  C   LIG    1       -4.205  -3.845   1.200  0.00  0.00    +0.440 C 
ATOM     26  F   LIG    1       -3.496  -3.650   2.390  0.00  0.00    -0.180 F 
ATOM     27  F   LIG    1       -4.770  -5.125   1.197  0.00  0.00    -0.180 F 
ATOM     28  F   LIG    1       -5.220  -2.887   1.100  0.00  0.00    -0.160 F 
ENDBRANCH  24  25
ENDBRANCH  21  24
ENDBRANCH  17  19
ENDBRANCH  16  17
ENDBRANCH   2  16
TORSDOF 7
