REMARK  Name = ZINCrg00000J3vSD.0
REMARK                            x       y       z     vdW  Elec       q    Type
REMARK                         _______ _______ _______ _____ _____    ______ ____
ROOT
ATOM      1  N   LIG    1       -3.067   0.456   1.584  0.00  0.00    -1.000 NA
ATOM      2  C   LIG    1       -4.059   1.252   2.312  0.00  0.00    +0.310 C 
ENDROOT
BRANCH   1   3
ATOM      3  S   LIG    1       -2.603   0.905   0.059  0.00  0.00    +2.680 S 
ATOM      4  O   LIG    1       -2.216  -0.288  -0.610  0.00  0.00    -0.920 OA
ATOM      5  O   LIG    1       -3.615   1.775  -0.429  0.00  0.00    -0.950 OA
BRANCH   3   6
ATOM      6  C   LIG    1       -1.145   1.880   0.222  0.00  0.00    -0.680 A 
ATOM      7  C   LIG    1       -1.235   3.258   0.278  0.00  0.00    +0.110 A 
ATOM      8  C   LIG    1       -0.088   4.015   0.397  0.00  0.00    -0.010 A 
ATOM      9  C   LIG    1        1.157   3.404   0.468  0.00  0.00    -0.020 A 
ATOM     10  C   LIG    1        2.369   4.291   0.584  0.00  0.00    +0.080 C 
ATOM     11  C   LIG    1        3.572   3.494   1.083  0.00  0.00    +0.020 C 
ATOM     12  C   LIG    1        3.721   2.244   0.208  0.00  0.00    +0.020 C 
ATOM     13  C   LIG    1        2.560   1.300   0.513  0.00  0.00    +0.080 C 
ATOM     14  C   LIG    1        1.246   2.030   0.424  0.00  0.00    -0.100 A 
ATOM     15  C   LIG    1        0.090   1.270   0.301  0.00  0.00    +0.120 A 
ENDBRANCH   3   6
ENDBRANCH   1   3
BRANCH   1  16
ATOM     16  C   LIG    1       -2.486  -0.736   2.205  0.00  0.00    +0.440 C 
BRANCH  16  22
ATOM     17  C   LIG    1       -7.446  -4.390   4.838  0.00  0.00    +0.310 C 
ATOM     18  N   LIG    1       -6.527  -3.612   4.004  0.00  0.00    -0.620 N 
ATOM     19  C   LIG    1       -6.189  -2.250   4.403  0.00  0.00    +0.300 C 
ATOM     20  C   LIG    1       -4.713  -1.921   4.174  0.00  0.00    +0.300 C 
ATOM     21  N   LIG    1       -4.320  -2.366   2.840  0.00  0.00    -0.460 N 
ATOM     22  C   LIG    1       -3.401  -1.913   1.988  0.00  0.00    +0.190 A 
ATOM     23  N   LIG    1       -3.437  -2.686   0.923  0.00  0.00    -0.260 NA
ATOM     24  N   LIG    1       -4.343  -3.596   1.066  0.00  0.00    -0.200 NA
ATOM     25  C   LIG    1       -4.927  -3.438   2.215  0.00  0.00    +0.120 A 
ATOM     26  C   LIG    1       -6.015  -4.177   2.884  0.00  0.00    +0.620 C 
ATOM     27  O   LIG    1       -6.430  -5.236   2.454  0.00  0.00    -0.480 OA
ENDBRANCH  16  22
ENDBRANCH   1  16
TORSDOF 4
