REMARK  Name = ZINCrg000000t8v4.1
REMARK                            x       y       z     vdW  Elec       q    Type
REMARK                         _______ _______ _______ _____ _____    ______ ____
ROOT
ATOM      1  O   LIG    1       -1.000   1.873   3.369  0.00  0.00    -0.510 OA
ATOM      2  C   LIG    1       -0.386   1.342   2.462  0.00  0.00    +0.600 C 
ATOM      3  N   LIG    1       -0.740   1.575   1.183  0.00  0.00    -0.550 N 
ATOM      4  C   LIG    1       -0.016   1.082   0.008  0.00  0.00    +0.290 C 
ATOM      5  C   LIG    1       -0.803   1.608  -1.204  0.00  0.00    +0.100 C 
ATOM      6  C   LIG    1       -1.953   2.384  -0.602  0.00  0.00    -0.160 A 
ATOM      7  C   LIG    1       -2.987   3.079  -1.199  0.00  0.00    +0.160 A 
ATOM      8  C   LIG    1       -3.934   3.719  -0.421  0.00  0.00    -0.690 A 
ATOM      9  C   LIG    1       -3.843   3.662   0.958  0.00  0.00    +0.200 A 
ATOM     10  C   LIG    1       -2.813   2.970   1.558  0.00  0.00    -0.010 A 
ATOM     11  C   LIG    1       -1.853   2.321   0.779  0.00  0.00    +0.210 A 
ENDROOT
BRANCH   2  12
ATOM     12  C   LIG    1        0.736   0.452   2.760  0.00  0.00    -0.110 C 
ATOM     13  C   LIG    1        1.009   0.148   4.037  0.00  0.00    +0.260 C 
ATOM     14  O   LIG    1        2.034  -0.666   4.368  0.00  0.00    -0.290 OA
ATOM     15  C   LIG    1        2.581  -1.476   3.321  0.00  0.00    +0.220 C 
ATOM     16  C   LIG    1        2.761  -0.591   2.079  0.00  0.00    +0.230 C 
ATOM     17  O   LIG    1        1.482  -0.045   1.735  0.00  0.00    -0.300 OA
ENDBRANCH   2  12
BRANCH   8  18
ATOM     18  S   LIG    1       -5.253   4.603  -1.183  0.00  0.00    +2.700 S 
ATOM     19  O   LIG    1       -4.803   4.952  -2.485  0.00  0.00    -0.940 OA
ATOM     20  O   LIG    1       -5.697   5.562  -0.232  0.00  0.00    -0.930 OA
BRANCH  18  21
ATOM     21  N   LIG    1       -6.503   3.537  -1.391  0.00  0.00    -1.020 N 
ATOM     22  H   LIG    1       -6.792   3.297  -2.285  0.00  0.00    +0.440 HD
BRANCH  21  23
ATOM     23  C   LIG    1       -7.136   2.990  -0.288  0.00  0.00    +0.560 A 
ATOM     24  N   LIG    1       -6.555   3.076   0.900  0.00  0.00    -0.560 NA
ATOM     25  C   LIG    1       -7.136   2.568   1.974  0.00  0.00    +0.370 A 
ATOM     26  C   LIG    1       -8.359   1.930   1.844  0.00  0.00    -0.110 A 
ATOM     27  C   LIG    1       -8.935   1.852   0.586  0.00  0.00    +0.370 A 
ATOM     28  N   LIG    1       -8.305   2.386  -0.447  0.00  0.00    -0.540 NA
ENDBRANCH  21  23
ENDBRANCH  18  21
ENDBRANCH   8  18
TORSDOF 4
