REMARK  Name = ZINCrg00000y1N2D.0
REMARK                            x       y       z     vdW  Elec       q    Type
REMARK                         _______ _______ _______ _____ _____    ______ ____
ROOT
ATOM      1  N   LIG    1       -0.870   5.572   1.546  0.00  0.00    -0.600 N 
ATOM      2  C   LIG    1       -1.933   6.174   1.002  0.00  0.00    +0.490 C 
ATOM      3  C   LIG    1       -2.778   5.516  -0.054  0.00  0.00    +0.290 C 
ATOM      4  O   LIG    1       -2.508   4.112  -0.084  0.00  0.00    -0.340 OA
ATOM      5  C   LIG    1       -1.108   3.812  -0.141  0.00  0.00    +0.160 C 
ATOM      6  O   LIG    1       -2.227   7.291   1.373  0.00  0.00    -0.530 OA
ATOM      7  C   LIG    1       -0.467   4.213   1.190  0.00  0.00    +0.270 C 
ENDROOT
BRANCH   7   8
ATOM      8  C   LIG    1        1.033   4.153   1.060  0.00  0.00    -0.120 A 
ATOM      9  C   LIG    1        1.700   5.100   0.306  0.00  0.00    +0.020 A 
ATOM     10  C   LIG    1        3.077   5.048   0.191  0.00  0.00    +0.010 A 
ATOM     11  C   LIG    1        3.785   4.043   0.822  0.00  0.00    +0.030 A 
ATOM     12  C   LIG    1        3.118   3.093   1.573  0.00  0.00    +0.010 A 
ATOM     13  C   LIG    1        1.742   3.148   1.692  0.00  0.00    +0.030 A 
ENDBRANCH   7   8
BRANCH   5  14
ATOM     14  C   LIG    1       -0.917   2.335  -0.369  0.00  0.00    +0.530 C 
ATOM     15  N   LIG    1        0.323   1.835  -0.541  0.00  0.00    -0.730 N 
ATOM     16  H   LIG    1        1.091   2.427  -0.522  0.00  0.00    +0.400 HD
ATOM     17  O   LIG    1       -1.878   1.596  -0.398  0.00  0.00    -0.500 OA
BRANCH  15  18
ATOM     18  C   LIG    1        0.509   0.399  -0.764  0.00  0.00    +0.260 C 
BRANCH  18  19
ATOM     19  C   LIG    1        2.000   0.099  -0.934  0.00  0.00    +0.090 C 
BRANCH  19  20
ATOM     20  C   LIG    1        2.192  -1.379  -1.163  0.00  0.00    -0.200 A 
ATOM     21  C   LIG    1        2.280  -1.863  -2.424  0.00  0.00    +0.300 A 
ATOM     22  N   LIG    1        2.453  -3.191  -2.646  0.00  0.00    -0.610 N 
ATOM     23  H   LIG    1        2.514  -3.521  -3.555  0.00  0.00    +0.420 HD
ATOM     24  C   LIG    1        2.540  -4.055  -1.617  0.00  0.00    +0.510 A 
ATOM     25  C   LIG    1        2.452  -3.586  -0.295  0.00  0.00    -0.090 A 
ATOM     26  O   LIG    1        2.695  -5.247  -1.832  0.00  0.00    -0.550 OA
ATOM     27  C   LIG    1        2.284  -2.251  -0.070  0.00  0.00    +0.130 A 
ENDBRANCH  19  20
ENDBRANCH  18  19
ENDBRANCH  15  18
ENDBRANCH   5  14
BRANCH   1  29
ATOM     28  C   LIG    1       -0.704   6.121   3.924  0.00  0.00    +0.010 C 
ATOM     29  C   LIG    1       -0.078   6.302   2.540  0.00  0.00    +0.280 C 
ENDBRANCH   1  29
TORSDOF 6
