REMARK  Name = ZINCrH000004rv0f.0
REMARK                            x       y       z     vdW  Elec       q    Type
REMARK                         _______ _______ _______ _____ _____    ______ ____
ROOT
ATOM      1  N   LIG    1        2.564  -3.054  -3.067  0.00  0.00    -0.990 NA
ATOM      2  C   LIG    1        1.173  -2.587  -3.143  0.00  0.00    +0.300 C 
ATOM      3  C   LIG    1        1.021  -1.345  -2.259  0.00  0.00    -0.020 C 
ATOM      4  C   LIG    1        1.499  -1.670  -0.842  0.00  0.00    +0.170 C 
ATOM      5  C   LIG    1        2.979  -2.060  -0.878  0.00  0.00    +0.030 C 
ATOM      6  C   LIG    1        3.153  -3.310  -1.746  0.00  0.00    +0.300 C 
ENDROOT
BRANCH   4   7
ATOM      7  N   LIG    1        1.324  -0.491   0.016  0.00  0.00    -0.460 N 
ATOM      8  C   LIG    1       -0.008  -0.060   0.011  0.00  0.00    +0.100 A 
ATOM      9  C   LIG    1       -1.189  -0.801   0.031  0.00  0.00    -0.020 A 
ATOM     10  C   LIG    1       -2.410  -0.160   0.028  0.00  0.00    +0.040 A 
ATOM     11  C   LIG    1       -2.473   1.221   0.003  0.00  0.00    -0.020 A 
ATOM     12  C   LIG    1       -1.305   1.964  -0.022  0.00  0.00    +0.040 A 
ATOM     13  C   LIG    1       -0.082   1.328  -0.017  0.00  0.00    -0.140 A 
ATOM     14  C   LIG    1        1.333   1.870  -0.044  0.00  0.00    +0.090 C 
ATOM     15  C   LIG    1        2.167   0.632  -0.448  0.00  0.00    +0.140 C 
ATOM     16  C   LIG    1        3.518   0.629   0.272  0.00  0.00    +0.050 C 
ENDBRANCH   4   7
BRANCH   1  17
ATOM     17  S   LIG    1        3.452  -3.287  -4.446  0.00  0.00    +2.690 S 
ATOM     18  O   LIG    1        2.517  -3.502  -5.494  0.00  0.00    -0.940 OA
ATOM     19  O   LIG    1        4.473  -4.216  -4.113  0.00  0.00    -0.950 OA
BRANCH  17  24
ATOM     20  C   LIG    1        6.231   1.926  -5.683  0.00  0.00    +0.110 C 
ATOM     21  C   LIG    1        5.536   0.625  -5.374  0.00  0.00    +0.000 A 
ATOM     22  C   LIG    1        6.278  -0.493  -5.042  0.00  0.00    -0.010 A 
ATOM     23  C   LIG    1        5.641  -1.686  -4.753  0.00  0.00    +0.160 A 
ATOM     24  C   LIG    1        4.263  -1.764  -4.807  0.00  0.00    -0.720 A 
ATOM     25  C   LIG    1        3.518  -0.645  -5.140  0.00  0.00    +0.200 A 
ATOM     26  F   LIG    1        2.170  -0.719  -5.187  0.00  0.00    -0.120 F 
ATOM     27  C   LIG    1        4.157   0.550  -5.423  0.00  0.00    -0.040 A 
ENDBRANCH  17  24
ENDBRANCH   1  17
TORSDOF 3
