REMARK  Name = ZINCnE000001RA90.0
REMARK                            x       y       z     vdW  Elec       q    Type
REMARK                         _______ _______ _______ _____ _____    ______ ____
ROOT
ATOM      1  C   LIG    1       -0.968   1.735  -6.020  0.00  0.00    +0.240 C 
ENDROOT
BRANCH   1   6
ATOM      2  C   LIG    1       -0.194   1.208  -2.359  0.00  0.00    +0.120 A 
ATOM      3  C   LIG    1        0.951   0.428  -2.431  0.00  0.00    -0.100 A 
ATOM      4  C   LIG    1        1.464   0.067  -3.662  0.00  0.00    +0.040 A 
ATOM      5  C   LIG    1        0.843   0.491  -4.822  0.00  0.00    -0.020 A 
ATOM      6  C   LIG    1       -0.295   1.274  -4.753  0.00  0.00    -0.010 A 
ATOM      7  C   LIG    1       -0.815   1.633  -3.525  0.00  0.00    +0.000 A 
BRANCH   2   8
ATOM      8  O   LIG    1       -0.704   1.559  -1.150  0.00  0.00    -0.310 OA
BRANCH   8   9
ATOM      9  C   LIG    1       -0.013   1.086   0.008  0.00  0.00    +0.190 C 
BRANCH   9  11
ATOM     10  F   LIG    1       -0.748   2.978   1.274  0.00  0.00    -0.200 F 
ATOM     11  C   LIG    1       -0.729   1.579   1.267  0.00  0.00    +0.400 C 
ATOM     12  F   LIG    1       -2.041   1.095   1.277  0.00  0.00    -0.200 F 
ENDBRANCH   9  11
ENDBRANCH   8   9
ENDBRANCH   2   8
ENDBRANCH   1   6
BRANCH   1  13
ATOM     13  N   LIG    1       -0.405   3.023  -6.432  0.00  0.00    -0.620 NA
ATOM     14  C   LIG    1        0.267   3.116  -7.553  0.00  0.00    +0.330 A 
ATOM     15  N   LIG    1        0.535   2.121  -8.453  0.00  0.00    -0.500 NA
ATOM     16  N   LIG    1        1.267   2.484  -9.561  0.00  0.00    -0.220 NA
ATOM     17  C   LIG    1        1.647   3.719  -9.678  0.00  0.00    -0.010 A 
ATOM     18  S   LIG    1        1.026   4.561  -8.248  0.00  0.00    -0.110 S 
BRANCH  17  19
ATOM     19  C   LIG    1        2.435   4.306 -10.785  0.00  0.00    +0.140 A 
ATOM     20  N   LIG    1        2.814   5.556 -10.906  0.00  0.00    -0.370 NA
ATOM     21  O   LIG    1        3.449   5.727 -11.920  0.00  0.00    +0.090 OA
ATOM     22  C   LIG    1        3.574   4.596 -12.629  0.00  0.00    +0.130 A 
ATOM     23  C   LIG    1        2.930   3.630 -11.936  0.00  0.00    -0.040 A 
ENDBRANCH  17  19
ENDBRANCH   1  13
TORSDOF 6
