REMARK  Name = ZINCrH000004jRCR.0
REMARK                            x       y       z     vdW  Elec       q    Type
REMARK                         _______ _______ _______ _____ _____    ______ ____
ROOT
ATOM      1  C   LIG    1        0.497   4.312   0.021  0.00  0.00    +0.290 C 
ATOM      2  N   LIG    1        1.623   3.376   0.005  0.00  0.00    -0.620 N 
ATOM      3  C   LIG    1        1.395   2.047  -0.000  0.00  0.00    +0.520 C 
ATOM      4  O   LIG    1        2.328   1.272  -0.013  0.00  0.00    -0.540 OA
ENDROOT
BRANCH   3   5
ATOM      5  C   LIG    1       -0.019   1.526   0.010  0.00  0.00    +0.060 C 
BRANCH   5   6
ATOM      6  C   LIG    1        0.002  -0.004   0.002  0.00  0.00    +0.080 C 
BRANCH   6   7
ATOM      7  C   LIG    1       -1.433  -0.534   0.013  0.00  0.00    +0.000 C 
ATOM      8  C   LIG    1       -1.415  -2.056  -0.130  0.00  0.00    +0.110 C 
ATOM      9  C   LIG    1       -2.784  -2.610   0.166  0.00  0.00    -0.120 A 
ATOM     10  C   LIG    1       -3.227  -3.741  -0.493  0.00  0.00    +0.050 A 
ATOM     11  C   LIG    1       -4.476  -4.263  -0.210  0.00  0.00    -0.010 A 
ATOM     12  C   LIG    1       -5.285  -3.654   0.732  0.00  0.00    +0.040 A 
ATOM     13  C   LIG    1       -4.850  -2.520   1.389  0.00  0.00    -0.020 A 
ATOM     14  C   LIG    1       -3.598  -1.991   1.104  0.00  0.00    +0.160 A 
ATOM     15  N   LIG    1       -3.162  -0.837   1.761  0.00  0.00    -0.660 N 
ATOM     16  H   LIG    1       -3.632  -0.528   2.551  0.00  0.00    +0.410 HD
ATOM     17  C   LIG    1       -2.098  -0.151   1.309  0.00  0.00    +0.530 C 
ATOM     18  O   LIG    1       -1.670   0.785   1.950  0.00  0.00    -0.520 OA
ENDBRANCH   6   7
ENDBRANCH   5   6
ENDBRANCH   3   5
BRANCH   2  19
ATOM     19  C   LIG    1        2.998   3.883  -0.006  0.00  0.00    +0.320 C 
BRANCH  19  20
ATOM     20  C   LIG    1        3.462   4.067  -1.452  0.00  0.00    +0.190 C 
BRANCH  20  21
ATOM     21  O   LIG    1        2.679   5.085  -2.078  0.00  0.00    -0.310 OA
BRANCH  21  22
ATOM     22  C   LIG    1        2.966   5.374  -3.374  0.00  0.00    +0.140 A 
ATOM     23  C   LIG    1        3.984   4.696  -4.029  0.00  0.00    -0.060 A 
ATOM     24  C   LIG    1        4.271   4.989  -5.348  0.00  0.00    +0.070 A 
ATOM     25  C   LIG    1        3.550   5.964  -6.014  0.00  0.00    -0.070 A 
ATOM     26  C   LIG    1        2.538   6.645  -5.362  0.00  0.00    +0.070 A 
ATOM     27 CL   LIG    1        3.916   6.334  -7.670  0.00  0.00    -0.070 Cl
ATOM     28  C   LIG    1        2.244   6.352  -4.044  0.00  0.00    +0.000 A 
ENDBRANCH  21  22
ENDBRANCH  20  21
ENDBRANCH  19  20
ENDBRANCH   2  19
TORSDOF 7
