REMARK  Name = ZINCpe000000Ysb7.0
REMARK                            x       y       z     vdW  Elec       q    Type
REMARK                         _______ _______ _______ _____ _____    ______ ____
ROOT
ATOM      1  N   LIG    1        2.310   3.033  -2.191  0.00  0.00    -0.460 N 
ATOM      2  C   LIG    1        2.566   4.419  -2.604  0.00  0.00    +0.210 C 
ATOM      3  C   LIG    1        3.535   5.073  -1.614  0.00  0.00    +0.320 C 
ATOM      4  N   LIG    1        4.733   4.226  -1.504  0.00  0.00    -0.610 N 
ATOM      5  C   LIG    1        4.548   2.793  -1.226  0.00  0.00    +0.290 C 
ATOM      6  C   LIG    1        5.966   4.749  -1.652  0.00  0.00    +0.570 C 
ATOM      7  O   LIG    1        6.098   5.914  -1.973  0.00  0.00    -0.530 OA
ATOM      8  C   LIG    1        3.539   2.229  -2.232  0.00  0.00    +0.230 C 
ENDROOT
BRANCH   1  14
ATOM      9  C   LIG    1       -3.317   2.969  -4.472  0.00  0.00    +0.390 C 
ATOM     10  N   LIG    1       -2.038   3.212  -3.802  0.00  0.00    -0.380 N 
ATOM     11  N   LIG    1       -1.722   4.292  -2.963  0.00  0.00    +0.010 NA
ATOM     12  N   LIG    1       -0.506   4.176  -2.557  0.00  0.00    -0.180 NA
ATOM     13  C   LIG    1        0.048   3.064  -3.070  0.00  0.00    -0.130 A 
ATOM     14  C   LIG    1        1.318   2.461  -2.964  0.00  0.00    +0.470 A 
ATOM     15  N   LIG    1        1.538   1.329  -3.623  0.00  0.00    -0.570 NA
ATOM     16  C   LIG    1        0.597   0.773  -4.365  0.00  0.00    +0.600 A 
ATOM     17  N   LIG    1       -0.601   1.302  -4.499  0.00  0.00    -0.540 NA
ATOM     18  C   LIG    1       -0.918   2.432  -3.872  0.00  0.00    +0.320 A 
ENDBRANCH   1  14
BRANCH   6  19
ATOM     19  C   LIG    1        7.158   3.906  -1.424  0.00  0.00    -0.150 A 
ATOM     20  C   LIG    1        7.129   2.899  -0.458  0.00  0.00    +0.080 A 
ATOM     21  C   LIG    1        8.242   2.112  -0.253  0.00  0.00    -0.010 A 
ATOM     22  C   LIG    1        9.393   2.326  -0.997  0.00  0.00    +0.130 A 
ATOM     23  C   LIG    1        9.428   3.329  -1.954  0.00  0.00    -0.010 A 
ATOM     24  F   LIG    1       10.483   1.556  -0.788  0.00  0.00    -0.130 F 
ATOM     25  C   LIG    1        8.319   4.118  -2.171  0.00  0.00    +0.110 A 
ENDBRANCH   6  19
TORSDOF 2
