REMARK  Name = ZINCqH0000000eg7.0
REMARK                            x       y       z     vdW  Elec       q    Type
REMARK                         _______ _______ _______ _____ _____    ______ ____
ROOT
ATOM      1  N   LIG    1       -2.135   1.335  -1.654  0.00  0.00    -0.500 N 
ATOM      2  C   LIG    1       -0.860   1.761  -1.554  0.00  0.00    +0.490 C 
ATOM      3  O   LIG    1       -0.476   2.689  -2.235  0.00  0.00    -0.470 OA
ENDROOT
BRANCH   2   4
ATOM      4  C   LIG    1        0.088   1.086  -0.597  0.00  0.00    +0.190 C 
ATOM      5  O   LIG    1        1.274   0.688  -1.293  0.00  0.00    -0.280 OA
ATOM      6  C   LIG    1        2.142   1.678  -1.638  0.00  0.00    +0.040 A 
ATOM      7  C   LIG    1        3.109   1.431  -2.601  0.00  0.00    +0.020 A 
ATOM      8  C   LIG    1        3.999   2.426  -2.960  0.00  0.00    +0.010 A 
ATOM      9  C   LIG    1        3.929   3.669  -2.360  0.00  0.00    +0.020 A 
ATOM     10  C   LIG    1        2.967   3.922  -1.400  0.00  0.00    +0.010 A 
ATOM     11  C   LIG    1        2.070   2.929  -1.036  0.00  0.00    +0.080 A 
ATOM     12  O   LIG    1        1.126   3.194  -0.092  0.00  0.00    -0.290 OA
ATOM     13  C   LIG    1        0.488   2.065   0.514  0.00  0.00    +0.170 C 
ATOM     14  C   LIG    1       -0.760   2.523   1.272  0.00  0.00    +0.090 C 
ENDBRANCH   2   4
BRANCH   1  15
ATOM     15  C   LIG    1       -2.983   1.895  -2.602  0.00  0.00    +0.240 A 
ATOM     16  N   LIG    1       -4.219   1.560  -2.780  0.00  0.00    -0.500 NA
ATOM     17  C   LIG    1       -4.898   2.191  -3.730  0.00  0.00    +0.090 A 
ATOM     18  C   LIG    1       -4.167   3.114  -4.380  0.00  0.00    -0.280 A 
ATOM     19  C   LIG    1       -4.669   3.986  -5.506  0.00  0.00    +0.120 C 
ATOM     20  C   LIG    1       -5.973   3.388  -6.045  0.00  0.00    +0.020 C 
ATOM     21  C   LIG    1       -6.909   3.091  -4.870  0.00  0.00    +0.020 C 
ATOM     22  C   LIG    1       -6.356   1.914  -4.064  0.00  0.00    +0.120 C 
ATOM     23  S   LIG    1       -2.547   3.132  -3.697  0.00  0.00    +0.230 S 
ENDBRANCH   1  15
BRANCH   1  24
ATOM     24  C   LIG    1       -2.626   0.281  -0.763  0.00  0.00    +0.330 C 
BRANCH  24  26
ATOM     25  C   LIG    1       -4.580   0.569   0.673  0.00  0.00    +0.060 C 
ATOM     26  C   LIG    1       -3.342   0.905   0.407  0.00  0.00    -0.090 C 
ENDBRANCH  24  26
ENDBRANCH   1  24
TORSDOF 4
