REMARK  Name = ZINCrD00000hQ6eX.0
REMARK                            x       y       z     vdW  Elec       q    Type
REMARK                         _______ _______ _______ _____ _____    ______ ____
ROOT
ATOM      1  C   LIG    1        7.091  -2.231   5.974  0.00  0.00    +0.040 C 
ATOM      2  C   LIG    1        7.493  -1.240   4.886  0.00  0.00    -0.000 C 
ATOM      3  C   LIG    1        6.423  -0.236   4.598  0.00  0.00    +0.020 C 
ATOM      4  C   LIG    1        4.989  -0.737   4.851  0.00  0.00    +0.000 C 
ATOM      5  C   LIG    1        4.613  -1.895   3.897  0.00  0.00    +0.280 C 
ATOM      6  N   LIG    1        5.515  -2.151   2.814  0.00  0.00    -0.620 N 
ATOM      7  C   LIG    1        6.790  -2.892   3.088  0.00  0.00    +0.280 C 
ATOM      8  C   LIG    1        5.216  -1.741   1.564  0.00  0.00    +0.710 C 
ATOM      9  N   LIG    1        6.016  -2.081   0.533  0.00  0.00    -0.740 N 
ATOM     10  H   LIG    1        6.845  -2.557   0.699  0.00  0.00    +0.400 HD
ATOM     11  O   LIG    1        4.226  -1.065   1.367  0.00  0.00    -0.580 OA
ATOM     12  C   LIG    1        7.787  -1.949   3.571  0.00  0.00    +0.010 C 
ENDROOT
BRANCH   2  13
ATOM     13  C   LIG    1        8.735  -0.512   5.331  0.00  0.00    -0.070 A 
ATOM     14  C   LIG    1        9.234   0.531   4.574  0.00  0.00    +0.010 A 
ATOM     15  C   LIG    1       10.371   1.201   4.985  0.00  0.00    +0.000 A 
ATOM     16  C   LIG    1       11.015   0.821   6.148  0.00  0.00    +0.000 A 
ATOM     17  C   LIG    1       10.520  -0.227   6.901  0.00  0.00    +0.000 A 
ATOM     18  C   LIG    1        9.380  -0.893   6.493  0.00  0.00    +0.010 A 
ENDBRANCH   2  13
BRANCH   9  19
ATOM     19  C   LIG    1        5.633  -1.732  -0.837  0.00  0.00    +0.380 C 
BRANCH  19  20
ATOM     20  C   LIG    1        6.690  -2.222  -1.794  0.00  0.00    +0.170 A 
ATOM     21  C   LIG    1        6.555  -3.421  -2.410  0.00  0.00    -0.030 A 
ATOM     22  C   LIG    1        7.550  -3.856  -3.297  0.00  0.00    +0.360 A 
ATOM     23  N   LIG    1        8.603  -3.109  -3.528  0.00  0.00    -0.460 NA
ATOM     24  C   LIG    1        8.748  -1.921  -2.925  0.00  0.00    +0.250 A 
ATOM     25  C   LIG    1        9.739  -0.951  -2.987  0.00  0.00    -0.100 A 
ATOM     26  C   LIG    1        9.366   0.085  -2.144  0.00  0.00    +0.290 A 
ATOM     27  N   LIG    1        8.214  -0.211  -1.585  0.00  0.00    -0.300 NA
ATOM     28  N   LIG    1        7.795  -1.463  -2.052  0.00  0.00    -0.310 N 
ENDBRANCH  19  20
ENDBRANCH   9  19
TORSDOF 3
