REMARK  Name = ZINCvU00000005HC.0
REMARK                            x       y       z     vdW  Elec       q    Type
REMARK                         _______ _______ _______ _____ _____    ______ ____
ROOT
ATOM      1  C   LIG    1       -6.195   0.371  -2.414  0.00  0.00    +0.560 C 
ATOM      2  N   LIG    1       -5.864   1.034  -1.288  0.00  0.00    -0.510 N 
ATOM      3  O   LIG    1       -5.755   0.738  -3.487  0.00  0.00    -0.450 OA
ENDROOT
BRANCH   2   4
ATOM      4  C   LIG    1       -5.066   2.163  -1.359  0.00  0.00    +0.340 A 
ATOM      5  N   LIG    1       -4.589   2.659  -2.447  0.00  0.00    -0.460 NA
ATOM      6  C   LIG    1       -3.829   3.769  -2.355  0.00  0.00    +0.100 A 
ATOM      7  C   LIG    1       -3.192   4.492  -3.386  0.00  0.00    -0.030 A 
ATOM      8  C   LIG    1       -2.446   5.605  -3.095  0.00  0.00    +0.020 A 
ATOM      9  C   LIG    1       -2.300   6.035  -1.784  0.00  0.00    -0.070 A 
ATOM     10  C   LIG    1       -2.908   5.342  -0.761  0.00  0.00    +0.050 A 
ATOM     11  C   LIG    1       -1.476   7.260  -1.480  0.00  0.00    +0.100 C 
ATOM     12  C   LIG    1       -3.339   4.041  -4.816  0.00  0.00    +0.110 C 
ATOM     13  C   LIG    1       -3.669   4.210  -1.038  0.00  0.00    -0.180 A 
ATOM     14  S   LIG    1       -4.558   3.121   0.025  0.00  0.00    +0.090 S 
ENDBRANCH   2   4
BRANCH   1  19
ATOM     15  C   LIG    1       -8.989  -1.921  -1.376  0.00  0.00    +0.170 A 
ATOM     16  C   LIG    1       -8.776  -3.005  -2.215  0.00  0.00    -0.130 A 
ATOM     17  C   LIG    1       -7.724  -2.991  -3.119  0.00  0.00    +0.170 A 
ATOM     18  C   LIG    1       -6.881  -1.894  -3.187  0.00  0.00    +0.020 A 
ATOM     19  C   LIG    1       -7.092  -0.801  -2.345  0.00  0.00    -0.050 A 
ATOM     20  C   LIG    1       -8.148  -0.822  -1.434  0.00  0.00    -0.030 A 
BRANCH  15  22
ATOM     21  C   LIG    1      -10.845  -3.107  -0.481  0.00  0.00    +0.250 C 
ATOM     22  O   LIG    1      -10.021  -1.939  -0.492  0.00  0.00    -0.310 OA
ENDBRANCH  15  22
BRANCH  17  23
ATOM     23  O   LIG    1       -7.520  -4.056  -3.939  0.00  0.00    -0.310 OA
ATOM     24  C   LIG    1       -8.427  -5.153  -3.815  0.00  0.00    +0.250 C 
ENDBRANCH  17  23
ENDBRANCH   1  19
BRANCH   2  25
ATOM     25  C   LIG    1       -6.350   0.560   0.010  0.00  0.00    +0.340 C 
BRANCH  25  26
ATOM     26  C   LIG    1       -7.058   1.684   0.722  0.00  0.00    -0.120 A 
ATOM     27  C   LIG    1       -6.793   1.933   2.055  0.00  0.00    +0.030 A 
ATOM     28  C   LIG    1       -7.439   2.967   2.707  0.00  0.00    +0.020 A 
ATOM     29  C   LIG    1       -8.358   3.745   2.028  0.00  0.00    +0.010 A 
ATOM     30  C   LIG    1       -8.627   3.493   0.696  0.00  0.00    +0.010 A 
ATOM     31  C   LIG    1       -7.977   2.462   0.043  0.00  0.00    +0.020 A 
ENDBRANCH  25  26
ENDBRANCH   2  25
TORSDOF 6
