REMARK  Name = ZINCrD000000D709.0
REMARK                            x       y       z     vdW  Elec       q    Type
REMARK                         _______ _______ _______ _____ _____    ______ ____
ROOT
ATOM      1  C   LIG    1        2.377   1.414  -0.013  0.00  0.00    -0.720 A 
ATOM      2  C   LIG    1        1.171   2.089   0.002  0.00  0.00    +0.170 A 
ATOM      3  C   LIG    1       -0.017   1.383   0.010  0.00  0.00    -0.030 A 
ATOM      4  C   LIG    1        0.002  -0.004   0.002  0.00  0.00    +0.190 A 
ATOM      5  C   LIG    1        1.214  -0.679  -0.013  0.00  0.00    -0.090 A 
ATOM      6  C   LIG    1        2.399   0.031  -0.021  0.00  0.00    +0.160 A 
ENDROOT
BRANCH   1   8
ATOM      7  O   LIG    1        3.599   3.593   0.530  0.00  0.00    -0.950 OA
ATOM      8  S   LIG    1        3.890   2.317  -0.023  0.00  0.00    +2.700 S 
ATOM      9  O   LIG    1        4.880   1.447   0.508  0.00  0.00    -0.950 OA
BRANCH   8  10
ATOM     10  N   LIG    1        4.296   2.576  -1.607  0.00  0.00    -1.000 NA
ATOM     11  C   LIG    1        5.134   1.615  -2.342  0.00  0.00    +0.280 C 
ATOM     12  C   LIG    1        4.429   1.280  -3.666  0.00  0.00    +0.220 C 
ATOM     13  O   LIG    1        4.112   2.495  -4.349  0.00  0.00    -0.370 OA
ATOM     14  C   LIG    1        3.199   3.340  -3.645  0.00  0.00    +0.220 C 
ATOM     15  C   LIG    1        3.836   3.778  -2.321  0.00  0.00    +0.280 C 
ENDBRANCH   8  10
ENDBRANCH   1   8
BRANCH   4  16
ATOM     16  O   LIG    1       -1.165  -0.701   0.010  0.00  0.00    -0.300 OA
BRANCH  16  17
ATOM     17  C   LIG    1       -1.069  -2.126   0.001  0.00  0.00    +0.260 C 
BRANCH  17  18
ATOM     18  C   LIG    1       -2.453  -2.723   0.012  0.00  0.00    -0.100 A 
ATOM     19  C   LIG    1       -3.074  -3.008   1.214  0.00  0.00    +0.080 A 
ATOM     20  C   LIG    1       -4.345  -3.551   1.223  0.00  0.00    +0.020 A 
ATOM     21  C   LIG    1       -4.992  -3.817   0.031  0.00  0.00    +0.080 A 
ATOM     22  C   LIG    1       -4.369  -3.537  -1.171  0.00  0.00    -0.180 A 
ATOM     23  C   LIG    1       -3.100  -2.990  -1.181  0.00  0.00    +0.090 A 
BRANCH  22  24
ATOM     24  C   LIG    1       -5.074  -3.827  -2.471  0.00  0.00    +0.510 C 
ATOM     25  F   LIG    1       -4.651  -2.917  -3.445  0.00  0.00    -0.180 F 
ATOM     26  F   LIG    1       -6.456  -3.706  -2.289  0.00  0.00    -0.170 F 
ATOM     27  F   LIG    1       -4.771  -5.128  -2.885  0.00  0.00    -0.170 F 
ENDBRANCH  22  24
ENDBRANCH  17  18
ENDBRANCH  16  17
ENDBRANCH   4  16
TORSDOF 6
