REMARK  Name = ZINCrH000004j2VJ.0
REMARK                            x       y       z     vdW  Elec       q    Type
REMARK                         _______ _______ _______ _____ _____    ______ ____
ROOT
ATOM      1  C   LIG    1        1.248   2.023   0.001  0.00  0.00    +0.360 C 
ENDROOT
BRANCH   1   2
ATOM      2  C   LIG    1        1.030   3.514   0.011  0.00  0.00    +0.180 A 
ATOM      3  N   LIG    1        0.929   4.270   1.069  0.00  0.00    -0.250 NA
ATOM      4  N   LIG    1        0.748   5.492   0.708  0.00  0.00    -0.270 NA
ATOM      5  C   LIG    1        0.726   5.557  -0.603  0.00  0.00    +0.210 A 
ATOM      6  O   LIG    1        0.911   4.305  -1.068  0.00  0.00    -0.210 OA
BRANCH   5   7
ATOM      7  C   LIG    1        0.540   6.776  -1.416  0.00  0.00    +0.000 A 
ATOM      8  C   LIG    1        0.545   6.692  -2.811  0.00  0.00    +0.060 A 
ATOM      9  C   LIG    1        0.367   7.827  -3.569  0.00  0.00    +0.080 A 
ATOM     10  C   LIG    1        0.192   9.065  -2.944  0.00  0.00    -0.000 A 
ATOM     11  C   LIG    1        0.193   9.149  -1.549  0.00  0.00    +0.080 A 
ATOM     12  C   LIG    1        0.365   8.013  -0.791  0.00  0.00    +0.080 A 
BRANCH  10  13
ATOM     13  C   LIG    1        0.012  10.246  -3.733  0.00  0.00    +0.250 C 
ATOM     14  N   LIG    1       -0.131  11.183  -4.359  0.00  0.00    -0.400 NA
ENDBRANCH  10  13
ENDBRANCH   5   7
ENDBRANCH   1   2
BRANCH   1  15
ATOM     15  O   LIG    1       -0.016   1.357   0.009  0.00  0.00    -0.300 OA
BRANCH  15  19
ATOM     16  C   LIG    1        0.040  -2.776  -0.013  0.00  0.00    +0.000 A 
ATOM     17  C   LIG    1        0.042  -2.094   1.189  0.00  0.00    -0.090 A 
ATOM     18  C   LIG    1        0.023  -0.707   1.201  0.00  0.00    +0.160 A 
ATOM     19  C   LIG    1        0.002  -0.004   0.002  0.00  0.00    +0.010 A 
ATOM     20  C   LIG    1       -0.006  -0.694  -1.204  0.00  0.00    +0.160 A 
ATOM     21  C   LIG    1        0.019  -2.081  -1.208  0.00  0.00    -0.090 A 
BRANCH  16  23
ATOM     22  C   LIG    1       -1.376  -4.812  -0.011  0.00  0.00    +0.030 C 
ATOM     23  C   LIG    1        0.060  -4.283  -0.021  0.00  0.00    +0.070 C 
ENDBRANCH  16  23
BRANCH  20  24
ATOM     24  O   LIG    1       -0.032  -0.011  -2.380  0.00  0.00    -0.300 OA
ATOM     25  C   LIG    1       -0.038  -0.786  -3.580  0.00  0.00    +0.240 C 
ENDBRANCH  20  24
BRANCH  18  26
ATOM     26  O   LIG    1        0.025  -0.036   2.384  0.00  0.00    -0.300 OA
ATOM     27  C   LIG    1        0.048  -0.824   3.576  0.00  0.00    +0.250 C 
ENDBRANCH  18  26
ENDBRANCH  15  19
ENDBRANCH   1  15
TORSDOF 8
