REMARK  Name = ZINCrD000000AD5m.0
REMARK                            x       y       z     vdW  Elec       q    Type
REMARK                         _______ _______ _______ _____ _____    ______ ____
ROOT
ATOM      1  O   LIG    1        4.123   3.032   2.283  0.00  0.00    -0.520 OA
ATOM      2  C   LIG    1        4.278   3.826   1.380  0.00  0.00    +0.520 C 
ATOM      3  N   LIG    1        4.736   5.066   1.645  0.00  0.00    -0.720 N 
ATOM      4  H   LIG    1        4.859   5.702   0.922  0.00  0.00    +0.400 HD
ENDROOT
BRANCH   3   5
ATOM      5  C   LIG    1        5.047   5.454   3.023  0.00  0.00    +0.280 C 
BRANCH   5   6
ATOM      6  C   LIG    1        5.658   6.856   3.033  0.00  0.00    -0.030 C 
ATOM      7  C   LIG    1        6.966   6.851   2.235  0.00  0.00    +0.010 C 
ATOM      8  C   LIG    1        7.967   5.916   2.922  0.00  0.00    +0.210 C 
ATOM      9  O   LIG    1        8.172   6.346   4.270  0.00  0.00    -0.380 OA
ATOM     10  C   LIG    1        6.991   6.326   5.075  0.00  0.00    +0.220 C 
ATOM     11  C   LIG    1        5.952   7.277   4.476  0.00  0.00    +0.020 C 
BRANCH   6  12
ATOM     12  C   LIG    1        4.692   7.831   2.410  0.00  0.00    -0.050 A 
ATOM     13  C   LIG    1        5.016   8.464   1.225  0.00  0.00    +0.000 A 
ATOM     14  C   LIG    1        4.131   9.359   0.653  0.00  0.00    +0.060 A 
ATOM     15  C   LIG    1        2.920   9.621   1.265  0.00  0.00    -0.010 A 
ATOM     16  C   LIG    1        2.594   8.987   2.452  0.00  0.00    +0.110 A 
ATOM     17  F   LIG    1        1.410   9.243   3.051  0.00  0.00    -0.140 F 
ATOM     18  C   LIG    1        3.479   8.088   3.022  0.00  0.00    -0.020 A 
ENDBRANCH   6  12
ENDBRANCH   5   6
ENDBRANCH   3   5
BRANCH   2  19
ATOM     19  C   LIG    1        3.958   3.428  -0.037  0.00  0.00    +0.180 C 
BRANCH  19  20
ATOM     20  C   LIG    1        3.468   2.003  -0.060  0.00  0.00    +0.150 A 
ATOM     21  N   LIG    1        4.200   0.941  -0.199  0.00  0.00    -0.270 NA
ATOM     22  O   LIG    1        3.381  -0.211  -0.171  0.00  0.00    -0.090 OA
ATOM     23  C   LIG    1        2.095   0.159  -0.008  0.00  0.00    +0.090 A 
ATOM     24  C   LIG    1        0.902  -0.546   0.086  0.00  0.00    +0.020 A 
ATOM     25  C   LIG    1       -0.285   0.134   0.255  0.00  0.00    +0.080 A 
ATOM     26  C   LIG    1       -0.300   1.519   0.332  0.00  0.00    -0.010 A 
ATOM     27  C   LIG    1        0.863   2.232   0.242  0.00  0.00    +0.090 A 
ATOM     28  C   LIG    1        2.076   1.562   0.071  0.00  0.00    -0.190 A 
ENDBRANCH  19  20
ENDBRANCH   2  19
TORSDOF 5
