REMARK  Name = ZINCpe00000yzzyJ.0
REMARK                            x       y       z     vdW  Elec       q    Type
REMARK                         _______ _______ _______ _____ _____    ______ ____
ROOT
ATOM      1  N   LIG    1        4.127   6.734  -1.411  0.00  0.00    -0.450 N 
ATOM      2  C   LIG    1        5.184   6.173  -0.531  0.00  0.00    +0.190 C 
ATOM      3  C   LIG    1        4.411   5.464   0.602  0.00  0.00    +0.180 C 
ATOM      4  C   LIG    1        3.028   5.140   0.001  0.00  0.00    +0.270 C 
ATOM      5  C   LIG    1        3.081   5.680  -1.444  0.00  0.00    +0.220 C 
ENDROOT
BRANCH   1   8
ATOM      6  C   LIG    1        4.557   6.621  -4.957  0.00  0.00    +0.580 A 
ATOM      7  N   LIG    1        4.088   6.383  -3.742  0.00  0.00    -0.600 NA
ATOM      8  C   LIG    1        4.619   6.985  -2.682  0.00  0.00    +0.390 A 
ATOM      9  C   LIG    1        5.677   7.877  -2.868  0.00  0.00    -0.160 A 
ATOM     10  C   LIG    1        6.139   8.092  -4.152  0.00  0.00    +0.370 A 
ATOM     11  N   LIG    1        5.563   7.458  -5.163  0.00  0.00    -0.580 NA
BRANCH   6  13
ATOM     12  C   LIG    1        4.486   6.228  -7.392  0.00  0.00    +0.310 C 
ATOM     13  N   LIG    1        3.982   5.979  -6.040  0.00  0.00    -0.700 N 
ATOM     14  H   LIG    1        3.244   5.364  -5.903  0.00  0.00    +0.410 HD
ENDBRANCH   6  13
ENDBRANCH   1   8
BRANCH   4  15
ATOM     15  N   LIG    1        2.802   3.692  -0.004  0.00  0.00    -0.660 N 
ATOM     16  H   LIG    1        3.558   3.084  -0.015  0.00  0.00    +0.420 HD
BRANCH  15  17
ATOM     17  C   LIG    1        1.515   3.194   0.005  0.00  0.00    +0.530 A 
ATOM     18  N   LIG    1        0.479   4.016   0.019  0.00  0.00    -0.630 NA
ATOM     19  C   LIG    1       -0.773   3.561   0.029  0.00  0.00    +0.550 A 
ATOM     20  N   LIG    1       -1.052   2.287   0.030  0.00  0.00    -0.370 NA
ATOM     21  N   LIG    1       -0.016   1.342   0.009  0.00  0.00    -0.240 N 
ATOM     22  C   LIG    1        0.002  -0.004   0.002  0.00  0.00    +0.230 A 
ATOM     23  C   LIG    1        1.292  -0.431  -0.013  0.00  0.00    -0.030 A 
ATOM     24  C   LIG    1        2.118   0.694  -0.014  0.00  0.00    +0.030 A 
ATOM     25  C   LIG    1        1.288   1.798  -0.001  0.00  0.00    -0.110 A 
ENDBRANCH  15  17
ENDBRANCH   4  15
BRANCH   3  26
ATOM     26  O   LIG    1        5.082   4.261   0.982  0.00  0.00    -0.380 OA
ATOM     27  C   LIG    1        5.972   4.418   2.089  0.00  0.00    +0.220 C 
ENDBRANCH   3  26
TORSDOF 5
