REMARK  Name = ZINCpk000005S300.0
REMARK                            x       y       z     vdW  Elec       q    Type
REMARK                         _______ _______ _______ _____ _____    ______ ____
ROOT
ATOM      1  C   LIG    1       -1.032  -1.744   3.768  0.00  0.00    +0.240 C 
ATOM      2  C   LIG    1       -0.026  -2.456   2.860  0.00  0.00    +0.040 C 
ATOM      3  C   LIG    1       -0.197  -1.953   1.425  0.00  0.00    +0.190 C 
ATOM      4  N   LIG    1        0.021  -0.501   1.384  0.00  0.00    -0.530 NA
ATOM      5  C   LIG    1       -0.964   0.207   2.212  0.00  0.00    +0.170 C 
ATOM      6  C   LIG    1       -0.816  -0.232   3.671  0.00  0.00    +0.040 C 
ENDROOT
BRANCH   1   8
ATOM      7  C   LIG    1       -1.856  -2.115   6.031  0.00  0.00    +0.600 C 
ATOM      8  N   LIG    1       -0.836  -2.180   5.153  0.00  0.00    -0.720 N 
ATOM      9  H   LIG    1        0.029  -2.516   5.437  0.00  0.00    +0.400 HD
ATOM     10  O   LIG    1       -2.939  -1.694   5.675  0.00  0.00    -0.550 OA
BRANCH   7  14
ATOM     11  C   LIG    1       -2.662  -3.185  10.844  0.00  0.00    +0.360 C 
ATOM     12  N   LIG    1       -2.019  -3.021   9.539  0.00  0.00    -0.360 N 
ATOM     13  C   LIG    1       -2.605  -2.544   8.429  0.00  0.00    +0.320 A 
ATOM     14  C   LIG    1       -1.658  -2.553   7.425  0.00  0.00    -0.300 A 
ATOM     15  C   LIG    1       -0.465  -3.068   7.981  0.00  0.00    +0.270 A 
ATOM     16  N   LIG    1       -0.689  -3.337   9.237  0.00  0.00    -0.290 NA
ENDBRANCH   7  14
ENDBRANCH   1   8
BRANCH   4  17
ATOM     17  C   LIG    1        0.002  -0.004   0.002  0.00  0.00    +0.350 C 
BRANCH  17  18
ATOM     18  C   LIG    1       -0.018   1.503   0.010  0.00  0.00    +0.160 A 
ATOM     19  N   LIG    1        1.021   2.288   0.005  0.00  0.00    -0.260 NA
ATOM     20  N   LIG    1        0.630   3.514   0.014  0.00  0.00    -0.280 NA
ATOM     21  C   LIG    1       -0.672   3.552   0.027  0.00  0.00    +0.180 A 
ATOM     22  O   LIG    1       -1.112   2.283   0.019  0.00  0.00    -0.220 OA
BRANCH  21  23
ATOM     23  C   LIG    1       -1.527   4.793   0.041  0.00  0.00    +0.030 C 
ATOM     24  C   LIG    1       -1.211   5.616   1.292  0.00  0.00    +0.070 C 
ATOM     25  C   LIG    1       -3.004   4.394   0.052  0.00  0.00    +0.050 C 
ATOM     26  C   LIG    1       -1.234   5.629  -1.206  0.00  0.00    +0.070 C 
ENDBRANCH  21  23
ENDBRANCH  17  18
ENDBRANCH   4  17
TORSDOF 5
