REMARK  Name = ZINCqH0000003JPm.0
REMARK                            x       y       z     vdW  Elec       q    Type
REMARK                         _______ _______ _______ _____ _____    ______ ____
ROOT
ATOM      1  N   LIG    1        6.153   1.068  -2.661  0.00  0.00    -0.610 N 
ATOM      2  C   LIG    1        5.492   1.009  -1.488  0.00  0.00    +0.520 C 
ATOM      3  O   LIG    1        6.107   1.051  -0.443  0.00  0.00    -0.530 OA
ATOM      4  C   LIG    1        5.410   1.018  -3.923  0.00  0.00    +0.280 C 
ENDROOT
BRANCH   1   5
ATOM      5  C   LIG    1        7.613   1.182  -2.674  0.00  0.00    +0.340 C 
BRANCH   5   9
ATOM      6  C   LIG    1        9.348  -2.723  -2.712  0.00  0.00    +0.140 A 
ATOM      7  C   LIG    1        9.055  -2.081  -3.906  0.00  0.00    -0.030 A 
ATOM      8  C   LIG    1        8.494  -0.819  -3.892  0.00  0.00    +0.060 A 
ATOM      9  C   LIG    1        8.225  -0.195  -2.687  0.00  0.00    -0.150 A 
ATOM     10  C   LIG    1        8.522  -0.830  -1.496  0.00  0.00    +0.080 A 
ATOM     11  C   LIG    1        9.077  -2.095  -1.505  0.00  0.00    -0.080 A 
BRANCH   6  12
ATOM     12  O   LIG    1        9.901  -3.965  -2.724  0.00  0.00    -0.320 OA
BRANCH  12  14
ATOM     13  C   LIG    1       10.791  -5.949  -1.670  0.00  0.00    +0.070 C 
ATOM     14  C   LIG    1       10.176  -4.564  -1.456  0.00  0.00    +0.170 C 
ENDBRANCH  12  14
ENDBRANCH   6  12
ENDBRANCH   5   9
ENDBRANCH   1   5
BRANCH   2  15
ATOM     15  C   LIG    1        3.990   0.891  -1.474  0.00  0.00    +0.060 C 
BRANCH  15  16
ATOM     16  C   LIG    1        3.495   0.844  -0.027  0.00  0.00    +0.220 C 
BRANCH  16  17
ATOM     17  C   LIG    1        1.993   0.726  -0.013  0.00  0.00    +0.190 A 
ATOM     18  N   LIG    1        1.300  -0.385  -0.012  0.00  0.00    -0.470 NA
ATOM     19  C   LIG    1        0.002  -0.004   0.002  0.00  0.00    +0.230 A 
ATOM     20  N   LIG    1       -0.016   1.304   0.009  0.00  0.00    -0.370 NA
ATOM     21  O   LIG    1        1.118   1.736   0.001  0.00  0.00    +0.080 OA
BRANCH  19  22
ATOM     22  C   LIG    1       -1.179  -0.900   0.009  0.00  0.00    -0.050 A 
ATOM     23  C   LIG    1       -1.076  -2.241   0.002  0.00  0.00    -0.020 A 
ATOM     24  S   LIG    1       -2.624  -2.959   0.013  0.00  0.00    +0.200 S 
ATOM     25  C   LIG    1       -3.410  -1.387   0.028  0.00  0.00    -0.060 A 
ATOM     26  C   LIG    1       -2.490  -0.424   0.030  0.00  0.00    +0.040 A 
ENDBRANCH  19  22
ENDBRANCH  16  17
ENDBRANCH  15  16
ENDBRANCH   2  15
TORSDOF 8
