REMARK  Name = ZINCnE00000rhmtO.0
REMARK                            x       y       z     vdW  Elec       q    Type
REMARK                         _______ _______ _______ _____ _____    ______ ____
ROOT
ATOM      1  N   LIG    1        0.332   2.304   1.968  0.00  0.00    -0.710 N 
ATOM      2  H   LIG    1        0.307   3.272   1.907  0.00  0.00    +0.390 HD
ENDROOT
BRANCH   1   6
ATOM      3  C   LIG    1        3.202   0.436   4.343  0.00  0.00    +0.050 A 
ATOM      4  C   LIG    1        2.282  -0.327   3.640  0.00  0.00    -0.030 A 
ATOM      5  C   LIG    1        1.326   0.292   2.858  0.00  0.00    -0.040 A 
ATOM      6  C   LIG    1        1.295   1.677   2.766  0.00  0.00    +0.240 A 
ATOM      7  C   LIG    1        2.218   2.439   3.470  0.00  0.00    -0.050 A 
ATOM      8  C   LIG    1        3.168   1.820   4.257  0.00  0.00    -0.070 A 
ATOM      9  C   LIG    1        4.170   2.647   5.021  0.00  0.00    +0.080 C 
BRANCH   3  10
ATOM     10  O   LIG    1        4.139  -0.174   5.119  0.00  0.00    -0.320 OA
BRANCH  10  11
ATOM     11  C   LIG    1        4.116  -1.602   5.162  0.00  0.00    +0.170 C 
BRANCH  11  13
ATOM     12  C   LIG    1        5.210  -3.632   6.124  0.00  0.00    +0.030 C 
ATOM     13  C   LIG    1        5.235  -2.103   6.077  0.00  0.00    +0.020 C 
ENDBRANCH  11  13
ENDBRANCH  10  11
ENDBRANCH   3  10
ENDBRANCH   1   6
BRANCH   1  14
ATOM     14  C   LIG    1       -0.641   1.499   1.225  0.00  0.00    +0.250 C 
ATOM     15  C   LIG    1       -0.109   1.199  -0.187  0.00  0.00    -0.010 C 
ATOM     16  C   LIG    1       -1.114   1.819  -1.179  0.00  0.00    +0.000 C 
ATOM     17  C   LIG    1       -1.817   2.931  -0.362  0.00  0.00    +0.020 C 
ATOM     18  C   LIG    1       -1.954   2.290   1.041  0.00  0.00    +0.000 C 
BRANCH  18  19
ATOM     19  C   LIG    1       -2.083   3.373   2.114  0.00  0.00    +0.080 C 
BRANCH  19  20
ATOM     20  C   LIG    1       -2.351   2.728   3.450  0.00  0.00    +0.480 C 
ATOM     21  O   LIG    1       -3.412   2.919   4.018  0.00  0.00    -0.690 OA
ATOM     22  O   LIG    1       -1.505   2.014   3.962  0.00  0.00    -0.680 OA
ENDBRANCH  19  20
BRANCH  19  23
ATOM     23  O   LIG    1       -3.165   4.246   1.782  0.00  0.00    -0.370 OA
ATOM     24  C   LIG    1       -2.994   5.587   2.246  0.00  0.00    +0.170 C 
ENDBRANCH  19  23
ENDBRANCH  18  19
ENDBRANCH   1  14
TORSDOF 8
