REMARK  Name = ZINCqH00000080ZQ.0
REMARK                            x       y       z     vdW  Elec       q    Type
REMARK                         _______ _______ _______ _____ _____    ______ ____
ROOT
ATOM      1  C   UNK A  0        1.495  -2.168  -0.024  0.00  0.00    +0.310 C 
ATOM      2  C   UNK A  0        2.964  -2.292  -0.480  0.00  0.00    +0.030 C 
ATOM      3  C   UNK A  0        3.564  -0.940  -0.037  0.00  0.00    +0.070 C 
ATOM      4  C   UNK A  0        2.397   0.025  -0.021  0.00  0.00    -0.080 A 
ATOM      5  C   UNK A  0        2.381   1.410  -0.012  0.00  0.00    +0.020 A 
ATOM      6  C   UNK A  0        1.184   2.094   0.002  0.00  0.00    +0.030 A 
ATOM      7  C   UNK A  0       -0.017   1.388   0.010  0.00  0.00    -0.050 A 
ATOM      8  C   UNK A  0        0.002  -0.004   0.002  0.00  0.00    +0.040 A 
ATOM      9  C   UNK A  0        1.207  -0.681  -0.013  0.00  0.00    -0.120 A 
ENDROOT
BRANCH   1  13
ATOM     10  N   MET A  1        0.886  -4.549   2.711  0.00  0.00    -0.730 N 
ATOM     11  H   MET A  1        0.988  -3.979   3.489  0.00  0.00    +0.400 HD
ATOM     12  C   UNK A  0        1.038  -4.034   1.474  0.00  0.00    +0.710 C 
ATOM     13  N   UNK A  0        1.330  -2.728   1.319  0.00  0.00    -0.730 N 
ATOM     14  H   UNK A  0        1.432  -2.158   2.098  0.00  0.00    +0.400 HD
ATOM     15  O   UNK A  0        0.910  -4.748   0.498  0.00  0.00    -0.590 OA
BRANCH  10  16
ATOM     16  CA  MET A  1        0.568  -5.969   2.879  0.00  0.00    +0.270 C 
BRANCH  16  17
ATOM     17  CB  MET A  1       -0.143  -6.177   4.217  0.00  0.00    +0.070 C 
BRANCH  17  18
ATOM     18  CG  MET A  1       -1.494  -5.460   4.194  0.00  0.00    +0.070 C 
BRANCH  18  20
ATOM     19  CE  MET A  1       -3.892  -4.798   5.562  0.00  0.00    +0.140 C 
ATOM     20  SD  MET A  1       -2.337  -5.707   5.781  0.00  0.00    -0.260 S 
ENDBRANCH  18  20
ENDBRANCH  17  18
ENDBRANCH  16  17
BRANCH  16  21
ATOM     21  C   MET A  1        1.861  -6.787   2.855  0.00  0.00    +0.170 C 
BRANCH  21  22
ATOM     22  O   MET A  1        2.663  -6.443   3.986  0.00  0.00    -0.570 OA
ATOM     23  H   MET A  1        3.500  -6.925   4.036  0.00  0.00    +0.380 HD
ENDBRANCH  21  22
ENDBRANCH  16  21
ENDBRANCH  10  16
ENDBRANCH   1  13
BRANCH   7  24
ATOM     24  C   UNK A  0       -1.310   2.116   0.020  0.00  0.00    -0.040 A 
ATOM     25  C   UNK A  0       -2.510   1.409   0.016  0.00  0.00    +0.010 A 
ATOM     26  C   UNK A  0       -3.710   2.091   0.031  0.00  0.00    +0.000 A 
ATOM     27  C   UNK A  0       -3.722   3.474   0.039  0.00  0.00    +0.000 A 
ATOM     28  C   UNK A  0       -2.533   4.181   0.037  0.00  0.00    +0.010 A 
ATOM     29  C   UNK A  0       -1.328   3.509   0.027  0.00  0.00    +0.020 A 
ENDBRANCH   7  24
TORSDOF 8
