REMARK  Name = ZINCpk00000y6xbv.2
REMARK                            x       y       z     vdW  Elec       q    Type
REMARK                         _______ _______ _______ _____ _____    ______ ____
ROOT
ATOM      1  N   LIG    1       -3.948  -3.716  -0.322  0.00  0.00    -0.560 NA
ATOM      2  C   LIG    1       -4.671  -4.479  -1.337  0.00  0.00    +0.180 C 
ATOM      3  C   LIG    1       -4.002  -5.824  -1.515  0.00  0.00    +0.030 C 
ATOM      4  C   LIG    1       -4.667  -6.857  -0.591  0.00  0.00    +0.280 C 
ATOM      5  N   LIG    1       -4.979  -6.275   0.729  0.00  0.00    -0.580 N 
ATOM      6  C   LIG    1       -4.065  -5.394   1.428  0.00  0.00    +0.310 C 
ATOM      7  C   LIG    1       -4.341  -3.927   1.021  0.00  0.00    +0.170 C 
ENDROOT
BRANCH   5   8
ATOM      8  C   LIG    1       -6.198  -6.582   1.325  0.00  0.00    +0.410 A 
ATOM      9  N   LIG    1       -6.992  -7.462   0.760  0.00  0.00    -0.340 NA
ATOM     10  N   LIG    1       -8.220  -7.784   1.341  0.00  0.00    -0.270 N 
ATOM     11  C   LIG    1       -9.221  -8.625   1.006  0.00  0.00    +0.410 A 
ATOM     12  N   LIG    1      -10.149  -8.526   1.926  0.00  0.00    -0.270 NA
ATOM     13  N   LIG    1       -9.794  -7.674   2.824  0.00  0.00    -0.250 NA
ATOM     14  C   LIG    1       -8.606  -7.182   2.513  0.00  0.00    +0.120 A 
ATOM     15  C   LIG    1       -7.753  -6.239   3.118  0.00  0.00    +0.190 A 
ATOM     16  C   LIG    1       -6.562  -5.950   2.530  0.00  0.00    -0.020 A 
ENDBRANCH   5   8
BRANCH   1  17
ATOM     17  C   LIG    1       -3.938  -2.283  -0.648  0.00  0.00    +0.260 C 
BRANCH  17  20
ATOM     18  N   LIG    1       -0.942  -0.757   0.765  0.00  0.00    -0.370 N 
ATOM     19  C   LIG    1       -1.577  -1.416  -0.227  0.00  0.00    +0.250 A 
ATOM     20  C   LIG    1       -2.864  -1.593   0.153  0.00  0.00    -0.240 A 
ATOM     21  C   LIG    1       -3.021  -1.022   1.420  0.00  0.00    +0.230 A 
ATOM     22  N   LIG    1       -1.868  -0.526   1.791  0.00  0.00    -0.290 NA
BRANCH  18  23
ATOM     23  C   LIG    1        0.468  -0.359   0.771  0.00  0.00    +0.320 C 
BRANCH  23  25
ATOM     24  C   LIG    1        2.044   1.562   1.028  0.00  0.00    +0.030 C 
ATOM     25  C   LIG    1        0.572   1.147   1.022  0.00  0.00    +0.010 C 
ENDBRANCH  23  25
ENDBRANCH  18  23
ENDBRANCH  17  20
ENDBRANCH   1  17
TORSDOF 5
