REMARK  Name = ZINCvU000000056P.0
REMARK                            x       y       z     vdW  Elec       q    Type
REMARK                         _______ _______ _______ _____ _____    ______ ____
ROOT
ATOM      1  N   LIG    1        1.296   4.085   1.387  0.00  0.00    -0.530 N 
ATOM      2  C   LIG    1        2.531   4.301   1.909  0.00  0.00    +0.590 A 
ATOM      3  N   LIG    1        2.697   4.727   3.125  0.00  0.00    -0.490 NA
ATOM      4  C   LIG    1        1.648   4.979   3.938  0.00  0.00    +0.060 A 
ATOM      5  C   LIG    1        0.355   4.780   3.470  0.00  0.00    -0.210 A 
ATOM      6  C   LIG    1       -0.650   5.100   4.474  0.00  0.00    -0.010 A 
ATOM      7  C   LIG    1       -0.152   5.517   5.638  0.00  0.00    -0.180 A 
ATOM      8  C   LIG    1       -0.986   5.907   6.831  0.00  0.00    +0.150 C 
ATOM      9  S   LIG    1        1.600   5.554   5.600  0.00  0.00    +0.220 S 
ATOM     10  C   LIG    1        0.195   4.317   2.128  0.00  0.00    +0.560 A 
ATOM     11  O   LIG    1       -0.916   4.131   1.664  0.00  0.00    -0.500 OA
ENDROOT
BRANCH   6  12
ATOM     12  C   LIG    1       -2.105   4.971   4.223  0.00  0.00    -0.030 A 
ATOM     13  C   LIG    1       -2.727   5.785   3.277  0.00  0.00    +0.040 A 
ATOM     14  C   LIG    1       -4.081   5.656   3.044  0.00  0.00    +0.000 A 
ATOM     15  C   LIG    1       -4.823   4.731   3.755  0.00  0.00    +0.010 A 
ATOM     16  C   LIG    1       -4.213   3.924   4.699  0.00  0.00    +0.000 A 
ATOM     17  C   LIG    1       -2.859   4.040   4.936  0.00  0.00    +0.020 A 
ENDBRANCH   6  12
BRANCH   1  18
ATOM     18  C   LIG    1        1.160   3.605   0.010  0.00  0.00    +0.380 C 
BRANCH  18  24
ATOM     19  C   LIG    1        6.024  -0.939  -0.061  0.00  0.00    +0.120 C 
ATOM     20  C   LIG    1        4.745  -0.141  -0.045  0.00  0.00    -0.030 A 
ATOM     21  C   LIG    1        4.801   1.245  -0.039  0.00  0.00    +0.010 A 
ATOM     22  C   LIG    1        3.642   1.988  -0.023  0.00  0.00    +0.050 A 
ATOM     23  C   LIG    1        2.405   1.337  -0.014  0.00  0.00    -0.150 A 
ATOM     24  C   LIG    1        1.151   2.098   0.002  0.00  0.00    -0.010 A 
ATOM     25  C   LIG    1       -0.017   1.408   0.010  0.00  0.00    -0.030 A 
ATOM     26  C   LIG    1        0.002  -0.004   0.002  0.00  0.00    +0.510 A 
ATOM     27  O   LIG    1        1.153  -0.693  -0.012  0.00  0.00    -0.270 OA
ATOM     28  O   LIG    1       -1.053  -0.612   0.009  0.00  0.00    -0.450 OA
ATOM     29  C   LIG    1        2.350  -0.068  -0.020  0.00  0.00    +0.150 A 
ATOM     30  C   LIG    1        3.531  -0.797  -0.035  0.00  0.00    -0.090 A 
ATOM     31  C   LIG    1        3.488  -2.303  -0.042  0.00  0.00    +0.120 C 
ENDBRANCH  18  24
ENDBRANCH   1  18
TORSDOF 3
