REMARK  Name = ZINCrg00001qMARj.0
REMARK                            x       y       z     vdW  Elec       q    Type
REMARK                         _______ _______ _______ _____ _____    ______ ____
ROOT
ATOM      1  C   LIG    1        2.385   1.693  -0.175  0.00  0.00    +0.110 C 
ATOM      2  C   LIG    1        1.066   2.405  -0.023  0.00  0.00    +0.090 A 
ATOM      3  C   LIG    1        1.010   3.785   0.044  0.00  0.00    -0.060 A 
ATOM      4  C   LIG    1       -0.226   4.407   0.185  0.00  0.00    +0.370 A 
ATOM      5  N   LIG    1       -1.337   3.689   0.256  0.00  0.00    -0.530 NA
ATOM      6  C   LIG    1       -1.314   2.371   0.189  0.00  0.00    +0.420 A 
ATOM      7  C   LIG    1       -0.122   1.689   0.055  0.00  0.00    -0.770 A 
ENDROOT
BRANCH   4   8
ATOM      8  N   LIG    1       -0.297   5.793   0.254  0.00  0.00    -0.480 N 
ATOM      9  C   LIG    1        0.547   6.310   1.339  0.00  0.00    +0.200 C 
ATOM     10  C   LIG    1        0.560   7.840   1.292  0.00  0.00    +0.040 C 
ATOM     11  C   LIG    1       -0.872   8.362   1.441  0.00  0.00    +0.020 C 
ATOM     12  C   LIG    1       -1.741   7.771   0.327  0.00  0.00    -0.010 C 
ATOM     13  C   LIG    1       -1.687   6.243   0.402  0.00  0.00    +0.220 C 
BRANCH  12  14
ATOM     14  C   LIG    1       -3.187   8.240   0.504  0.00  0.00    +0.030 C 
BRANCH  14  15
ATOM     15  C   LIG    1       -3.259   9.755   0.305  0.00  0.00    +0.180 C 
BRANCH  15  16
ATOM     16  O   LIG    1       -4.609  10.193   0.470  0.00  0.00    -0.580 OA
ATOM     17  H   LIG    1       -4.729  11.146   0.358  0.00  0.00    +0.380 HD
ENDBRANCH  15  16
ENDBRANCH  14  15
ENDBRANCH  12  14
ENDBRANCH   4   8
BRANCH   7  18
ATOM     18  S   LIG    1       -0.107  -0.071  -0.025  0.00  0.00    +2.700 S 
ATOM     19  O   LIG    1       -1.457  -0.490   0.124  0.00  0.00    -0.950 OA
ATOM     20  O   LIG    1        0.940  -0.503   0.833  0.00  0.00    -0.950 OA
BRANCH  18  21
ATOM     21  N   LIG    1        0.346  -0.488  -1.562  0.00  0.00    -1.000 NA
ATOM     22  C   LIG    1       -0.646  -0.550  -2.644  0.00  0.00    +0.310 C 
ATOM     23  C   LIG    1       -0.156   0.327  -3.806  0.00  0.00    +0.020 C 
ATOM     24  C   LIG    1        1.249  -0.119  -4.216  0.00  0.00    +0.160 C 
ATOM     25  C   LIG    1        2.208   0.064  -3.038  0.00  0.00    +0.140 C 
ATOM     26  F   LIG    1        1.687   0.654  -5.298  0.00  0.00    -0.210 F 
ATOM     27  C   LIG    1        1.746  -0.810  -1.868  0.00  0.00    +0.320 C 
BRANCH  25  28
ATOM     28  O   LIG    1        3.527  -0.323  -3.431  0.00  0.00    -0.550 OA
ATOM     29  H   LIG    1        3.884   0.190  -4.169  0.00  0.00    +0.390 HD
ENDBRANCH  25  28
ENDBRANCH  18  21
ENDBRANCH   7  18
TORSDOF 7
