REMARK  Name = ZINCnE000001SjvP.1
REMARK                            x       y       z     vdW  Elec       q    Type
REMARK                         _______ _______ _______ _____ _____    ______ ____
ROOT
ATOM      1  C   LIG    1       -2.385   1.155   0.020  0.00  0.00    +0.340 A 
ATOM      2  N   LIG    1       -2.479  -0.138   0.007  0.00  0.00    -0.560 NA
ATOM      3  C   LIG    1       -3.696  -0.648   0.016  0.00  0.00    +0.240 A 
ATOM      4  C   LIG    1       -4.677   0.257   0.026  0.00  0.00    -0.330 A 
ATOM      5  S   LIG    1       -3.943   1.858   0.031  0.00  0.00    +0.040 S 
ENDROOT
BRANCH   1   8
ATOM      6  O   LIG    1        0.002  -0.004   0.002  0.00  0.00    -0.570 OA
ATOM      7  C   LIG    1       -0.014   1.209   0.009  0.00  0.00    +0.440 C 
ATOM      8  N   LIG    1       -1.191   1.867   0.018  0.00  0.00    -0.690 NA
BRANCH   7   9
ATOM      9  C   LIG    1        1.280   1.980   0.001  0.00  0.00    +0.320 C 
BRANCH   9  10
ATOM     10  N   LIG    1        2.407   1.043  -0.015  0.00  0.00    -0.590 N 
ATOM     11  C   LIG    1        2.961   0.579  -1.267  0.00  0.00    +0.280 C 
ATOM     12  C   LIG    1        4.129  -0.391  -1.046  0.00  0.00    +0.130 C 
ATOM     13  S   LIG    1        4.269  -0.503   0.766  0.00  0.00    -0.200 S 
ATOM     14  C   LIG    1        2.942   0.608   1.122  0.00  0.00    +0.560 C 
ATOM     15  O   LIG    1        2.573   0.925   2.237  0.00  0.00    -0.490 OA
ENDBRANCH   9  10
ENDBRANCH   7   9
ENDBRANCH   1   8
BRANCH   4  16
ATOM     16  C   LIG    1       -6.155  -0.040   0.030  0.00  0.00    +0.180 C 
BRANCH  16  17
ATOM     17  C   LIG    1       -6.641  -0.147   1.453  0.00  0.00    -0.060 A 
ATOM     18  C   LIG    1       -6.732  -1.384   2.061  0.00  0.00    +0.030 A 
ATOM     19  C   LIG    1       -7.173  -1.482   3.368  0.00  0.00    +0.000 A 
ATOM     20  C   LIG    1       -7.535  -0.343   4.062  0.00  0.00    +0.010 A 
ATOM     21  C   LIG    1       -7.450   0.895   3.453  0.00  0.00    +0.020 A 
ATOM     22  C   LIG    1       -7.003   0.994   2.148  0.00  0.00    -0.030 A 
ATOM     23 CL   LIG    1       -6.895   2.548   1.382  0.00  0.00    -0.060 Cl
ENDBRANCH  16  17
ENDBRANCH   4  16
TORSDOF 5
