REMARK  Name = ZINCqH0000002MU5.0
REMARK                            x       y       z     vdW  Elec       q    Type
REMARK                         _______ _______ _______ _____ _____    ______ ____
ROOT
ATOM      1  C   LIG    1        0.283  -2.818   4.955  0.00  0.00    +0.170 C 
ATOM      2  C   LIG    1        0.306  -1.598   5.899  0.00  0.00    +0.050 C 
ATOM      3  C   LIG    1        0.828  -0.458   4.986  0.00  0.00    +0.030 C 
ATOM      4  C   LIG    1        0.186  -0.831   3.626  0.00  0.00    +0.250 C 
ATOM      5  N   LIG    1        0.231  -2.303   3.578  0.00  0.00    -0.600 N 
ATOM      6  C   LIG    1        0.221  -3.054   2.459  0.00  0.00    +0.570 C 
ATOM      7  O   LIG    1        0.156  -4.265   2.540  0.00  0.00    -0.470 OA
ENDROOT
BRANCH   6   8
ATOM      8  C   LIG    1        0.287  -2.404   1.132  0.00  0.00    +0.000 A 
ATOM      9  C   LIG    1        0.712  -3.119  -0.009  0.00  0.00    -0.190 A 
ATOM     10  C   LIG    1        1.138  -4.446  -0.231  0.00  0.00    +0.290 A 
ATOM     11  N   LIG    1        1.420  -4.585  -1.495  0.00  0.00    -0.230 NA
ATOM     12  N   LIG    1        1.199  -3.377  -2.166  0.00  0.00    -0.380 N 
ATOM     13  C   LIG    1        0.758  -2.455  -1.252  0.00  0.00    +0.320 A 
ATOM     14  N   LIG    1        0.401  -1.181  -1.341  0.00  0.00    -0.490 NA
ATOM     15  C   LIG    1        0.007  -0.494  -0.292  0.00  0.00    +0.190 A 
ATOM     16  C   LIG    1       -0.378   0.953  -0.466  0.00  0.00    +0.140 C 
ATOM     17  C   LIG    1       -0.068  -1.067   0.968  0.00  0.00    -0.050 A 
BRANCH  12  18
ATOM     18  C   LIG    1        1.404  -3.138  -3.596  0.00  0.00    +0.270 C 
ATOM     19  C   LIG    1        0.508  -4.080  -4.404  0.00  0.00    +0.050 C 
ATOM     20  C   LIG    1        2.869  -3.398  -3.953  0.00  0.00    +0.050 C 
ENDBRANCH  12  18
ENDBRANCH   6   8
BRANCH   1  21
ATOM     21  C   LIG    1        1.552  -3.649   5.152  0.00  0.00    +0.040 C 
BRANCH  21  23
ATOM     22  C   LIG    1        4.030  -3.684   4.834  0.00  0.00    +0.000 C 
ATOM     23  C   LIG    1        2.775  -2.813   4.768  0.00  0.00    +0.000 C 
ENDBRANCH  21  23
ENDBRANCH   1  21
BRANCH   1  24
ATOM     24  C   LIG    1       -0.953  -3.675   5.237  0.00  0.00    +0.150 C 
BRANCH  24  25
ATOM     25  O   LIG    1       -0.985  -4.777   4.328  0.00  0.00    -0.340 OA
ATOM     26  C   LIG    1       -2.106  -5.645   4.508  0.00  0.00    +0.170 C 
ENDBRANCH  24  25
ENDBRANCH   1  24
TORSDOF 6
