REMARK  Name = ZINCpk00001AZiFO.0
REMARK                            x       y       z     vdW  Elec       q    Type
REMARK                         _______ _______ _______ _____ _____    ______ ____
ROOT
ATOM      1  N   LIG    1        1.264  10.230  -0.113  0.00  0.00    -0.520 NA
ATOM      2  C   LIG    1        0.506   9.818  -1.301  0.00  0.00    +0.190 C 
ATOM      3  C   LIG    1        0.687   8.314  -1.525  0.00  0.00    +0.050 C 
ATOM      4  C   LIG    1        0.210   7.558  -0.287  0.00  0.00    +0.300 C 
ATOM      5  N   LIG    1        0.400   6.113  -0.459  0.00  0.00    -0.740 N 
ATOM      6  H   LIG    1        1.242   5.652  -0.596  0.00  0.00    +0.430 HD
ATOM      7  C   LIG    1       -0.857   5.537  -0.390  0.00  0.00    +0.370 C 
ATOM      8  N   LIG    1       -1.770   6.431  -0.193  0.00  0.00    -0.350 NA
ATOM      9  C   LIG    1        0.959   8.045   0.951  0.00  0.00    +0.040 C 
ATOM     10  O   LIG    1       -1.201   7.726  -0.114  0.00  0.00    -0.190 OA
ATOM     11  C   LIG    1        0.769   9.557   1.095  0.00  0.00    +0.190 C 
ENDROOT
BRANCH   7  12
ATOM     12  C   LIG    1       -1.121   4.085  -0.519  0.00  0.00    +0.160 A 
ATOM     13  C   LIG    1       -2.428   3.610  -0.429  0.00  0.00    +0.030 A 
ATOM     14  C   LIG    1       -2.660   2.251  -0.558  0.00  0.00    +0.080 A 
ATOM     15  C   LIG    1       -1.575   1.411  -0.761  0.00  0.00    -0.010 A 
ATOM     16  C   LIG    1       -0.303   1.951  -0.841  0.00  0.00    +0.280 A 
ATOM     17  N   LIG    1       -0.111   3.248  -0.720  0.00  0.00    -0.470 NA
ENDBRANCH   7  12
BRANCH   1  18
ATOM     18  C   LIG    1        1.236  11.690   0.049  0.00  0.00    +0.210 C 
BRANCH  18  20
ATOM     19  N   LIG    1        1.988  13.677  -1.218  0.00  0.00    -0.620 N 
ATOM     20  C   LIG    1        1.985  12.336  -1.088  0.00  0.00    +0.510 C 
ATOM     21  O   LIG    1        2.586  11.648  -1.887  0.00  0.00    -0.520 OA
ATOM     22  C   LIG    1        1.262  14.508  -0.254  0.00  0.00    +0.270 C 
BRANCH  19  23
ATOM     23  C   LIG    1        2.716  14.305  -2.323  0.00  0.00    +0.270 C 
BRANCH  23  24
ATOM     24  C   LIG    1        1.788  14.446  -3.531  0.00  0.00    +0.000 C 
BRANCH  24  26
ATOM     25  C   LIG    1        1.620  15.243  -5.893  0.00  0.00    +0.010 C 
ATOM     26  C   LIG    1        2.548  15.102  -4.685  0.00  0.00    +0.000 C 
ENDBRANCH  24  26
ENDBRANCH  23  24
ENDBRANCH  19  23
ENDBRANCH  18  20
ENDBRANCH   1  18
TORSDOF 6
