REMARK  Name = ZINCpk00000y6yNI.0
REMARK                            x       y       z     vdW  Elec       q    Type
REMARK                         _______ _______ _______ _____ _____    ______ ____
ROOT
ATOM      1  C   LIG    1       -0.013   1.086   0.008  0.00  0.00    +0.170 C 
ATOM      2  C   LIG    1       -0.198   1.711  -1.387  0.00  0.00    +0.270 C 
ATOM      3  N   LIG    1        1.275   1.708  -1.473  0.00  0.00    -0.660 N 
ATOM      4  C   LIG    1        2.161   1.696  -2.489  0.00  0.00    +0.740 C 
ATOM      5  N   LIG    1        1.725   1.683  -3.764  0.00  0.00    -0.720 N 
ATOM      6  H   LIG    1        0.773   1.681  -3.951  0.00  0.00    +0.400 HD
ATOM      7  O   LIG    1        3.354   1.698  -2.254  0.00  0.00    -0.580 OA
ATOM      8  C   LIG    1        1.388   1.725  -0.002  0.00  0.00    +0.310 C 
ENDROOT
BRANCH   5   9
ATOM      9  C   LIG    1        2.689   1.669  -4.867  0.00  0.00    +0.270 C 
ATOM     10  C   LIG    1        2.830   3.026  -5.580  0.00  0.00    +0.000 C 
ATOM     11  C   LIG    1        1.697   2.570  -6.517  0.00  0.00    +0.180 C 
ATOM     12  C   LIG    1        2.111   1.137  -6.180  0.00  0.00    -0.110 C 
ATOM     13  C   LIG    1        1.094  -0.004  -6.191  0.00  0.00    +0.030 C 
ATOM     14  C   LIG    1        1.661  -0.380  -7.572  0.00  0.00    +0.010 C 
ATOM     15  C   LIG    1        2.967   0.314  -7.143  0.00  0.00    +0.070 C 
BRANCH  11  16
ATOM     16  O   LIG    1        1.908   2.921  -7.886  0.00  0.00    -0.370 OA
ATOM     17  C   LIG    1        1.034   3.944  -8.365  0.00  0.00    +0.200 C 
ENDBRANCH  11  16
ENDBRANCH   5   9
BRANCH   1  18
ATOM     18  O   LIG    1       -0.884   1.626   1.004  0.00  0.00    -0.360 OA
BRANCH  18  19
ATOM     19  C   LIG    1       -1.879   0.709   1.464  0.00  0.00    +0.360 C 
BRANCH  19  23
ATOM     20  C   LIG    1       -4.253   2.469   3.503  0.00  0.00    +0.170 A 
ATOM     21  N   LIG    1       -3.400   2.024   4.377  0.00  0.00    -0.370 NA
ATOM     22  O   LIG    1       -2.521   1.396   3.824  0.00  0.00    +0.090 OA
ATOM     23  C   LIG    1       -2.737   1.380   2.506  0.00  0.00    +0.180 A 
ATOM     24  N   LIG    1       -3.834   2.064   2.290  0.00  0.00    -0.460 NA
BRANCH  20  26
ATOM     25  C   LIG    1       -5.122   4.778   3.752  0.00  0.00    +0.040 C 
ATOM     26  C   LIG    1       -5.481   3.291   3.794  0.00  0.00    +0.160 C 
ENDBRANCH  20  26
ENDBRANCH  19  23
ENDBRANCH  18  19
ENDBRANCH   1  18
TORSDOF 6
