REMARK  Name = ZINCbw0000001NaC.1
REMARK                            x       y       z     vdW  Elec       q    Type
REMARK                         _______ _______ _______ _____ _____    ______ ____
ROOT
ATOM      1  C   LIG    1        1.870   1.826   1.209  0.00  0.00    -0.190 A 
ATOM      2  C   LIG    1        1.220   1.531  -0.001  0.00  0.00    +0.180 A 
ATOM      3  C   LIG    1        1.841   1.829  -1.204  0.00  0.00    +0.010 A 
ATOM      4  C   LIG    1        3.096   2.408  -1.212  0.00  0.00    +0.010 A 
ATOM      5  C   LIG    1        3.745   2.696  -0.020  0.00  0.00    +0.040 A 
ATOM      6 CL   LIG    1        3.866   2.777  -2.724  0.00  0.00    -0.040 Cl
ATOM      7  C   LIG    1        3.145   2.408   1.185  0.00  0.00    -0.020 A 
ATOM      8 BR   LIG    1        4.036   2.803   2.806  0.00  0.00    +0.010 Br
ENDROOT
BRANCH   1  10
ATOM      9  O   LIG    1        1.786   1.777   3.531  0.00  0.00    -0.420 OA
ATOM     10  C   LIG    1        1.221   1.521   2.488  0.00  0.00    +0.490 C 
ENDBRANCH   1  10
BRANCH   2  11
ATOM     11  O   LIG    1       -0.011   0.963   0.007  0.00  0.00    -0.480 OA
ATOM     12  H   LIG    1        0.002  -0.004   0.002  0.00  0.00    +0.410 HD
ENDBRANCH   2  11
TORSDOF 2
