REMARK  Name = ZINCvU00000008Jh.0
REMARK                            x       y       z     vdW  Elec       q    Type
REMARK                         _______ _______ _______ _____ _____    ______ ____
ROOT
ATOM      1  C   LIG    1        0.440  -0.751   1.550  0.00  0.00    +0.080 C 
ATOM      2  C   LIG    1        0.415  -0.205   0.121  0.00  0.00    +0.020 C 
ENDROOT
BRANCH   2   3
ATOM      3  C   LIG    1        0.621   1.288   0.150  0.00  0.00    +0.540 C 
ATOM      4  N   LIG    1        1.869   1.795   0.185  0.00  0.00    -0.660 N 
ATOM      5  H   LIG    1        2.631   1.203   0.277  0.00  0.00    +0.420 HD
ATOM      6  O   LIG    1       -0.337   2.032   0.138  0.00  0.00    -0.500 OA
BRANCH   4   7
ATOM      7  C   LIG    1        2.065   3.175   0.087  0.00  0.00    +0.160 A 
ATOM      8  C   LIG    1        1.216   3.946  -0.694  0.00  0.00    +0.020 A 
ATOM      9  C   LIG    1        1.408   5.311  -0.784  0.00  0.00    +0.030 A 
ATOM     10  C   LIG    1        2.452   5.916  -0.108  0.00  0.00    +0.000 A 
ATOM     11  C   LIG    1        3.308   5.161   0.669  0.00  0.00    +0.040 A 
ATOM     12  C   LIG    1        3.122   3.785   0.773  0.00  0.00    -0.070 A 
BRANCH  12  13
ATOM     13  C   LIG    1        4.038   2.970   1.607  0.00  0.00    -0.050 A 
ATOM     14  C   LIG    1        3.522   2.082   2.549  0.00  0.00    +0.010 A 
ATOM     15  C   LIG    1        4.380   1.321   3.318  0.00  0.00    +0.010 A 
ATOM     16  C   LIG    1        5.749   1.448   3.163  0.00  0.00    +0.010 A 
ATOM     17  C   LIG    1        6.266   2.332   2.233  0.00  0.00    +0.010 A 
ATOM     18  C   LIG    1        5.418   3.094   1.455  0.00  0.00    +0.030 A 
ENDBRANCH  12  13
ENDBRANCH   4   7
ENDBRANCH   2   3
BRANCH   2  19
ATOM     19  S   LIG    1       -1.185  -0.578  -0.639  0.00  0.00    +0.080 S 
BRANCH  19  20
ATOM     20  C   LIG    1       -1.099  -2.338  -0.682  0.00  0.00    +0.150 A 
ATOM     21  N   LIG    1       -0.101  -3.080  -0.260  0.00  0.00    -0.280 NA
ATOM     22  N   LIG    1       -0.370  -4.324  -0.438  0.00  0.00    -0.260 NA
ATOM     23  C   LIG    1       -1.552  -4.452  -0.993  0.00  0.00    +0.230 A 
ATOM     24  N   LIG    1       -2.056  -3.184  -1.167  0.00  0.00    -0.460 N 
ATOM     25  C   LIG    1       -3.349  -2.817  -1.749  0.00  0.00    +0.350 C 
BRANCH  23  26
ATOM     26  C   LIG    1       -2.217  -5.720  -1.362  0.00  0.00    -0.030 A 
ATOM     27  C   LIG    1       -3.274  -5.717  -2.275  0.00  0.00    +0.060 A 
ATOM     28  C   LIG    1       -3.888  -6.903  -2.618  0.00  0.00    -0.010 A 
ATOM     29  C   LIG    1       -3.464  -8.095  -2.053  0.00  0.00    +0.120 A 
ATOM     30  C   LIG    1       -2.419  -8.103  -1.142  0.00  0.00    +0.000 A 
ATOM     31  F   LIG    1       -4.073  -9.253  -2.389  0.00  0.00    -0.130 F 
ATOM     32  C   LIG    1       -1.795  -6.923  -0.795  0.00  0.00    +0.110 A 
ENDBRANCH  23  26
ENDBRANCH  19  20
ENDBRANCH   2  19
TORSDOF 6
