REMARK  Name = ZINCqH0000004Ghu.0
REMARK                            x       y       z     vdW  Elec       q    Type
REMARK                         _______ _______ _______ _____ _____    ______ ____
ROOT
ATOM      1  C   LIG    1       -0.018   1.503   0.010  0.00  0.00    +0.340 C 
ENDROOT
BRANCH   1   2
ATOM      2  C   LIG    1       -0.747   2.002  -1.211  0.00  0.00    -0.060 A 
ATOM      3  C   LIG    1       -0.034   2.444  -2.309  0.00  0.00    +0.020 A 
ATOM      4  C   LIG    1       -0.701   2.903  -3.429  0.00  0.00    +0.050 A 
ATOM      5  C   LIG    1       -2.082   2.919  -3.453  0.00  0.00    -0.010 A 
ATOM      6  C   LIG    1       -2.799   2.476  -2.354  0.00  0.00    +0.100 A 
ATOM      7  F   LIG    1       -4.149   2.491  -2.376  0.00  0.00    -0.140 F 
ATOM      8  C   LIG    1       -2.129   2.012  -1.234  0.00  0.00    -0.010 A 
ENDBRANCH   1   2
BRANCH   1  12
ATOM      9  C   LIG    1        0.040  -2.768  -0.012  0.00  0.00    -0.070 A 
ATOM     10  C   LIG    1        1.151  -2.060  -0.429  0.00  0.00    +0.020 A 
ATOM     11  C   LIG    1        1.132  -0.678  -0.422  0.00  0.00    +0.030 A 
ATOM     12  C   LIG    1        0.002  -0.004   0.002  0.00  0.00    -0.100 A 
ATOM     13  C   LIG    1       -1.107  -0.713   0.424  0.00  0.00    +0.010 A 
ATOM     14  C   LIG    1       -1.090  -2.095   0.412  0.00  0.00    +0.010 A 
BRANCH   9  16
ATOM     15  C   LIG    1        0.574  -4.785   1.327  0.00  0.00    +0.030 C 
ATOM     16  C   LIG    1        0.060  -4.275  -0.020  0.00  0.00    +0.050 C 
ENDBRANCH   9  16
ENDBRANCH   1  12
BRANCH   1  17
ATOM     17  N   LIG    1       -0.704   1.975   1.216  0.00  0.00    -0.720 N 
ATOM     18  H   LIG    1       -1.355   1.408   1.657  0.00  0.00    +0.400 HD
ATOM     19  C   LIG    1       -0.430   3.198   1.711  0.00  0.00    +0.500 C 
ATOM     20  O   LIG    1        0.384   3.908   1.159  0.00  0.00    -0.510 OA
BRANCH  19  21
ATOM     21  C   LIG    1       -1.135   3.684   2.951  0.00  0.00    +0.340 C 
BRANCH  21  22
ATOM     22  N   LIG    1       -0.667   5.032   3.283  0.00  0.00    -0.450 N 
ATOM     23  C   LIG    1        0.327   5.351   4.169  0.00  0.00    +0.120 A 
ATOM     24  C   LIG    1        0.435   6.693   4.166  0.00  0.00    +0.150 A 
ATOM     25  N   LIG    1       -0.474   7.181   3.309  0.00  0.00    -0.490 NA
ATOM     26  C   LIG    1       -1.138   6.192   2.776  0.00  0.00    +0.220 A 
ATOM     27  C   LIG    1       -2.246   6.322   1.763  0.00  0.00    +0.170 C 
ENDBRANCH  21  22
ENDBRANCH  19  21
ENDBRANCH   1  17
TORSDOF 6
