REMARK  Name = ZINCqH0000002pLj.2
REMARK                            x       y       z     vdW  Elec       q    Type
REMARK                         _______ _______ _______ _____ _____    ______ ____
ROOT
ATOM      1  C   LIG    1       -2.918   4.682  -0.943  0.00  0.00    +0.320 A 
ATOM      2  C   LIG    1       -4.297   4.769  -0.818  0.00  0.00    -0.120 A 
ATOM      3  C   LIG    1       -4.615   4.264   0.524  0.00  0.00    -0.100 A 
ATOM      4  C   LIG    1       -3.449   3.914   1.091  0.00  0.00    +0.040 A 
ATOM      5  C   LIG    1       -3.291   3.337   2.474  0.00  0.00    +0.150 C 
ATOM      6  C   LIG    1       -5.985   4.153   1.142  0.00  0.00    +0.120 C 
ATOM      7  N   LIG    1       -2.425   4.168   0.216  0.00  0.00    -0.390 N 
ENDROOT
BRANCH   7   8
ATOM      8  C   LIG    1       -1.068   3.929   0.476  0.00  0.00    +0.100 A 
ATOM      9  C   LIG    1       -0.616   2.630   0.669  0.00  0.00    +0.080 A 
ATOM     10  C   LIG    1        0.720   2.396   0.930  0.00  0.00    +0.010 A 
ATOM     11  C   LIG    1        1.611   3.455   0.990  0.00  0.00    +0.110 A 
ATOM     12  C   LIG    1        1.163   4.751   0.792  0.00  0.00    +0.010 A 
ATOM     13  F   LIG    1        2.918   3.224   1.240  0.00  0.00    -0.130 F 
ATOM     14  C   LIG    1       -0.173   4.989   0.536  0.00  0.00    +0.060 A 
ENDBRANCH   7   8
BRANCH   1  16
ATOM     15  C   LIG    1       -1.404   4.142  -2.683  0.00  0.00    +0.520 C 
ATOM     16  N   LIG    1       -2.174   5.052  -2.054  0.00  0.00    -0.660 N 
ATOM     17  H   LIG    1       -2.207   5.966  -2.377  0.00  0.00    +0.420 HD
ATOM     18  O   LIG    1       -1.396   2.990  -2.305  0.00  0.00    -0.480 OA
BRANCH  15  19
ATOM     19  C   LIG    1       -0.553   4.557  -3.855  0.00  0.00    +0.220 C 
BRANCH  19  20
ATOM     20  N   LIG    1        0.186   3.392  -4.361  0.00  0.00    -0.520 NA
ATOM     21  C   LIG    1        1.162   2.917  -3.371  0.00  0.00    +0.190 C 
BRANCH  20  22
ATOM     22  C   LIG    1        0.840   3.698  -5.640  0.00  0.00    +0.180 C 
BRANCH  22  23
ATOM     23  C   LIG    1        1.384   2.408  -6.256  0.00  0.00    +0.010 C 
BRANCH  23  25
ATOM     24  C   LIG    1        2.610   1.436  -8.204  0.00  0.00    +0.010 C 
ATOM     25  C   LIG    1        2.065   2.726  -7.588  0.00  0.00    +0.000 C 
ENDBRANCH  23  25
ENDBRANCH  22  23
ENDBRANCH  20  22
ENDBRANCH  19  20
ENDBRANCH  15  19
ENDBRANCH   1  16
BRANCH   2  26
ATOM     26  C   LIG    1       -5.222   5.254  -1.797  0.00  0.00    +0.290 C 
ATOM     27  N   LIG    1       -5.956   5.638  -2.575  0.00  0.00    -0.430 NA
ENDBRANCH   2  26
TORSDOF 8
