REMARK  Name = ZINCrD000000BxBE.0
REMARK                            x       y       z     vdW  Elec       q    Type
REMARK                         _______ _______ _______ _____ _____    ______ ____
ROOT
ATOM      1  C   LIG    1        1.222  -0.685  -0.013  0.00  0.00    -0.130 A 
ATOM      2  C   LIG    1        0.002  -0.004   0.002  0.00  0.00    +0.070 A 
ATOM      3  C   LIG    1       -0.017   1.374   0.010  0.00  0.00    -0.010 A 
ATOM      4  C   LIG    1        1.170   2.091   0.002  0.00  0.00    +0.060 A 
ATOM      5  C   LIG    1        2.383   1.434  -0.013  0.00  0.00    -0.020 A 
ATOM      6  C   LIG    1        2.423   0.045  -0.021  0.00  0.00    -0.040 A 
ENDROOT
BRANCH   1   8
ATOM      7  O   LIG    1        2.313  -2.747  -0.035  0.00  0.00    -0.500 OA
ATOM      8  C   LIG    1        1.249  -2.158  -0.022  0.00  0.00    +0.560 C 
ATOM      9  N   LIG    1        0.095  -2.854  -0.015  0.00  0.00    -0.720 N 
ATOM     10  H   LIG    1       -0.754  -2.384  -0.004  0.00  0.00    +0.400 HD
BRANCH   9  11
ATOM     11  C   LIG    1        0.122  -4.318  -0.024  0.00  0.00    +0.390 C 
BRANCH  11  12
ATOM     12  C   LIG    1       -1.289  -4.847  -0.013  0.00  0.00    +0.300 A 
ATOM     13  N   LIG    1       -1.877  -5.083   1.142  0.00  0.00    -0.500 NA
ATOM     14  C   LIG    1       -3.118  -5.543   1.190  0.00  0.00    +0.320 A 
ATOM     15  C   LIG    1       -3.793  -5.785   0.004  0.00  0.00    -0.070 A 
ATOM     16  C   LIG    1       -3.140  -5.529  -1.191  0.00  0.00    +0.320 A 
ATOM     17  N   LIG    1       -1.901  -5.065  -1.161  0.00  0.00    -0.500 NA
ENDBRANCH  11  12
ENDBRANCH   9  11
ENDBRANCH   1   8
BRANCH   6  18
ATOM     18  S   LIG    1        3.970  -0.797  -0.041  0.00  0.00    +0.030 S 
BRANCH  18  19
ATOM     19  C   LIG    1        5.173   0.560  -0.045  0.00  0.00    +0.120 C 
BRANCH  19  20
ATOM     20  C   LIG    1        6.570  -0.006  -0.061  0.00  0.00    +0.080 A 
ATOM     21  C   LIG    1        7.313  -0.303   1.027  0.00  0.00    +0.110 A 
ATOM     22  N   LIG    1        8.509  -0.792   0.578  0.00  0.00    -0.360 N 
ATOM     23  C   LIG    1        9.623  -1.244   1.225  0.00  0.00    +0.220 A 
ATOM     24  C   LIG    1       10.695  -1.676   0.528  0.00  0.00    +0.010 A 
ATOM     25  C   LIG    1       10.677  -1.666  -0.877  0.00  0.00    +0.040 A 
ATOM     26  C   LIG    1        9.574  -1.219  -1.534  0.00  0.00    +0.070 A 
ATOM     27  C   LIG    1        8.463  -0.771  -0.792  0.00  0.00    +0.230 A 
ATOM     28  N   LIG    1        7.281  -0.292  -1.155  0.00  0.00    -0.480 NA
ENDBRANCH  19  20
ENDBRANCH  18  19
ENDBRANCH   6  18
TORSDOF 6
