REMARK  Name = ZINCqH0000004oHV.0
REMARK                            x       y       z     vdW  Elec       q    Type
REMARK                         _______ _______ _______ _____ _____    ______ ____
ROOT
ATOM      1  C   LIG    1       -2.155   2.979   2.543  0.00  0.00    +0.300 C 
ENDROOT
BRANCH   1   2
ATOM      2  N   LIG    1       -1.431   3.083   1.273  0.00  0.00    -0.570 N 
ATOM      3  C   LIG    1       -0.174   2.357   1.143  0.00  0.00    +0.270 C 
ATOM      4  C   LIG    1        0.194   2.184  -0.332  0.00  0.00    +0.040 C 
ATOM      5  C   LIG    1        0.112   3.550  -1.022  0.00  0.00    +0.020 C 
ATOM      6  C   LIG    1       -1.354   3.989  -1.054  0.00  0.00    +0.070 C 
ATOM      7  C   LIG    1       -1.962   3.835   0.310  0.00  0.00    +0.520 C 
ATOM      8  O   LIG    1       -2.994   4.427   0.549  0.00  0.00    -0.560 OA
ENDBRANCH   1   2
BRANCH   1   9
ATOM      9  C   LIG    1       -1.244   3.380   3.674  0.00  0.00    -0.100 A 
ATOM     10  C   LIG    1       -0.068   2.687   3.893  0.00  0.00    +0.020 A 
ATOM     11  C   LIG    1        0.770   3.057   4.929  0.00  0.00    +0.010 A 
ATOM     12  C   LIG    1        0.428   4.114   5.751  0.00  0.00    +0.020 A 
ATOM     13  C   LIG    1       -0.751   4.804   5.535  0.00  0.00    +0.010 A 
ATOM     14  C   LIG    1       -1.586   4.437   4.497  0.00  0.00    +0.030 A 
ENDBRANCH   1   9
BRANCH   1  17
ATOM     15  N   LIG    1       -3.531   1.274   3.691  0.00  0.00    -0.720 N 
ATOM     16  H   LIG    1       -3.897   1.985   4.240  0.00  0.00    +0.400 HD
ATOM     17  C   LIG    1       -2.613   1.558   2.745  0.00  0.00    +0.520 C 
ATOM     18  O   LIG    1       -2.156   0.670   2.058  0.00  0.00    -0.510 OA
BRANCH  15  19
ATOM     19  C   LIG    1       -3.976  -0.107   3.888  0.00  0.00    +0.350 C 
BRANCH  19  20
ATOM     20  C   LIG    1       -5.355  -0.108   4.497  0.00  0.00    +0.040 A 
ATOM     21  N   LIG    1       -6.332  -0.857   4.112  0.00  0.00    -0.460 NA
ATOM     22  C   LIG    1       -7.475  -0.733   4.756  0.00  0.00    +0.070 A 
ATOM     23  C   LIG    1       -7.461   0.172   5.739  0.00  0.00    -0.070 A 
ATOM     24  C   LIG    1       -8.697  -1.544   4.411  0.00  0.00    +0.160 C 
ATOM     25  S   LIG    1       -5.847   0.877   5.805  0.00  0.00    +0.130 S 
ENDBRANCH  19  20
BRANCH  19  27
ATOM     26  C   LIG    1       -1.634  -0.936   4.151  0.00  0.00    +0.030 C 
ATOM     27  C   LIG    1       -3.004  -0.828   4.824  0.00  0.00    +0.020 C 
ENDBRANCH  19  27
ENDBRANCH  15  19
ENDBRANCH   1  17
TORSDOF 6
