REMARK  Name = ZINCpk000005SqD8.0
REMARK                            x       y       z     vdW  Elec       q    Type
REMARK                         _______ _______ _______ _____ _____    ______ ____
ROOT
ATOM      1  N   LIG    1        1.893   3.648   1.414  0.00  0.00    -0.530 NA
ATOM      2  C   LIG    1        0.604   3.679   2.119  0.00  0.00    +0.160 C 
ATOM      3  C   LIG    1        0.842   4.005   3.598  0.00  0.00    +0.280 C 
ATOM      4  N   LIG    1        1.628   5.246   3.682  0.00  0.00    -0.610 N 
ATOM      5  C   LIG    1        2.865   5.341   2.892  0.00  0.00    +0.300 C 
ATOM      6  C   LIG    1        1.224   6.268   4.462  0.00  0.00    +0.530 C 
ATOM      7  O   LIG    1        1.932   7.243   4.598  0.00  0.00    -0.530 OA
ATOM      8  C   LIG    1        2.547   4.963   1.442  0.00  0.00    +0.180 C 
ENDROOT
BRANCH   6   9
ATOM      9  C   LIG    1       -0.107   6.200   5.165  0.00  0.00    +0.030 C 
ATOM     10  C   LIG    1        0.071   5.657   6.599  0.00  0.00    +0.060 C 
ATOM     11  C   LIG    1        0.238   6.951   7.423  0.00  0.00    +0.090 C 
ATOM     12  C   LIG    1       -0.485   8.021   6.633  0.00  0.00    -0.060 A 
ATOM     13  C   LIG    1       -0.934   9.273   7.019  0.00  0.00    +0.010 A 
ATOM     14  C   LIG    1       -1.579  10.093   6.114  0.00  0.00    +0.030 A 
ATOM     15  C   LIG    1       -1.779   9.666   4.816  0.00  0.00    -0.020 A 
ATOM     16  C   LIG    1       -1.332   8.413   4.425  0.00  0.00    +0.130 A 
ATOM     17  C   LIG    1       -0.684   7.589   5.333  0.00  0.00    -0.110 A 
BRANCH  16  18
ATOM     18  O   LIG    1       -1.528   7.992   3.147  0.00  0.00    -0.500 OA
ATOM     19  H   LIG    1       -0.776   8.152   2.561  0.00  0.00    +0.390 HD
ENDBRANCH  16  18
ENDBRANCH   6   9
BRANCH   1  20
ATOM     20  C   LIG    1        1.726   3.172   0.035  0.00  0.00    +0.300 C 
BRANCH  20  26
ATOM     21  C   LIG    1       -1.196   2.144   0.082  0.00  0.00    +0.320 C 
ATOM     22  N   LIG    1        0.003   1.302   0.074  0.00  0.00    -0.460 N 
ATOM     23  C   LIG    1        0.035  -0.066   0.081  0.00  0.00    +0.130 A 
ATOM     24  C   LIG    1        1.333  -0.426   0.063  0.00  0.00    +0.140 A 
ATOM     25  N   LIG    1        2.073   0.693   0.044  0.00  0.00    -0.470 NA
ATOM     26  C   LIG    1        1.283   1.732   0.050  0.00  0.00    +0.210 A 
ENDBRANCH  20  26
ENDBRANCH   1  20
TORSDOF 4
