REMARK  Name = ZINCkj00000dDs46.0
REMARK                            x       y       z     vdW  Elec       q    Type
REMARK                         _______ _______ _______ _____ _____    ______ ____
ROOT
ATOM      1  N   LIG    1        0.180   2.958  -2.116  0.00  0.00    -0.460 N 
ATOM      2  H   LIG    1        0.899   2.359  -2.494  0.00  0.00    +0.430 HD
ATOM      3  H   LIG    1        0.608   3.716  -1.606  0.00  0.00    +0.430 HD
ENDROOT
BRANCH   1   4
ATOM      4  C   LIG    1       -0.678   2.182  -1.210  0.00  0.00    -0.100 C 
ATOM      5  C   LIG    1       -2.003   1.615  -1.723  0.00  0.00    +0.150 C 
ATOM      6  C   LIG    1       -0.019   1.524   0.010  0.00  0.00    +0.110 C 
ATOM      7  C   LIG    1        1.509   1.493  -0.004  0.00  0.00    +0.050 C 
ATOM      8  C   LIG    1        1.401   0.098   0.636  0.00  0.00    +0.060 C 
ATOM      9  C   LIG    1        0.002  -0.004   0.002  0.00  0.00    +0.040 C 
ATOM     10  O   LIG    1       -0.618   2.131   1.163  0.00  0.00    -0.320 OA
ATOM     11  C   LIG    1       -2.015   2.289   0.825  0.00  0.00    +0.270 C 
ATOM     12  C   LIG    1       -2.022   2.716  -0.660  0.00  0.00    +0.000 C 
ENDBRANCH   1   4
BRANCH   1  13
ATOM     13  C   LIG    1       -0.631   3.502  -3.213  0.00  0.00    +0.350 C 
BRANCH  13  16
ATOM     14  N   LIG    1        1.344   5.948  -5.061  0.00  0.00    -0.350 N 
ATOM     15  C   LIG    1        0.517   5.621  -4.046  0.00  0.00    +0.300 A 
ATOM     16  C   LIG    1        0.249   4.298  -4.141  0.00  0.00    -0.320 A 
ATOM     17  C   LIG    1        0.929   3.801  -5.258  0.00  0.00    +0.260 A 
ATOM     18  N   LIG    1        1.585   4.789  -5.810  0.00  0.00    -0.270 NA
BRANCH  14  19
ATOM     19  C   LIG    1        1.889   7.280  -5.334  0.00  0.00    +0.360 C 
BRANCH  19  20
ATOM     20  C   LIG    1        3.414   7.202  -5.410  0.00  0.00    +0.170 C 
BRANCH  20  22
ATOM     21  C   LIG    1        5.371   8.539  -5.768  0.00  0.00    +0.230 C 
ATOM     22  O   LIG    1        3.946   8.501  -5.676  0.00  0.00    -0.390 OA
ENDBRANCH  20  22
ENDBRANCH  19  20
ENDBRANCH  14  19
ENDBRANCH  13  16
ENDBRANCH   1  13
TORSDOF 6
