REMARK  Name = ZINCrH000004oc7X.0
REMARK                            x       y       z     vdW  Elec       q    Type
REMARK                         _______ _______ _______ _____ _____    ______ ____
ROOT
ATOM      1  C   LIG    1       -5.846   1.943   2.546  0.00  0.00    +0.600 C 
ATOM      2  N   LIG    1       -6.573   1.979   3.681  0.00  0.00    -0.660 N 
ATOM      3  H   LIG    1       -7.020   1.178   3.997  0.00  0.00    +0.420 HD
ATOM      4  O   LIG    1       -5.173   2.904   2.224  0.00  0.00    -0.530 OA
ENDROOT
BRANCH   2   5
ATOM      5  C   LIG    1       -6.684   3.173   4.403  0.00  0.00    +0.130 A 
ATOM      6  C   LIG    1       -5.594   4.029   4.501  0.00  0.00    +0.100 A 
ATOM      7  C   LIG    1       -5.698   5.212   5.207  0.00  0.00    +0.010 A 
ATOM      8  C   LIG    1       -6.885   5.546   5.833  0.00  0.00    +0.150 A 
ATOM      9  C   LIG    1       -7.986   4.688   5.745  0.00  0.00    -0.160 A 
ATOM     10  F   LIG    1       -6.982   6.700   6.528  0.00  0.00    -0.110 F 
ATOM     11  C   LIG    1       -7.879   3.497   5.025  0.00  0.00    +0.060 A 
BRANCH   9  12
ATOM     12  C   LIG    1       -9.256   5.041   6.410  0.00  0.00    +0.560 C 
ATOM     13  O   LIG    1       -9.347   6.079   7.036  0.00  0.00    -0.520 OA
ATOM     14  N   LIG    1      -10.316   4.212   6.324  0.00  0.00    -0.850 N 
ATOM     15  H   LIG    1      -11.150   4.444   6.761  0.00  0.00    +0.410 HD
ATOM     16  H   LIG    1      -10.243   3.383   5.824  0.00  0.00    +0.400 HD
ENDBRANCH   9  12
ENDBRANCH   2   5
BRANCH   1  21
ATOM     17  N   LIG    1       -5.095   0.526   0.582  0.00  0.00    -0.400 N 
ATOM     18  C   LIG    1       -5.397  -0.696   0.080  0.00  0.00    +0.200 A 
ATOM     19  C   LIG    1       -6.354  -1.263   0.853  0.00  0.00    -0.060 A 
ATOM     20  C   LIG    1       -6.665  -0.365   1.878  0.00  0.00    +0.010 A 
ATOM     21  C   LIG    1       -5.867   0.745   1.700  0.00  0.00    -0.060 A 
BRANCH  17  23
ATOM     22  C   LIG    1       -2.708   0.850   0.160  0.00  0.00    +0.040 C 
ATOM     23  C   LIG    1       -4.107   1.456   0.030  0.00  0.00    +0.250 C 
BRANCH  23  24
ATOM     24  C   LIG    1       -4.416   1.712  -1.446  0.00  0.00    +0.070 C 
BRANCH  24  25
ATOM     25  C   LIG    1       -3.476   2.761  -1.982  0.00  0.00    -0.080 A 
ATOM     26  C   LIG    1       -2.267   2.386  -2.539  0.00  0.00    +0.010 A 
ATOM     27  C   LIG    1       -1.407   3.348  -3.035  0.00  0.00    +0.000 A 
ATOM     28  C   LIG    1       -1.753   4.685  -2.970  0.00  0.00    +0.000 A 
ATOM     29  C   LIG    1       -2.959   5.060  -2.408  0.00  0.00    +0.000 A 
ATOM     30  C   LIG    1       -3.819   4.098  -1.911  0.00  0.00    +0.010 A 
ENDBRANCH  24  25
ENDBRANCH  23  24
ENDBRANCH  17  23
ENDBRANCH   1  21
TORSDOF 6
