REMARK  Name = ZINCkj000005j5mN.1
REMARK                            x       y       z     vdW  Elec       q    Type
REMARK                         _______ _______ _______ _____ _____    ______ ____
ROOT
ATOM      1  C   UNK A  0        0.355   6.536  -3.340  0.00  0.00    +0.270 C 
ATOM      2  C   UNK A  0       -0.628   7.497  -2.668  0.00  0.00    +0.030 C 
ENDROOT
BRANCH   1   3
ATOM      3  C   UNK A  0        0.141   6.564  -4.854  0.00  0.00    -0.020 C 
ATOM      4  C   UNK A  0       -1.327   6.262  -5.170  0.00  0.00    +0.040 C 
ATOM      5  C   UNK A  0       -1.547   6.369  -6.681  0.00  0.00    +0.060 C 
ATOM      6  C   UNK A  0       -1.127   7.763  -7.154  0.00  0.00    +0.250 C 
ATOM      7  N   UNK A  0        0.292   7.981  -6.848  0.00  0.00    -0.370 N 
ATOM      8  H   UNK A  0        0.578   8.879  -7.209  0.00  0.00    +0.420 HD
ATOM      9  C   UNK A  0        0.498   7.950  -5.395  0.00  0.00    +0.270 C 
BRANCH   7  10
ATOM     10  C   UNK A  0        1.095   6.924  -7.478  0.00  0.00    +0.140 C 
ATOM     11  C   UNK A  0        2.572   7.306  -7.673  0.00  0.00    +0.050 C 
ATOM     12  C   UNK A  0        2.489   6.603  -9.040  0.00  0.00    +0.070 C 
ATOM     13  C   UNK A  0        0.979   6.893  -9.011  0.00  0.00    +0.050 C 
ENDBRANCH   7  10
ENDBRANCH   1   3
BRANCH   1  17
ATOM     14  N   ALA A  1        0.507   3.524  -1.236  0.00  0.00    -0.730 N 
ATOM     15  H   ALA A  1       -0.066   2.916  -1.728  0.00  0.00    +0.400 HD
ATOM     16  C   UNK A  0        0.715   4.774  -1.696  0.00  0.00    +0.710 C 
ATOM     17  N   UNK A  0        0.128   5.178  -2.840  0.00  0.00    -0.750 N 
ATOM     18  H   UNK A  0       -0.445   4.569  -3.332  0.00  0.00    +0.400 HD
ATOM     19  O   UNK A  0        1.433   5.537  -1.079  0.00  0.00    -0.580 OA
BRANCH  14  21
ATOM     20  CB  ALA A  1        0.285   3.510   1.200  0.00  0.00    +0.040 C 
ATOM     21  CA  ALA A  1        1.145   3.085   0.008  0.00  0.00    +0.260 C 
BRANCH  21  22
ATOM     22  C   ALA A  1        1.286   1.562  -0.002  0.00  0.00    +0.190 C 
BRANCH  22  23
ATOM     23  O   ALA A  1       -0.011   0.963   0.007  0.00  0.00    -0.570 OA
ATOM     24  H   ALA A  1        0.002  -0.004   0.002  0.00  0.00    +0.390 HD
ENDBRANCH  22  23
ENDBRANCH  21  22
ENDBRANCH  14  21
ENDBRANCH   1  17
TORSDOF 6
