REMARK  Name = ZINCkj000005j5mN.0
REMARK                            x       y       z     vdW  Elec       q    Type
REMARK                         _______ _______ _______ _____ _____    ______ ____
ROOT
ATOM      1  C   UNK A  0        2.827   2.084   4.558  0.00  0.00    +0.270 C 
ATOM      2  C   UNK A  0        4.097   1.669   3.811  0.00  0.00    +0.030 C 
ENDROOT
BRANCH   1   3
ATOM      3  C   UNK A  0        2.991   1.782   6.049  0.00  0.00    -0.020 C 
ATOM      4  C   UNK A  0        3.356   0.306   6.234  0.00  0.00    +0.040 C 
ATOM      5  C   UNK A  0        3.595   0.032   7.722  0.00  0.00    +0.060 C 
ATOM      6  C   UNK A  0        4.688   0.970   8.239  0.00  0.00    +0.250 C 
ATOM      7  N   UNK A  0        4.268   2.365   8.058  0.00  0.00    -0.370 N 
ATOM      8  H   UNK A  0        3.389   2.513   8.531  0.00  0.00    +0.420 HD
ATOM      9  C   UNK A  0        4.107   2.655   6.628  0.00  0.00    +0.260 C 
BRANCH   7  10
ATOM     10  C   UNK A  0        5.285   3.259   8.626  0.00  0.00    +0.150 C 
ATOM     11  C   UNK A  0        5.188   3.412  10.153  0.00  0.00    +0.050 C 
ATOM     12  C   UNK A  0        5.504   4.904   9.943  0.00  0.00    +0.070 C 
ATOM     13  C   UNK A  0        4.919   4.749   8.529  0.00  0.00    +0.050 C 
ENDBRANCH   7  10
ENDBRANCH   1   3
BRANCH   1  17
ATOM     14  N   ALA A  1       -0.020   1.094   2.454  0.00  0.00    -0.730 N 
ATOM     15  H   ALA A  1       -0.308   0.277   2.890  0.00  0.00    +0.400 HD
ATOM     16  C   UNK A  0        1.032   1.782   2.939  0.00  0.00    +0.710 C 
ATOM     17  N   UNK A  0        1.684   1.336   4.031  0.00  0.00    -0.750 N 
ATOM     18  H   UNK A  0        1.396   0.519   4.467  0.00  0.00    +0.400 HD
ATOM     19  O   UNK A  0        1.393   2.806   2.392  0.00  0.00    -0.580 OA
BRANCH  14  21
ATOM     20  CB  ALA A  1       -0.013   1.086   0.008  0.00  0.00    +0.040 C 
ATOM     21  CA  ALA A  1       -0.729   1.579   1.267  0.00  0.00    +0.260 C 
BRANCH  21  22
ATOM     22  C   ALA A  1       -2.164   1.050   1.278  0.00  0.00    +0.190 C 
BRANCH  22  23
ATOM     23  O   ALA A  1       -2.148  -0.374   1.152  0.00  0.00    -0.570 OA
ATOM     24  H   ALA A  1       -3.026  -0.779   1.152  0.00  0.00    +0.390 HD
ENDBRANCH  22  23
ENDBRANCH  21  22
ENDBRANCH  14  21
ENDBRANCH   1  17
TORSDOF 6
