REMARK  Name = ZINCrD00000l59hb.0
REMARK                            x       y       z     vdW  Elec       q    Type
REMARK                         _______ _______ _______ _____ _____    ______ ____
ROOT
ATOM      1  O   LIG    1        5.197   6.275  -0.999  0.00  0.00    -0.530 OA
ATOM      2  C   LIG    1        5.063   5.570  -0.018  0.00  0.00    +0.570 C 
ATOM      3  N   LIG    1        4.312   4.452  -0.089  0.00  0.00    -0.610 N 
ATOM      4  C   LIG    1        4.239   3.526   1.049  0.00  0.00    +0.290 C 
ATOM      5  C   LIG    1        4.599   2.119   0.563  0.00  0.00    +0.040 C 
ATOM      6  C   LIG    1        3.695   1.742  -0.613  0.00  0.00    +0.130 C 
ATOM      7  C   LIG    1        3.920   2.723  -1.766  0.00  0.00    +0.040 C 
ATOM      8  C   LIG    1        3.552   4.138  -1.307  0.00  0.00    +0.300 C 
ENDROOT
BRANCH   2   9
ATOM      9  C   LIG    1        5.721   5.937   1.251  0.00  0.00    -0.150 A 
ATOM     10  C   LIG    1        5.084   5.683   2.469  0.00  0.00    +0.050 A 
ATOM     11  C   LIG    1        5.701   6.020   3.651  0.00  0.00    +0.000 A 
ATOM     12  C   LIG    1        6.958   6.626   3.635  0.00  0.00    +0.040 A 
ATOM     13  C   LIG    1        7.593   6.886   2.419  0.00  0.00    +0.000 A 
ATOM     14  C   LIG    1        6.980   6.544   1.236  0.00  0.00    +0.080 A 
BRANCH  12  15
ATOM     15  C   LIG    1        7.620   6.994   4.909  0.00  0.00    -0.210 A 
ATOM     16  C   LIG    1        7.116   6.805   6.165  0.00  0.00    +0.260 A 
ATOM     17  N   LIG    1        8.025   7.271   7.043  0.00  0.00    -0.470 N 
ATOM     18  H   LIG    1        7.937   7.265   8.009  0.00  0.00    +0.440 HD
ATOM     19  N   LIG    1        9.117   7.770   6.321  0.00  0.00    -0.290 NA
ATOM     20  C   LIG    1        8.881   7.608   5.047  0.00  0.00    +0.260 A 
ENDBRANCH  12  15
ENDBRANCH   2   9
BRANCH   6  21
ATOM     21  C   LIG    1        4.024   0.345  -1.072  0.00  0.00    +0.190 A 
ATOM     22  N   LIG    1        3.206  -0.680  -1.100  0.00  0.00    -0.480 NA
ATOM     23  C   LIG    1        3.930  -1.708  -1.579  0.00  0.00    +0.200 A 
ATOM     24  N   LIG    1        5.129  -1.263  -1.813  0.00  0.00    -0.380 NA
ATOM     25  O   LIG    1        5.203  -0.086  -1.529  0.00  0.00    +0.080 OA
BRANCH  23  26
ATOM     26  C   LIG    1        3.442  -3.116  -1.802  0.00  0.00    +0.060 C 
ATOM     27  C   LIG    1        4.484  -4.176  -2.164  0.00  0.00    +0.050 C 
ATOM     28  C   LIG    1        3.507  -3.669  -3.227  0.00  0.00    +0.050 C 
ENDBRANCH  23  26
ENDBRANCH   6  21
TORSDOF 4
