REMARK  Name = ZINCvU0000000Hef.0
REMARK                            x       y       z     vdW  Elec       q    Type
REMARK                         _______ _______ _______ _____ _____    ______ ____
ROOT
ATOM      1  C   LIG    1       -3.637  -6.846   0.252  0.00  0.00    +0.150 A 
ATOM      2  N   LIG    1       -2.446  -7.386   0.135  0.00  0.00    -0.290 NA
ATOM      3  N   LIG    1       -2.557  -8.631  -0.163  0.00  0.00    -0.250 NA
ATOM      4  C   LIG    1       -3.815  -8.958  -0.253  0.00  0.00    +0.180 A 
ATOM      5  N   LIG    1       -4.548  -7.835   0.014  0.00  0.00    -0.420 N 
ENDROOT
BRANCH   5   6
ATOM      6  C   LIG    1       -6.008  -7.715   0.036  0.00  0.00    +0.190 C 
ATOM      7  C   LIG    1       -6.604  -6.308  -0.036  0.00  0.00    +0.070 C 
ATOM      8  C   LIG    1       -6.647  -7.091   1.278  0.00  0.00    +0.060 C 
ENDBRANCH   5   6
BRANCH   1   9
ATOM      9  S   LIG    1       -3.992  -5.167   0.649  0.00  0.00    +0.080 S 
BRANCH   9  10
ATOM     10  C   LIG    1       -2.310  -4.521   0.818  0.00  0.00    +0.070 C 
BRANCH  10  12
ATOM     11  O   LIG    1       -3.439  -2.503   1.288  0.00  0.00    -0.440 OA
ATOM     12  C   LIG    1       -2.367  -3.056   1.167  0.00  0.00    +0.420 C 
BRANCH  12  13
ATOM     13  C   LIG    1       -1.122  -2.297   1.359  0.00  0.00    -0.170 A 
ATOM     14  C   LIG    1       -1.180  -0.948   1.679  0.00  0.00    +0.120 A 
ATOM     15  C   LIG    1        0.012  -0.231   1.861  0.00  0.00    -0.070 A 
ATOM     16  C   LIG    1       -0.005   1.137   2.188  0.00  0.00    +0.040 A 
ATOM     17  C   LIG    1        1.169   1.804   2.358  0.00  0.00    +0.010 A 
ATOM     18  C   LIG    1        2.391   1.151   2.214  0.00  0.00    +0.030 A 
ATOM     19  C   LIG    1        2.447  -0.173   1.899  0.00  0.00    +0.020 A 
ATOM     20  C   LIG    1        1.257  -0.896   1.715  0.00  0.00    -0.030 A 
ATOM     21  C   LIG    1        1.283  -2.265   1.389  0.00  0.00    +0.030 A 
ATOM     22  C   LIG    1        0.122  -2.944   1.216  0.00  0.00    +0.060 A 
ENDBRANCH  12  13
ENDBRANCH  10  12
ENDBRANCH   9  10
ENDBRANCH   1   9
BRANCH   4  23
ATOM     23  C   LIG    1       -4.362 -10.323  -0.584  0.00  0.00    +0.350 C 
BRANCH  23  24
ATOM     24  O   LIG    1       -4.546 -11.067   0.622  0.00  0.00    -0.300 OA
BRANCH  24  25
ATOM     25  C   LIG    1       -5.036 -12.329   0.500  0.00  0.00    +0.140 A 
ATOM     26  C   LIG    1       -5.333 -12.840  -0.754  0.00  0.00    -0.060 A 
ATOM     27  C   LIG    1       -5.831 -14.123  -0.876  0.00  0.00    +0.060 A 
ATOM     28  C   LIG    1       -6.034 -14.898   0.251  0.00  0.00    +0.000 A 
ATOM     29  C   LIG    1       -5.739 -14.391   1.503  0.00  0.00    +0.070 A 
ATOM     30  C   LIG    1       -5.235 -13.111   1.630  0.00  0.00    -0.070 A 
ATOM     31 CL   LIG    1       -4.858 -12.477   3.202  0.00  0.00    -0.050 Cl
ENDBRANCH  24  25
ENDBRANCH  23  24
ENDBRANCH   4  23
TORSDOF 8
