REMARK  Name = ZINCpe000000Vy6D.0
REMARK                            x       y       z     vdW  Elec       q    Type
REMARK                         _______ _______ _______ _____ _____    ______ ____
ROOT
ATOM      1  N   LIG    1       -3.631  -1.210  -0.204  0.00  0.00    -0.480 N 
ATOM      2  C   LIG    1       -4.811  -0.552  -0.295  0.00  0.00    +0.460 A 
ATOM      3  C   LIG    1       -4.864   0.804  -0.290  0.00  0.00    -0.150 A 
ATOM      4  C   LIG    1       -3.690   1.550  -0.185  0.00  0.00    +0.270 A 
ATOM      5  C   LIG    1       -2.471   0.880  -0.097  0.00  0.00    -0.250 A 
ATOM      6  C   LIG    1       -2.468  -0.538  -0.106  0.00  0.00    +0.540 A 
ATOM      7  O   LIG    1       -1.415  -1.148  -0.024  0.00  0.00    -0.500 OA
ENDROOT
BRANCH   5   8
ATOM      8  C   LIG    1       -1.211   1.631   0.010  0.00  0.00    +0.580 C 
ATOM      9  O   LIG    1       -1.232   2.841   0.131  0.00  0.00    -0.540 OA
ATOM     10  N   LIG    1       -0.032   0.978  -0.025  0.00  0.00    -0.840 N 
ATOM     11  H   LIG    1        0.799   1.478  -0.032  0.00  0.00    +0.410 HD
ATOM     12  H   LIG    1       -0.016   0.008  -0.047  0.00  0.00    +0.410 HD
ENDBRANCH   5   8
BRANCH   3  13
ATOM     13  N   LIG    1       -6.170   1.494  -0.392  0.00  0.00    +0.050 N 
ATOM     14  O   LIG    1       -6.218   2.711  -0.387  0.00  0.00    -0.140 OA
ATOM     15  O   LIG    1       -7.196   0.844  -0.479  0.00  0.00    -0.160 OA
ENDBRANCH   3  13
BRANCH   1  16
ATOM     16  C   LIG    1       -3.619  -2.675  -0.212  0.00  0.00    +0.410 C 
BRANCH  16  23
ATOM     17  C   LIG    1       -3.990  -4.557   1.415  0.00  0.00    -0.080 A 
ATOM     18  C   LIG    1       -4.199  -5.024   2.713  0.00  0.00    +0.070 A 
ATOM     19  C   LIG    1       -4.277  -4.128   3.762  0.00  0.00    +0.100 A 
ATOM     20  C   LIG    1       -4.143  -2.769   3.526  0.00  0.00    +0.050 A 
ATOM     21  C   LIG    1       -3.930  -2.302   2.241  0.00  0.00    +0.030 A 
ATOM     22  F   LIG    1       -4.485  -4.577   5.019  0.00  0.00    -0.120 F 
ATOM     23  C   LIG    1       -3.850  -3.187   1.186  0.00  0.00    -0.060 A 
BRANCH  17  24
ATOM     24  C   LIG    1       -3.912  -5.509   0.287  0.00  0.00    +0.510 C 
ATOM     25  O   LIG    1       -3.631  -5.111  -0.825  0.00  0.00    -0.500 OA
BRANCH  24  27
ATOM     26  C   LIG    1       -4.059  -7.695  -0.660  0.00  0.00    +0.290 C 
ATOM     27  O   LIG    1       -4.153  -6.818   0.493  0.00  0.00    -0.350 OA
ENDBRANCH  24  27
ENDBRANCH  17  24
ENDBRANCH  16  23
ENDBRANCH   1  16
TORSDOF 6
