REMARK  Name = ZINCtV00000vAmLt.0
REMARK                            x       y       z     vdW  Elec       q    Type
REMARK                         _______ _______ _______ _____ _____    ______ ____
ROOT
ATOM      1  C   LIG    1        4.717  -0.002  -0.056  0.00  0.00    +0.200 A 
ATOM      2  N   LIG    1        3.563  -0.634  -0.036  0.00  0.00    -0.440 NA
ATOM      3  C   LIG    1        2.396   0.012  -0.007  0.00  0.00    +0.130 A 
ATOM      4  C   LIG    1        1.178  -0.691   0.014  0.00  0.00    +0.050 A 
ATOM      5  C   LIG    1        0.003  -0.004   0.043  0.00  0.00    +0.030 A 
ATOM      6  C   LIG    1       -0.016   1.388   0.051  0.00  0.00    +0.020 A 
ATOM      7  C   LIG    1        1.145   2.103   0.031  0.00  0.00    +0.050 A 
ATOM      8  C   LIG    1        2.371   1.429   0.001  0.00  0.00    -0.060 A 
ATOM      9  C   LIG    1        3.642   2.155  -0.021  0.00  0.00    -0.070 A 
ATOM     10  C   LIG    1        4.805   1.399  -0.050  0.00  0.00    +0.070 A 
ENDROOT
BRANCH   1  15
ATOM     11  C   LIG    1        9.575  -3.091  -0.180  0.00  0.00    +0.090 C 
ATOM     12  C   LIG    1        8.304  -2.282  -0.147  0.00  0.00    -0.070 A 
ATOM     13  C   LIG    1        7.079  -2.925  -0.124  0.00  0.00    +0.000 A 
ATOM     14  C   LIG    1        5.912  -2.190  -0.095  0.00  0.00    +0.070 A 
ATOM     15  C   LIG    1        5.968  -0.797  -0.088  0.00  0.00    -0.070 A 
ATOM     16  C   LIG    1        7.205  -0.155  -0.116  0.00  0.00    +0.040 A 
ATOM     17  C   LIG    1        8.366  -0.900  -0.140  0.00  0.00    +0.010 A 
ENDBRANCH   1  15
BRANCH   9  18
ATOM     18  C   LIG    1        3.684   3.632  -0.013  0.00  0.00    +0.520 C 
ATOM     19  O   LIG    1        2.653   4.270  -0.092  0.00  0.00    -0.490 OA
BRANCH  18  20
ATOM     20  O   LIG    1        4.866   4.271   0.081  0.00  0.00    -0.340 OA
BRANCH  20  21
ATOM     21  C   LIG    1        4.832   5.723   0.083  0.00  0.00    +0.280 C 
BRANCH  21  22
ATOM     22  C   LIG    1        6.237   6.258   0.194  0.00  0.00    -0.090 A 
ATOM     23  C   LIG    1        6.786   6.505   1.439  0.00  0.00    -0.000 A 
ATOM     24  C   LIG    1        8.078   6.992   1.541  0.00  0.00    +0.040 A 
ATOM     25  C   LIG    1        8.814   7.241   0.398  0.00  0.00    +0.070 A 
ATOM     26  C   LIG    1        8.264   6.999  -0.847  0.00  0.00    +0.040 A 
ATOM     27 CL   LIG    1        5.859   6.199   2.874  0.00  0.00    -0.050 Cl
ATOM     28  C   LIG    1        6.975   6.507  -0.949  0.00  0.00    -0.000 A 
ATOM     29 CL   LIG    1        6.283   6.204  -2.512  0.00  0.00    -0.050 Cl
ENDBRANCH  21  22
ENDBRANCH  20  21
ENDBRANCH  18  20
ENDBRANCH   9  18
TORSDOF 5
