REMARK  Name = ZINCkj00000AlHgx.1
REMARK                            x       y       z     vdW  Elec       q    Type
REMARK                         _______ _______ _______ _____ _____    ______ ____
ROOT
ATOM      1  C   LIG    1       -3.234   1.248   3.518  0.00  0.00    +0.150 C 
ATOM      2  C   LIG    1       -3.300   1.250   5.056  0.00  0.00    +0.090 C 
ATOM      3  C   LIG    1       -2.687   2.603   5.486  0.00  0.00    +0.080 C 
ATOM      4  C   LIG    1       -2.848   3.475   4.215  0.00  0.00    +0.250 C 
ATOM      5  N   LIG    1       -2.590   2.516   3.110  0.00  0.00    -0.390 N 
ATOM      6  H   LIG    1       -1.597   2.380   2.992  0.00  0.00    +0.420 HD
ENDROOT
BRANCH   1   7
ATOM      7  C   LIG    1       -2.400   0.061   3.034  0.00  0.00    +0.340 C 
BRANCH   7  10
ATOM      8  C   LIG    1       -3.082  -0.435  -0.700  0.00  0.00    +0.100 C 
ATOM      9  C   LIG    1       -3.246  -0.413   0.798  0.00  0.00    +0.520 C 
ATOM     10  N   LIG    1       -2.277   0.112   1.575  0.00  0.00    -0.610 N 
ATOM     11  O   LIG    1       -4.249  -0.868   1.305  0.00  0.00    -0.520 OA
BRANCH  10  12
ATOM     12  C   LIG    1       -1.102   0.735   0.960  0.00  0.00    +0.130 C 
ATOM     13  C   LIG    1        0.273   0.196   1.359  0.00  0.00    +0.060 C 
ATOM     14  C   LIG    1       -0.293  -0.107  -0.030  0.00  0.00    +0.070 C 
ENDBRANCH  10  12
ENDBRANCH   7  10
ENDBRANCH   1   7
BRANCH   5  15
ATOM     15  C   LIG    1       -3.188   3.009   1.862  0.00  0.00    +0.370 C 
BRANCH  15  16
ATOM     16  C   LIG    1       -2.469   4.257   1.419  0.00  0.00    -0.120 A 
ATOM     17  C   LIG    1       -1.454   4.328   0.537  0.00  0.00    +0.220 A 
ATOM     18  N   LIG    1       -1.098   5.616   0.417  0.00  0.00    -0.480 NA
ATOM     19  C   LIG    1       -1.849   6.344   1.197  0.00  0.00    +0.460 A 
ATOM     20  N   LIG    1       -2.718   5.535   1.841  0.00  0.00    -0.450 N 
ATOM     21  C   LIG    1       -3.736   5.948   2.809  0.00  0.00    +0.340 C 
ENDBRANCH  15  16
ENDBRANCH   5  15
TORSDOF 5
