REMARK  Name = ZINCkj00000AlHgx.0
REMARK                            x       y       z     vdW  Elec       q    Type
REMARK                         _______ _______ _______ _____ _____    ______ ____
ROOT
ATOM      1  C   LIG    1       -0.051   0.602   2.023  0.00  0.00    +0.140 C 
ATOM      2  C   LIG    1       -0.215   1.928   2.795  0.00  0.00    +0.090 C 
ATOM      3  C   LIG    1       -1.307   2.673   1.983  0.00  0.00    +0.080 C 
ATOM      4  C   LIG    1       -0.965   2.244   0.537  0.00  0.00    +0.260 C 
ATOM      5  N   LIG    1       -0.536   0.833   0.650  0.00  0.00    -0.390 N 
ATOM      6  H   LIG    1       -1.318   0.224   0.459  0.00  0.00    +0.420 HD
ENDROOT
BRANCH   1   7
ATOM      7  C   LIG    1        1.422   0.192   1.992  0.00  0.00    +0.300 C 
BRANCH   7  10
ATOM      8  C   LIG    1        3.014   0.397   5.467  0.00  0.00    +0.100 C 
ATOM      9  C   LIG    1        2.480   0.774   4.109  0.00  0.00    +0.530 C 
ATOM     10  N   LIG    1        1.862  -0.150   3.347  0.00  0.00    -0.590 N 
ATOM     11  O   LIG    1        2.606   1.909   3.702  0.00  0.00    -0.530 OA
BRANCH  10  12
ATOM     12  C   LIG    1        1.630  -1.498   3.874  0.00  0.00    +0.210 C 
ATOM     13  C   LIG    1        0.975  -2.518   2.941  0.00  0.00    +0.030 C 
ATOM     14  C   LIG    1        0.180  -1.925   4.107  0.00  0.00    +0.020 C 
ENDBRANCH  10  12
ENDBRANCH   7  10
ENDBRANCH   1   7
BRANCH   5  15
ATOM     15  C   LIG    1        0.545   0.567  -0.308  0.00  0.00    +0.360 C 
BRANCH  15  16
ATOM     16  C   LIG    1        0.015   0.692  -1.713  0.00  0.00    -0.120 A 
ATOM     17  C   LIG    1        0.033   1.796  -2.483  0.00  0.00    +0.230 A 
ATOM     18  N   LIG    1       -0.532   1.491  -3.660  0.00  0.00    -0.490 NA
ATOM     19  C   LIG    1       -0.907   0.241  -3.646  0.00  0.00    +0.460 A 
ATOM     20  N   LIG    1       -0.584  -0.294  -2.449  0.00  0.00    -0.460 N 
ATOM     21  C   LIG    1       -0.830  -1.673  -2.019  0.00  0.00    +0.350 C 
ENDBRANCH  15  16
ENDBRANCH   5  15
TORSDOF 5
