REMARK  Name = ZINCpk000000ooJ1.0
REMARK                            x       y       z     vdW  Elec       q    Type
REMARK                         _______ _______ _______ _____ _____    ______ ____
ROOT
ATOM      1  N   LIG    1       -0.117   7.583  -1.623  0.00  0.00    -0.730 N 
ATOM      2  H   LIG    1       -0.118   8.210  -0.883  0.00  0.00    +0.400 HD
ATOM      3  C   LIG    1       -0.096   6.257  -1.385  0.00  0.00    +0.520 C 
ATOM      4  O   LIG    1       -0.095   5.474  -2.311  0.00  0.00    -0.530 OA
ENDROOT
BRANCH   1   8
ATOM      5  N   LIG    1        0.536   9.910  -5.050  0.00  0.00    -1.000 NA
ATOM      6  C   LIG    1       -0.817   9.974  -4.480  0.00  0.00    +0.300 C 
ATOM      7  C   LIG    1       -0.766   9.474  -3.033  0.00  0.00    +0.020 C 
ATOM      8  C   LIG    1       -0.137   8.079  -3.002  0.00  0.00    +0.240 C 
ATOM      9  C   LIG    1        1.295   8.152  -3.538  0.00  0.00    +0.000 C 
ATOM     10  C   LIG    1        1.268   8.638  -4.991  0.00  0.00    +0.300 C 
BRANCH   5  11
ATOM     11  S   LIG    1        1.222  11.247  -5.746  0.00  0.00    +2.600 S 
ATOM     12  O   LIG    1        0.114  12.025  -6.179  0.00  0.00    -0.950 OA
ATOM     13  O   LIG    1        2.154  10.717  -6.679  0.00  0.00    -0.950 OA
BRANCH  11  14
ATOM     14  C   LIG    1        2.087  12.074  -4.383  0.00  0.00    -0.370 C 
BRANCH  14  16
ATOM     15  C   LIG    1        3.499  14.036  -3.755  0.00  0.00    +0.030 C 
ATOM     16  C   LIG    1        2.770  13.339  -4.905  0.00  0.00    +0.040 C 
ENDBRANCH  14  16
ENDBRANCH  11  14
ENDBRANCH   5  11
ENDBRANCH   1   8
BRANCH   3  17
ATOM     17  C   LIG    1       -0.076   5.747   0.033  0.00  0.00    +0.110 C 
BRANCH  17  18
ATOM     18  C   LIG    1       -0.056   4.240   0.025  0.00  0.00    -0.020 A 
ATOM     19  C   LIG    1        1.151   3.566   0.010  0.00  0.00    +0.050 A 
ATOM     20  C   LIG    1        1.170   2.183   0.003  0.00  0.00    +0.110 A 
ATOM     21  C   LIG    1       -0.018   1.476   0.010  0.00  0.00    -0.040 A 
ATOM     22  C   LIG    1       -1.224   2.151   0.019  0.00  0.00    +0.110 A 
ATOM     23  C   LIG    1       -1.243   3.533   0.032  0.00  0.00    +0.050 A 
BRANCH  21  24
ATOM     24  N   LIG    1        0.002  -0.004   0.002  0.00  0.00    +0.030 N 
ATOM     25  O   LIG    1       -1.044  -0.627   0.009  0.00  0.00    -0.160 OA
ATOM     26  O   LIG    1        1.065  -0.599  -0.011  0.00  0.00    -0.160 OA
ENDBRANCH  21  24
ENDBRANCH  17  18
ENDBRANCH   3  17
TORSDOF 7
