REMARK  Name = ZINCrm00000IZ4Fp.1
REMARK                            x       y       z     vdW  Elec       q    Type
REMARK                         _______ _______ _______ _____ _____    ______ ____
ROOT
ATOM      1  C   LIG    1       -4.190   0.910   2.554  0.00  0.00    +0.160 C 
ATOM      2  C   LIG    1       -5.044   1.599   3.648  0.00  0.00    +0.100 C 
ATOM      3  C   LIG    1       -6.492   1.323   3.181  0.00  0.00    +0.190 C 
ATOM      4  C   LIG    1       -6.380   1.038   1.672  0.00  0.00    +0.210 C 
ATOM      5  N   LIG    1       -4.954   1.177   1.308  0.00  0.00    -0.450 NA
ENDROOT
BRANCH   5   6
ATOM      6  C   LIG    1       -4.605   0.280   0.311  0.00  0.00    +0.390 C 
ATOM      7  C   LIG    1       -5.204   0.352  -0.944  0.00  0.00    -0.050 C 
ATOM      8  C   LIG    1       -4.819  -0.572  -1.911  0.00  0.00    +0.500 C 
ATOM      9  N   LIG    1       -3.899  -1.484  -1.604  0.00  0.00    -0.560 NA
ATOM     10  C   LIG    1       -3.356  -1.520  -0.404  0.00  0.00    +0.690 C 
ATOM     11  H   LIG    1       -3.625  -2.131  -2.273  0.00  0.00    +0.460 HD
ATOM     12  N   LIG    1       -3.689  -0.660   0.537  0.00  0.00    -0.590 NA
BRANCH   8  13
ATOM     13  N   LIG    1       -5.385  -0.541  -3.176  0.00  0.00    -0.780 NA
ATOM     14  H   LIG    1       -5.112  -1.188  -3.845  0.00  0.00    +0.430 HD
ATOM     15  H   LIG    1       -6.055   0.127  -3.392  0.00  0.00    +0.450 HD
ENDBRANCH   8  13
ENDBRANCH   5   6
BRANCH   3  16
ATOM     16  O   LIG    1       -7.314   2.470   3.409  0.00  0.00    -0.550 OA
ATOM     17  H   LIG    1       -8.234   2.355   3.136  0.00  0.00    +0.400 HD
ENDBRANCH   3  16
BRANCH   1  18
ATOM     18  C   LIG    1       -2.798   1.539   2.480  0.00  0.00    +0.300 C 
BRANCH  18  19
ATOM     19  N   LIG    1       -2.066   0.975   1.338  0.00  0.00    -0.510 N 
ATOM     20  H   LIG    1       -1.978  -0.023   1.455  0.00  0.00    +0.430 HD
ATOM     21  H   LIG    1       -2.569   1.171   0.486  0.00  0.00    +0.410 HD
BRANCH  19  22
ATOM     22  C   LIG    1       -0.729   1.579   1.267  0.00  0.00    +0.160 C 
ATOM     23  C   LIG    1        0.079   1.179   2.503  0.00  0.00    +0.100 C 
BRANCH  22  24
ATOM     24  C   LIG    1       -0.013   1.086   0.008  0.00  0.00    +0.070 C 
BRANCH  24  25
ATOM     25  C   LIG    1       -0.753   1.593  -1.232  0.00  0.00    +0.050 C 
BRANCH  25  29
ATOM     26  C   LIG    1        1.247   0.215  -4.748  0.00  0.00    +0.150 A 
ATOM     27  C   LIG    1        0.242  -0.551  -4.175  0.00  0.00    -0.020 A 
ATOM     28  C   LIG    1       -0.403  -0.103  -3.038  0.00  0.00    +0.020 A 
ATOM     29  C   LIG    1       -0.047   1.107  -2.471  0.00  0.00    -0.150 A 
ATOM     30  C   LIG    1        0.950   1.874  -3.044  0.00  0.00    +0.070 A 
ATOM     31  C   LIG    1        1.602   1.428  -4.177  0.00  0.00    -0.060 A 
BRANCH  26  33
ATOM     32  C   LIG    1        2.907   0.617  -6.401  0.00  0.00    +0.250 C 
ATOM     33  O   LIG    1        1.883  -0.223  -5.866  0.00  0.00    -0.310 OA
ENDBRANCH  26  33
ENDBRANCH  25  29
ENDBRANCH  24  25
ENDBRANCH  22  24
ENDBRANCH  19  22
ENDBRANCH  18  19
ENDBRANCH   1  18
TORSDOF 10
