REMARK  Name = ZINCrH00000No4Lf.0
REMARK                            x       y       z     vdW  Elec       q    Type
REMARK                         _______ _______ _______ _____ _____    ______ ____
ROOT
ATOM      1  C   LIG    1        2.870   5.614  -1.442  0.00  0.00    +0.320 C 
ATOM      2  N   LIG    1        2.562   6.198  -0.329  0.00  0.00    -0.280 NA
ATOM      3  N   LIG    1        2.278   5.242   0.662  0.00  0.00    -0.490 N 
ATOM      4  C   LIG    1        2.451   3.936   0.001  0.00  0.00    +0.450 C 
ATOM      5  C   LIG    1        1.922   5.469   1.943  0.00  0.00    +0.560 C 
ATOM      6  O   LIG    1        1.705   4.535   2.687  0.00  0.00    -0.510 OA
ATOM      7  C   LIG    1        1.792   6.882   2.450  0.00  0.00    +0.140 C 
ATOM      8  O   LIG    1        2.831   4.266  -1.343  0.00  0.00    -0.310 OA
ENDROOT
BRANCH   4   9
ATOM      9  C   LIG    1        1.156   3.166   0.009  0.00  0.00    -0.110 A 
ATOM     10  C   LIG    1        1.175   1.783   0.000  0.00  0.00    +0.060 A 
ATOM     11  C   LIG    1       -0.013   1.076   0.008  0.00  0.00    +0.050 A 
ATOM     12  C   LIG    1       -1.220   1.751   0.017  0.00  0.00    -0.070 A 
ATOM     13  C   LIG    1       -1.238   3.134   0.031  0.00  0.00    +0.050 A 
ATOM     14 BR   LIG    1       -2.845   0.784   0.020  0.00  0.00    -0.040 Br
ATOM     15  C   LIG    1       -0.050   3.841   0.024  0.00  0.00    +0.050 A 
ENDBRANCH   4   9
BRANCH   1  18
ATOM     16  C   LIG    1        3.571   8.411  -3.853  0.00  0.00    +0.150 A 
ATOM     17  C   LIG    1        3.239   7.735  -2.692  0.00  0.00    -0.030 A 
ATOM     18  C   LIG    1        3.224   6.339  -2.679  0.00  0.00    +0.030 A 
ATOM     19  C   LIG    1        3.550   5.628  -3.836  0.00  0.00    -0.040 A 
ATOM     20  C   LIG    1        3.875   6.309  -4.996  0.00  0.00    +0.150 A 
ATOM     21  C   LIG    1        3.889   7.701  -5.006  0.00  0.00    +0.060 A 
BRANCH  16  23
ATOM     22  C   LIG    1        3.248  10.435  -2.647  0.00  0.00    +0.250 C 
ATOM     23  O   LIG    1        3.585   9.771  -3.867  0.00  0.00    -0.300 OA
ENDBRANCH  16  23
BRANCH  20  24
ATOM     24  O   LIG    1        4.186   5.618  -6.125  0.00  0.00    -0.300 OA
ATOM     25  C   LIG    1        4.151   4.192  -6.043  0.00  0.00    +0.250 C 
ENDBRANCH  20  24
BRANCH  21  26
ATOM     26  O   LIG    1        4.215   8.368  -6.146  0.00  0.00    -0.310 OA
ATOM     27  C   LIG    1        5.597   8.676  -6.345  0.00  0.00    +0.240 C 
ENDBRANCH  21  26
ENDBRANCH   1  18
TORSDOF 5
