REMARK  Name = ZINCqH0000001rna.0
REMARK                            x       y       z     vdW  Elec       q    Type
REMARK                         _______ _______ _______ _____ _____    ______ ____
ROOT
ATOM      1  N   LIG    1       -0.664   1.579   1.238  0.00  0.00    -0.970 NA
ENDROOT
BRANCH   1   2
ATOM      2  S   LIG    1       -0.279   3.083   1.814  0.00  0.00    +2.690 S 
ATOM      3  O   LIG    1        1.052   3.346   1.393  0.00  0.00    -0.940 OA
ATOM      4  O   LIG    1       -0.682   3.105   3.176  0.00  0.00    -0.940 OA
BRANCH   2   5
ATOM      5  C   LIG    1       -1.306   4.242   0.972  0.00  0.00    -0.680 A 
ATOM      6  C   LIG    1       -0.875   4.815  -0.209  0.00  0.00    +0.150 A 
ATOM      7  C   LIG    1       -1.682   5.721  -0.873  0.00  0.00    +0.010 A 
ATOM      8  C   LIG    1       -2.916   6.061  -0.348  0.00  0.00    +0.020 A 
ATOM      9  C   LIG    1       -3.344   5.490   0.838  0.00  0.00    +0.020 A 
ATOM     10 CL   LIG    1       -3.926   7.204  -1.176  0.00  0.00    -0.050 Cl
ATOM     11  C   LIG    1       -2.539   4.581   1.497  0.00  0.00    +0.140 A 
ENDBRANCH   2   5
ENDBRANCH   1   2
BRANCH   1  12
ATOM     12  C   LIG    1       -1.714   0.791   1.888  0.00  0.00    +0.340 C 
BRANCH  12  15
ATOM     13  N   LIG    1       -1.871  -0.968   3.620  0.00  0.00    -0.730 N 
ATOM     14  H   LIG    1       -2.833  -0.963   3.493  0.00  0.00    +0.400 HD
ATOM     15  C   LIG    1       -1.092  -0.141   2.896  0.00  0.00    +0.500 C 
ATOM     16  O   LIG    1        0.111  -0.147   3.054  0.00  0.00    -0.520 OA
BRANCH  13  18
ATOM     17  C   LIG    1       -2.295  -2.221   5.677  0.00  0.00    +0.030 C 
ATOM     18  C   LIG    1       -1.266  -1.874   4.599  0.00  0.00    +0.230 C 
ATOM     19  C   LIG    1       -0.813  -3.156   3.897  0.00  0.00    +0.030 C 
ENDBRANCH  13  18
ENDBRANCH  12  15
ENDBRANCH   1  12
BRANCH   1  20
ATOM     20  C   LIG    1        0.047   1.035   0.077  0.00  0.00    +0.390 C 
BRANCH  20  21
ATOM     21  C   LIG    1       -0.764   1.283  -1.169  0.00  0.00    -0.100 A 
ATOM     22  C   LIG    1       -2.032   1.824  -1.073  0.00  0.00    +0.030 A 
ATOM     23  C   LIG    1       -2.775   2.051  -2.216  0.00  0.00    +0.020 A 
ATOM     24  C   LIG    1       -2.252   1.736  -3.456  0.00  0.00    +0.020 A 
ATOM     25  C   LIG    1       -0.984   1.194  -3.553  0.00  0.00    +0.040 A 
ATOM     26  C   LIG    1       -0.236   0.973  -2.410  0.00  0.00    -0.030 A 
ATOM     27 CL   LIG    1        1.359   0.300  -2.533  0.00  0.00    -0.060 Cl
ENDBRANCH  20  21
ENDBRANCH   1  20
TORSDOF 7
