REMARK  Name = ZINCpe000000UN5n.0
REMARK                            x       y       z     vdW  Elec       q    Type
REMARK                         _______ _______ _______ _____ _____    ______ ____
ROOT
ATOM      1  C   LIG    1        1.283  -0.924  -4.362  0.00  0.00    +0.300 C 
ENDROOT
BRANCH   1   2
ATOM      2  C   LIG    1        2.376  -0.209  -3.565  0.00  0.00    +0.160 C 
ATOM      3  C   LIG    1        1.879   0.062  -2.143  0.00  0.00    +0.170 C 
ATOM      4  N   LIG    1        2.904   0.816  -1.406  0.00  0.00    -0.520 NA
ATOM      5  C   LIG    1        3.205   2.085  -2.085  0.00  0.00    +0.150 C 
ATOM      6  C   LIG    1        3.688   1.795  -3.508  0.00  0.00    +0.220 C 
ATOM      7  O   LIG    1        2.693   1.034  -4.199  0.00  0.00    -0.380 OA
BRANCH   4   8
ATOM      8  C   LIG    1        2.490   1.048  -0.016  0.00  0.00    +0.270 C 
BRANCH   8   9
ATOM      9  C   LIG    1        1.175   1.783   0.000  0.00  0.00    -0.130 A 
ATOM     10  C   LIG    1       -0.013   1.076   0.008  0.00  0.00    +0.010 A 
ATOM     11  C   LIG    1       -1.219   1.751   0.017  0.00  0.00    +0.000 A 
ATOM     12  C   LIG    1       -1.238   3.133   0.030  0.00  0.00    +0.000 A 
ATOM     13  C   LIG    1       -0.050   3.840   0.022  0.00  0.00    +0.000 A 
ATOM     14  C   LIG    1        1.156   3.165   0.008  0.00  0.00    +0.010 A 
ENDBRANCH   8   9
ENDBRANCH   4   8
ENDBRANCH   1   2
BRANCH   1  16
ATOM     15  C   LIG    1        1.006  -1.927  -6.565  0.00  0.00    +0.520 C 
ATOM     16  N   LIG    1        1.799  -1.284  -5.685  0.00  0.00    -0.720 N 
ATOM     17  H   LIG    1        2.711  -1.059  -5.927  0.00  0.00    +0.410 HD
ATOM     18  O   LIG    1       -0.134  -2.207  -6.262  0.00  0.00    -0.530 OA
BRANCH  15  23
ATOM     19  C   LIG    1        2.719  -4.484 -11.389  0.00  0.00    +0.290 C 
ATOM     20  N   LIG    1        2.264  -3.831 -10.159  0.00  0.00    -0.610 N 
ATOM     21  C   LIG    1        0.943  -3.217 -10.161  0.00  0.00    +0.260 C 
ATOM     22  C   LIG    1        0.445  -3.014  -8.729  0.00  0.00    +0.060 C 
ATOM     23  C   LIG    1        1.537  -2.297  -7.926  0.00  0.00    +0.000 C 
ATOM     24  C   LIG    1        2.728  -3.246  -7.774  0.00  0.00    +0.100 C 
ATOM     25  C   LIG    1        3.086  -3.836  -9.108  0.00  0.00    +0.520 C 
ATOM     26  O   LIG    1        4.180  -4.343  -9.237  0.00  0.00    -0.550 OA
ENDBRANCH  15  23
ENDBRANCH   1  16
TORSDOF 5
