REMARK  Name = ZINCpk00000xIe0a.0
REMARK                            x       y       z     vdW  Elec       q    Type
REMARK                         _______ _______ _______ _____ _____    ______ ____
ROOT
ATOM      1  C   LIG    1       -1.192  -0.633   0.010  0.00  0.00    +0.510 C 
ATOM      2  O   LIG    1       -2.221   0.016   0.023  0.00  0.00    -0.510 OA
ENDROOT
BRANCH   1   4
ATOM      3  C   LIG    1       -2.442  -2.679   0.011  0.00  0.00    +0.170 C 
ATOM      4  C   LIG    1       -1.247  -2.050   0.003  0.00  0.00    -0.070 C 
BRANCH   3   8
ATOM      5  C   LIG    1       -2.600  -6.921  -0.010  0.00  0.00    +0.120 A 
ATOM      6  C   LIG    1       -1.373  -6.272  -0.018  0.00  0.00    -0.040 A 
ATOM      7  C   LIG    1       -1.317  -4.896  -0.017  0.00  0.00    +0.060 A 
ATOM      8  C   LIG    1       -2.499  -4.148   0.004  0.00  0.00    -0.090 A 
ATOM      9  C   LIG    1       -3.737  -4.802   0.012  0.00  0.00    +0.000 A 
ATOM     10  C   LIG    1       -3.784  -6.182   0.005  0.00  0.00    +0.090 A 
BRANCH   5  12
ATOM     11  C   LIG    1       -1.401  -8.972  -0.032  0.00  0.00    +0.240 C 
ATOM     12  O   LIG    1       -2.650  -8.278  -0.017  0.00  0.00    -0.300 OA
ENDBRANCH   5  12
BRANCH  10  13
ATOM     13  O   LIG    1       -4.984  -6.821   0.013  0.00  0.00    -0.300 OA
ATOM     14  C   LIG    1       -6.155  -6.003   0.029  0.00  0.00    +0.240 C 
ENDBRANCH  10  13
ENDBRANCH   3   8
ENDBRANCH   1   4
BRANCH   1  15
ATOM     15  O   LIG    1        0.002  -0.004   0.002  0.00  0.00    -0.330 OA
BRANCH  15  16
ATOM     16  C   LIG    1       -0.017   1.425   0.010  0.00  0.00    +0.270 C 
BRANCH  16  17
ATOM     17  C   LIG    1        1.397   1.946  -0.001  0.00  0.00    +0.520 C 
ATOM     18  N   LIG    1        1.625   3.275   0.004  0.00  0.00    -0.690 N 
ATOM     19  H   LIG    1        0.879   3.895   0.015  0.00  0.00    +0.410 HD
ATOM     20  C   LIG    1        2.889   3.741  -0.005  0.00  0.00    +0.700 C 
ATOM     21  N   LIG    1        3.118   5.069  -0.001  0.00  0.00    -0.730 N 
ATOM     22  H   LIG    1        2.372   5.690   0.010  0.00  0.00    +0.400 HD
ATOM     23  O   LIG    1        3.824   2.964  -0.018  0.00  0.00    -0.530 OA
ATOM     24  O   LIG    1        2.329   1.171  -0.014  0.00  0.00    -0.440 OA
BRANCH  21  25
ATOM     25  C   LIG    1        4.492   5.577  -0.011  0.00  0.00    +0.240 C 
ATOM     26  C   LIG    1        4.524   6.976   0.606  0.00  0.00    +0.040 C 
ATOM     27  C   LIG    1        5.000   5.643  -1.452  0.00  0.00    +0.020 C 
ENDBRANCH  21  25
ENDBRANCH  16  17
ENDBRANCH  15  16
ENDBRANCH   1  15
TORSDOF 8
