REMARK  Name = ZINCvU0000000F3d.0
REMARK                            x       y       z     vdW  Elec       q    Type
REMARK                         _______ _______ _______ _____ _____    ______ ____
ROOT
ATOM      1  C   LIG    1        1.229  -4.831  -0.139  0.00  0.00    +0.510 C 
ATOM      2  N   LIG    1        0.059  -4.173  -0.022  0.00  0.00    -0.680 N 
ATOM      3  H   LIG    1       -0.770  -4.670   0.059  0.00  0.00    +0.410 HD
ATOM      4  O   LIG    1        2.273  -4.213  -0.145  0.00  0.00    -0.500 OA
ENDROOT
BRANCH   2   5
ATOM      5  C   LIG    1        0.039  -2.772  -0.019  0.00  0.00    +0.110 A 
ATOM      6  C   LIG    1        0.964  -2.063  -0.774  0.00  0.00    +0.060 A 
ATOM      7  C   LIG    1        0.945  -0.683  -0.770  0.00  0.00    +0.000 A 
ATOM      8  C   LIG    1        0.001  -0.004  -0.013  0.00  0.00    +0.120 A 
ATOM      9  C   LIG    1       -0.920  -0.712   0.746  0.00  0.00    -0.060 A 
ATOM     10  C   LIG    1       -0.905  -2.093   0.738  0.00  0.00    +0.030 A 
BRANCH   8  11
ATOM     11  O   LIG    1       -0.017   1.356  -0.009  0.00  0.00    -0.310 OA
BRANCH  11  12
ATOM     12  C   LIG    1       -1.016   1.989   0.793  0.00  0.00    +0.240 C 
BRANCH  12  13
ATOM     13  C   LIG    1       -0.882   3.485   0.673  0.00  0.00    -0.100 A 
ATOM     14  C   LIG    1       -0.073   4.180   1.552  0.00  0.00    +0.020 A 
ATOM     15  C   LIG    1        0.053   5.552   1.438  0.00  0.00    +0.010 A 
ATOM     16  C   LIG    1       -0.638   6.230   0.452  0.00  0.00    +0.010 A 
ATOM     17  C   LIG    1       -1.452   5.536  -0.423  0.00  0.00    +0.010 A 
ATOM     18  C   LIG    1       -1.574   4.163  -0.313  0.00  0.00    +0.020 A 
ENDBRANCH  12  13
ENDBRANCH  11  12
ENDBRANCH   8  11
ENDBRANCH   2   5
BRANCH   1  19
ATOM     19  C   LIG    1        1.241  -6.333  -0.262  0.00  0.00    +0.220 C 
BRANCH  19  21
ATOM     20  C   LIG    1        3.373  -6.549   0.866  0.00  0.00    +0.200 C 
ATOM     21  N   LIG    1        2.628  -6.804  -0.374  0.00  0.00    -0.520 NA
BRANCH  21  22
ATOM     22  C   LIG    1        2.673  -8.228  -0.732  0.00  0.00    +0.230 C 
BRANCH  22  23
ATOM     23  C   LIG    1        4.088  -8.615  -1.078  0.00  0.00    -0.080 A 
ATOM     24  C   LIG    1        4.532  -8.516  -2.383  0.00  0.00    +0.030 A 
ATOM     25  C   LIG    1        5.831  -8.867  -2.700  0.00  0.00    +0.010 A 
ATOM     26  C   LIG    1        6.683  -9.325  -1.713  0.00  0.00    -0.070 A 
ATOM     27  C   LIG    1        6.237  -9.429  -0.408  0.00  0.00    +0.000 A 
ATOM     28  C   LIG    1        4.940  -9.073  -0.091  0.00  0.00    +0.010 A 
BRANCH  26  29
ATOM     29  C   LIG    1        8.098  -9.713  -2.059  0.00  0.00    -0.030 C 
ATOM     30  C   LIG    1        9.074  -8.843  -1.265  0.00  0.00    +0.040 C 
ATOM     31  C   LIG    1        8.331  -9.505  -3.557  0.00  0.00    +0.030 C 
ATOM     32  C   LIG    1        8.324 -11.185  -1.707  0.00  0.00    +0.040 C 
ENDBRANCH  26  29
ENDBRANCH  22  23
ENDBRANCH  21  22
ENDBRANCH  19  21
ENDBRANCH   1  19
TORSDOF 9
