REMARK  Name = ZINCqH0000051zc0.0
REMARK                            x       y       z     vdW  Elec       q    Type
REMARK                         _______ _______ _______ _____ _____    ______ ____
ROOT
ATOM      1  O   LIG    1        2.192   1.429  -0.011  0.00  0.00    -0.480 OA
ATOM      2  C   LIG    1        1.170   2.073   0.002  0.00  0.00    +0.480 C 
ENDROOT
BRANCH   2   3
ATOM      3  C   LIG    1        1.228   3.579   0.010  0.00  0.00    +0.090 C 
ATOM      4  C   LIG    1        2.688   4.027  -0.030  0.00  0.00    +0.050 C 
ATOM      5  C   LIG    1        2.736   5.542   0.197  0.00  0.00    +0.030 C 
ATOM      6  C   LIG    1        2.353   5.824   1.649  0.00  0.00    +0.080 C 
ATOM      7  C   LIG    1        1.063   5.130   2.000  0.00  0.00    -0.080 A 
ATOM      8  C   LIG    1        0.380   5.565   3.134  0.00  0.00    +0.100 A 
ATOM      9  C   LIG    1       -0.808   4.962   3.512  0.00  0.00    -0.010 A 
ATOM     10  C   LIG    1       -1.318   3.922   2.759  0.00  0.00    +0.020 A 
ATOM     11  C   LIG    1       -0.642   3.494   1.634  0.00  0.00    +0.010 A 
ATOM     12  C   LIG    1        0.549   4.096   1.250  0.00  0.00    -0.070 A 
BRANCH   8  13
ATOM     13  O   LIG    1        0.883   6.588   3.874  0.00  0.00    -0.490 OA
ATOM     14  H   LIG    1        0.578   7.462   3.595  0.00  0.00    +0.390 HD
ENDBRANCH   8  13
ENDBRANCH   2   3
BRANCH   2  15
ATOM     15  O   LIG    1       -0.018   1.448   0.010  0.00  0.00    -0.360 OA
BRANCH  15  16
ATOM     16  C   LIG    1        0.002  -0.004   0.002  0.00  0.00    +0.380 C 
BRANCH  16  17
ATOM     17  C   LIG    1       -1.412  -0.526   0.013  0.00  0.00    +0.300 A 
ATOM     18  N   LIG    1       -1.742  -1.784   0.004  0.00  0.00    -0.470 NA
ATOM     19  C   LIG    1       -3.095  -1.901   0.021  0.00  0.00    +0.070 A 
ATOM     20  C   LIG    1       -3.966  -2.994   0.024  0.00  0.00    +0.090 A 
ATOM     21  C   LIG    1       -5.327  -2.784   0.037  0.00  0.00    +0.070 A 
ATOM     22  C   LIG    1       -5.842  -1.492   0.050  0.00  0.00    +0.090 A 
ATOM     23  C   LIG    1       -4.993  -0.403   0.047  0.00  0.00    +0.030 A 
ATOM     24  F   LIG    1       -7.179  -1.301   0.064  0.00  0.00    -0.120 F 
ATOM     25  F   LIG    1       -6.169  -3.841   0.039  0.00  0.00    -0.120 F 
ATOM     26  C   LIG    1       -3.619  -0.598   0.033  0.00  0.00    +0.070 A 
ATOM     27  N   LIG    1       -2.529   0.251   0.028  0.00  0.00    -0.580 N 
ATOM     28  H   LIG    1       -2.555   1.220   0.033  0.00  0.00    +0.430 HD
ENDBRANCH  16  17
ENDBRANCH  15  16
ENDBRANCH   2  15
TORSDOF 5
