REMARK  Name = ZINCvU00000005Qb.0
REMARK                            x       y       z     vdW  Elec       q    Type
REMARK                         _______ _______ _______ _____ _____    ______ ____
ROOT
ATOM      1  C   LIG    1        3.627   3.392  -0.516  0.00  0.00    +0.600 C 
ATOM      2  N   LIG    1        3.547   2.211   0.129  0.00  0.00    -0.670 N 
ATOM      3  H   LIG    1        4.321   1.860   0.596  0.00  0.00    +0.410 HD
ATOM      4  O   LIG    1        2.637   3.870  -1.037  0.00  0.00    -0.490 OA
ENDROOT
BRANCH   1   9
ATOM      5  C   LIG    1        8.696   5.228  -0.386  0.00  0.00    +0.200 C 
ATOM      6  C   LIG    1        7.223   4.941  -0.530  0.00  0.00    +0.080 A 
ATOM      7  N   LIG    1        6.366   5.759  -1.043  0.00  0.00    -0.470 NA
ATOM      8  C   LIG    1        5.110   5.364  -1.101  0.00  0.00    +0.210 A 
ATOM      9  C   LIG    1        4.907   4.100  -0.589  0.00  0.00    -0.310 A 
ATOM     10  S   LIG    1        6.465   3.494  -0.033  0.00  0.00    +0.170 S 
BRANCH   8  11
ATOM     11  C   LIG    1        4.022   6.197  -1.663  0.00  0.00    -0.040 A 
ATOM     12  C   LIG    1        4.204   6.861  -2.876  0.00  0.00    +0.040 A 
ATOM     13  C   LIG    1        3.184   7.631  -3.398  0.00  0.00    +0.000 A 
ATOM     14  C   LIG    1        1.988   7.755  -2.714  0.00  0.00    +0.020 A 
ATOM     15  C   LIG    1        1.804   7.104  -1.507  0.00  0.00    +0.000 A 
ATOM     16  C   LIG    1        2.813   6.326  -0.979  0.00  0.00    +0.080 A 
ENDBRANCH   8  11
ENDBRANCH   1   9
BRANCH   2  17
ATOM     17  C   LIG    1        2.348   1.494   0.125  0.00  0.00    +0.160 A 
ATOM     18  C   LIG    1        1.137   2.167   0.239  0.00  0.00    +0.030 A 
ATOM     19  C   LIG    1       -0.047   1.462   0.236  0.00  0.00    +0.090 A 
ATOM     20  C   LIG    1       -0.029   0.071   0.118  0.00  0.00    -0.030 A 
ATOM     21  C   LIG    1        1.189  -0.602   0.004  0.00  0.00    +0.030 A 
ATOM     22  C   LIG    1        2.369   0.109   0.007  0.00  0.00    -0.010 A 
BRANCH  20  23
ATOM     23  C   LIG    1       -1.298  -0.689   0.116  0.00  0.00    +0.220 A 
ATOM     24  N   LIG    1       -2.467  -0.267   0.550  0.00  0.00    -0.280 NA
ATOM     25  N   LIG    1       -3.350  -1.188   0.387  0.00  0.00    -0.290 NA
ATOM     26  C   LIG    1       -2.801  -2.240  -0.152  0.00  0.00    +0.190 A 
ATOM     27  C   LIG    1       -3.482  -3.532  -0.527  0.00  0.00    +0.150 C 
ATOM     28  C   LIG    1       -2.636  -4.706  -0.025  0.00  0.00    +0.020 C 
ATOM     29  C   LIG    1       -1.606  -5.086  -1.085  0.00  0.00    +0.020 C 
ATOM     30  C   LIG    1       -1.141  -3.848  -1.851  0.00  0.00    +0.030 C 
ATOM     31  C   LIG    1       -0.471  -2.866  -0.886  0.00  0.00    +0.290 C 
ATOM     32  N   LIG    1       -1.482  -1.964  -0.333  0.00  0.00    -0.470 N 
ENDBRANCH  20  23
ENDBRANCH   2  17
TORSDOF 4
