REMARK  Name = ZINCkj00000vPT3l.0
REMARK                            x       y       z     vdW  Elec       q    Type
REMARK                         _______ _______ _______ _____ _____    ______ ____
ROOT
ATOM      1  N   LIG    1       -0.666   3.283  -1.113  0.00  0.00    -0.370 N 
ATOM      2  C   LIG    1       -0.356   1.849  -1.151  0.00  0.00    +0.260 C 
ATOM      3  C   LIG    1        0.208   1.409   0.202  0.00  0.00    +0.070 C 
ATOM      4  C   LIG    1       -0.831   1.680   1.294  0.00  0.00    +0.040 C 
ATOM      5  C   LIG    1       -1.203   3.165   1.274  0.00  0.00    +0.060 C 
ATOM      6  C   LIG    1       -1.714   3.539  -0.118  0.00  0.00    +0.160 C 
ATOM      7  H   LIG    1        0.164   3.799  -0.865  0.00  0.00    +0.420 HD
ENDROOT
BRANCH   1   8
ATOM      8  C   LIG    1       -1.133   3.716  -2.437  0.00  0.00    +0.230 C 
BRANCH   8   9
ATOM      9  C   LIG    1       -0.002   3.557  -3.454  0.00  0.00    +0.310 C 
BRANCH   9  15
ATOM     10  O   LIG    1       -1.485   2.283  -5.561  0.00  0.00    -0.520 OA
ATOM     11  C   LIG    1       -1.121   3.435  -5.670  0.00  0.00    +0.520 C 
ATOM     12  C   LIG    1       -1.392   4.319  -6.867  0.00  0.00    +0.060 C 
ATOM     13  C   LIG    1       -1.105   5.750  -6.356  0.00  0.00    +0.060 C 
ATOM     14  C   LIG    1       -0.127   5.479  -5.191  0.00  0.00    +0.260 C 
ATOM     15  N   LIG    1       -0.422   4.113  -4.743  0.00  0.00    -0.620 N 
ENDBRANCH   9  15
ENDBRANCH   8   9
ENDBRANCH   1   8
BRANCH   6  16
ATOM     16  C   LIG    1       -2.087   5.023  -0.142  0.00  0.00    +0.330 C 
BRANCH  16  17
ATOM     17  N   LIG    1       -3.167   5.271   0.816  0.00  0.00    -0.390 N 
ATOM     18  C   LIG    1       -3.140   6.160   1.831  0.00  0.00    +0.240 A 
ATOM     19  C   LIG    1       -4.326   6.084   2.478  0.00  0.00    -0.090 A 
ATOM     20  C   LIG    1       -5.104   5.115   1.837  0.00  0.00    +0.260 A 
ATOM     21  N   LIG    1       -4.413   4.631   0.837  0.00  0.00    -0.300 NA
ENDBRANCH  16  17
ENDBRANCH   6  16
TORSDOF 5
