REMARK  Name = ZINCkj00000vPT3l.1
REMARK                            x       y       z     vdW  Elec       q    Type
REMARK                         _______ _______ _______ _____ _____    ______ ____
ROOT
ATOM      1  N   LIG    1       -2.796   0.596  -0.861  0.00  0.00    -0.370 N 
ATOM      2  C   LIG    1       -3.487   0.504   0.431  0.00  0.00    +0.250 C 
ATOM      3  C   LIG    1       -4.640   1.510   0.470  0.00  0.00    +0.070 C 
ATOM      4  C   LIG    1       -4.082   2.924   0.287  0.00  0.00    +0.040 C 
ATOM      5  C   LIG    1       -3.300   2.988  -1.028  0.00  0.00    +0.070 C 
ATOM      6  C   LIG    1       -2.197   1.928  -1.011  0.00  0.00    +0.170 C 
ATOM      7  H   LIG    1       -3.457   0.440  -1.607  0.00  0.00    +0.430 HD
ENDROOT
BRANCH   1   8
ATOM      8  C   LIG    1       -1.740  -0.424  -0.923  0.00  0.00    +0.230 C 
BRANCH   8   9
ATOM      9  C   LIG    1       -2.376  -1.816  -0.928  0.00  0.00    +0.310 C 
BRANCH   9  15
ATOM     10  O   LIG    1       -1.188  -3.028  -3.246  0.00  0.00    -0.520 OA
ATOM     11  C   LIG    1       -0.826  -3.340  -2.131  0.00  0.00    +0.520 C 
ATOM     12  C   LIG    1        0.253  -4.355  -1.822  0.00  0.00    +0.060 C 
ATOM     13  C   LIG    1        0.615  -4.088  -0.343  0.00  0.00    +0.060 C 
ATOM     14  C   LIG    1       -0.681  -3.433   0.185  0.00  0.00    +0.260 C 
ATOM     15  N   LIG    1       -1.323  -2.833  -0.990  0.00  0.00    -0.620 N 
ENDBRANCH   9  15
ENDBRANCH   8   9
ENDBRANCH   1   8
BRANCH   6  16
ATOM     16  C   LIG    1       -1.250   2.196   0.161  0.00  0.00    +0.340 C 
BRANCH  16  17
ATOM     17  N   LIG    1       -0.556   3.468  -0.053  0.00  0.00    -0.390 N 
ATOM     18  C   LIG    1       -0.532   4.512   0.802  0.00  0.00    +0.240 A 
ATOM     19  C   LIG    1        0.208   5.492   0.234  0.00  0.00    -0.090 A 
ATOM     20  C   LIG    1        0.651   5.032  -1.010  0.00  0.00    +0.260 A 
ATOM     21  N   LIG    1        0.194   3.818  -1.183  0.00  0.00    -0.300 NA
ENDBRANCH  16  17
ENDBRANCH   6  16
TORSDOF 5
