REMARK  Name = ZINCtV00000L6jwZ.0
REMARK                            x       y       z     vdW  Elec       q    Type
REMARK                         _______ _______ _______ _____ _____    ______ ____
ROOT
ATOM      1  P   LIG    1        3.810   1.944  -0.024  0.00  0.00    +2.420 P 
ATOM      2  O   LIG    1        4.949   0.998  -0.039  0.00  0.00    -1.010 OA
ENDROOT
BRANCH   1   3
ATOM      3  N   LIG    1        2.402   1.104  -0.015  0.00  0.00    -1.100 N 
ATOM      4  H   LIG    1        2.416   0.134  -0.020  0.00  0.00    +0.430 HD
BRANCH   3   8
ATOM      5  C   LIG    1       -1.237   3.137   0.030  0.00  0.00    +0.100 A 
ATOM      6  C   LIG    1       -1.218   1.750   0.017  0.00  0.00    -0.030 A 
ATOM      7  C   LIG    1       -0.013   1.076   0.008  0.00  0.00    +0.010 A 
ATOM      8  C   LIG    1        1.180   1.787   0.000  0.00  0.00    +0.140 A 
ATOM      9  C   LIG    1        1.160   3.175   0.008  0.00  0.00    -0.030 A 
ATOM     10  C   LIG    1       -0.046   3.848   0.023  0.00  0.00    +0.040 A 
BRANCH   5  12
ATOM     11  C   LIG    1       -3.611   3.005   0.051  0.00  0.00    +0.250 C 
ATOM     12  O   LIG    1       -2.424   3.800   0.045  0.00  0.00    -0.320 OA
ENDBRANCH   5  12
ENDBRANCH   3   8
ENDBRANCH   1   3
BRANCH   1  13
ATOM     13  O   LIG    1        3.895   2.864   1.295  0.00  0.00    -0.640 OA
BRANCH  13  14
ATOM     14  C   LIG    1        4.175   2.175   2.433  0.00  0.00    +0.090 A 
ATOM     15  C   LIG    1        5.463   1.717   2.668  0.00  0.00    +0.030 A 
ATOM     16  C   LIG    1        5.744   1.017   3.826  0.00  0.00    +0.040 A 
ATOM     17  C   LIG    1        4.744   0.773   4.748  0.00  0.00    +0.020 A 
ATOM     18  C   LIG    1        3.460   1.230   4.516  0.00  0.00    -0.080 A 
ATOM     19  C   LIG    1        2.372   0.963   5.524  0.00  0.00    +0.090 C 
ATOM     20  C   LIG    1        3.174   1.934   3.363  0.00  0.00    -0.090 A 
ATOM     21  C   LIG    1        1.775   2.437   3.113  0.00  0.00    +0.100 C 
ENDBRANCH  13  14
ENDBRANCH   1  13
BRANCH   1  22
ATOM     22  O   LIG    1        3.870   2.877  -1.334  0.00  0.00    -0.640 OA
BRANCH  22  23
ATOM     23  C   LIG    1        4.022   2.189  -2.496  0.00  0.00    +0.100 A 
ATOM     24  C   LIG    1        2.949   1.496  -3.038  0.00  0.00    -0.030 A 
ATOM     25  C   LIG    1        3.106   0.797  -4.219  0.00  0.00    +0.030 A 
ATOM     26  C   LIG    1        4.330   0.789  -4.862  0.00  0.00    +0.010 A 
ATOM     27  C   LIG    1        5.400   1.480  -4.324  0.00  0.00    -0.070 A 
ATOM     28  C   LIG    1        6.733   1.469  -5.028  0.00  0.00    +0.100 C 
ATOM     29  C   LIG    1        5.247   2.184  -3.146  0.00  0.00    -0.070 A 
ATOM     30  C   LIG    1        6.413   2.942  -2.564  0.00  0.00    +0.110 C 
ENDBRANCH  22  23
ENDBRANCH   1  22
TORSDOF 7
