REMARK  Name = ZINCnE000005qsQk.1
REMARK                            x       y       z     vdW  Elec       q    Type
REMARK                         _______ _______ _______ _____ _____    ______ ____
ROOT
ATOM      1  C   LIG    1       -0.895   1.742  -3.582  0.00  0.00    +0.460 A 
ATOM      2  N   LIG    1       -0.553   1.532  -4.827  0.00  0.00    -0.540 NA
ATOM      3  C   LIG    1       -1.454   2.155  -5.632  0.00  0.00    +0.020 A 
ATOM      4  C   LIG    1       -2.364   2.756  -4.830  0.00  0.00    +0.050 A 
ATOM      5  O   LIG    1       -2.009   2.488  -3.556  0.00  0.00    -0.230 OA
ENDROOT
BRANCH   3   6
ATOM      6  C   LIG    1       -1.443   2.171  -7.115  0.00  0.00    -0.020 A 
ATOM      7  C   LIG    1       -2.439   2.849  -7.814  0.00  0.00    +0.040 A 
ATOM      8  C   LIG    1       -2.421   2.867  -9.195  0.00  0.00    +0.000 A 
ATOM      9  C   LIG    1       -1.422   2.204  -9.885  0.00  0.00    +0.030 A 
ATOM     10  C   LIG    1       -0.433   1.524  -9.198  0.00  0.00    -0.030 A 
ATOM     11  C   LIG    1       -0.437   1.504  -7.816  0.00  0.00    +0.120 A 
ATOM     12  F   LIG    1        0.529   0.839  -7.145  0.00  0.00    -0.110 F 
ENDBRANCH   3   6
BRANCH   1  14
ATOM     13  C   LIG    1       -0.670   1.550  -1.233  0.00  0.00    +0.480 C 
ATOM     14  N   LIG    1       -0.218   1.265  -2.470  0.00  0.00    -0.650 NA
ATOM     15  O   LIG    1       -1.669   2.223  -1.092  0.00  0.00    -0.610 OA
BRANCH  13  20
ATOM     16  C   LIG    1       -0.644  -0.214   0.552  0.00  0.00    +0.200 C 
ATOM     17  O   LIG    1       -1.505   0.300   1.592  0.00  0.00    -0.370 OA
ATOM     18  C   LIG    1       -0.728   1.317   2.262  0.00  0.00    +0.190 C 
ATOM     19  C   LIG    1        0.009   2.062   1.127  0.00  0.00    +0.020 C 
ATOM     20  C   LIG    1        0.065   1.032  -0.024  0.00  0.00    -0.020 C 
BRANCH  16  22
ATOM     21  C   LIG    1       -2.769  -0.838  -0.476  0.00  0.00    +0.020 C 
ATOM     22  C   LIG    1       -1.461  -0.894  -0.516  0.00  0.00    -0.120 C 
ATOM     23  C   LIG    1       -0.772  -1.638  -1.631  0.00  0.00    +0.090 C 
ENDBRANCH  16  22
ENDBRANCH  13  20
ENDBRANCH   1  14
TORSDOF 4
