REMARK  Name = ZINCqH00000060rU.0
REMARK                            x       y       z     vdW  Elec       q    Type
REMARK                         _______ _______ _______ _____ _____    ______ ____
ROOT
ATOM      1  N   LIG    1       -0.982  -2.240  -0.000  0.00  0.00    -0.670 N 
ATOM      2  H   LIG    1       -0.088  -2.608  -0.086  0.00  0.00    +0.410 HD
ATOM      3  C   LIG    1       -1.162  -0.905   0.011  0.00  0.00    +0.590 C 
ATOM      4  O   LIG    1       -2.288  -0.444   0.034  0.00  0.00    -0.530 OA
ENDROOT
BRANCH   3   5
ATOM      5  C   LIG    1        0.002  -0.004  -0.004  0.00  0.00    -0.240 A 
ATOM      6  C   LIG    1       -0.016   1.363   0.004  0.00  0.00    +0.130 A 
ATOM      7  N   LIG    1        1.256   1.806  -0.015  0.00  0.00    -0.440 N 
ATOM      8  C   LIG    1        2.123   0.752  -0.037  0.00  0.00    +0.020 A 
ATOM      9  C   LIG    1        3.626   0.855  -0.062  0.00  0.00    +0.130 C 
ATOM     10  C   LIG    1       -1.250   2.228   0.025  0.00  0.00    +0.140 C 
ATOM     11  C   LIG    1        1.417  -0.392  -0.031  0.00  0.00    -0.010 A 
BRANCH   7  12
ATOM     12  C   LIG    1        1.652   3.216  -0.014  0.00  0.00    +0.420 C 
BRANCH  12  13
ATOM     13  C   LIG    1        1.812   3.692   1.407  0.00  0.00    -0.050 A 
ATOM     14  C   LIG    1        2.946   3.645   2.128  0.00  0.00    -0.030 A 
ATOM     15  C   LIG    1        2.647   4.191   3.398  0.00  0.00    -0.070 A 
ATOM     16  C   LIG    1        1.348   4.539   3.376  0.00  0.00    +0.190 A 
ATOM     17  O   LIG    1        0.849   4.239   2.165  0.00  0.00    -0.170 OA
ENDBRANCH  12  13
ENDBRANCH   7  12
ENDBRANCH   3   5
BRANCH   1  22
ATOM     18  C   LIG    1       -4.388  -3.604  -0.351  0.00  0.00    -0.110 A 
ATOM     19  C   LIG    1       -4.257  -4.808   0.344  0.00  0.00    +0.060 A 
ATOM     20  C   LIG    1       -3.046  -5.146   0.915  0.00  0.00    +0.030 A 
ATOM     21  C   LIG    1       -1.960  -4.300   0.797  0.00  0.00    +0.020 A 
ATOM     22  C   LIG    1       -2.082  -3.096   0.112  0.00  0.00    +0.140 A 
ATOM     23  C   LIG    1       -3.293  -2.747  -0.465  0.00  0.00    +0.100 A 
BRANCH  18  24
ATOM     24  C   LIG    1       -5.683  -3.239  -0.962  0.00  0.00    +0.510 C 
ATOM     25  O   LIG    1       -5.795  -2.191  -1.566  0.00  0.00    -0.500 OA
BRANCH  24  27
ATOM     26  C   LIG    1       -7.978  -3.645  -1.476  0.00  0.00    +0.260 C 
ATOM     27  O   LIG    1       -6.738  -4.068  -0.850  0.00  0.00    -0.360 OA
ENDBRANCH  24  27
ENDBRANCH  18  24
ENDBRANCH   1  22
TORSDOF 6
