REMARK  Name = ZINCrH00000tj126.0
REMARK                            x       y       z     vdW  Elec       q    Type
REMARK                         _______ _______ _______ _____ _____    ______ ____
ROOT
ATOM      1  O   LIG    1       -4.149  -2.359   0.009  0.00  0.00    -0.470 OA
ATOM      2  C   LIG    1       -4.929  -1.428   0.016  0.00  0.00    +0.630 C 
ATOM      3  N   LIG    1       -4.467  -0.162   0.021  0.00  0.00    -0.560 N 
ATOM      4  H   LIG    1       -5.090   0.582   0.027  0.00  0.00    +0.420 HD
ENDROOT
BRANCH   3   5
ATOM      5  N   LIG    1       -3.087   0.081   0.017  0.00  0.00    -0.100 NA
ATOM      6  C   LIG    1       -2.638   1.312   0.021  0.00  0.00    +0.070 C 
ATOM      7  C   LIG    1       -3.430   2.559   0.031  0.00  0.00    +0.550 C 
ATOM      8  N   LIG    1       -2.572   3.593   0.045  0.00  0.00    -0.640 N 
ATOM      9  H   LIG    1       -2.840   4.525   0.052  0.00  0.00    +0.430 HD
ATOM     10  C   LIG    1       -1.251   3.157   0.031  0.00  0.00    +0.190 A 
ATOM     11  C   LIG    1       -0.048   3.856   0.023  0.00  0.00    -0.060 A 
ATOM     12 CL   LIG    1       -0.054   5.592   0.032  0.00  0.00    -0.030 Cl
ATOM     13  C   LIG    1        1.152   3.170   0.008  0.00  0.00    +0.020 A 
ATOM     14 CL   LIG    1        2.647   4.052  -0.002  0.00  0.00    -0.020 Cl
ATOM     15  C   LIG    1        1.172   1.784   0.001  0.00  0.00    +0.040 A 
ATOM     16  C   LIG    1       -0.013   1.076   0.008  0.00  0.00    +0.150 A 
ATOM     17  O   LIG    1       -4.645   2.635   0.037  0.00  0.00    -0.480 OA
ATOM     18  C   LIG    1       -1.225   1.757   0.017  0.00  0.00    -0.080 A 
ENDBRANCH   3   5
BRANCH   2  19
ATOM     19  C   LIG    1       -6.389  -1.685   0.021  0.00  0.00    -0.030 A 
ATOM     20  N   LIG    1       -7.345  -0.787   0.035  0.00  0.00    -0.320 NA
ATOM     21  O   LIG    1       -8.440  -1.299   0.031  0.00  0.00    +0.140 OA
ATOM     22  C   LIG    1       -8.363  -2.642   0.024  0.00  0.00    +0.020 A 
ATOM     23  C   LIG    1       -7.031  -2.951   0.017  0.00  0.00    +0.030 A 
BRANCH  22  24
ATOM     24  C   LIG    1       -9.493  -3.594   0.023  0.00  0.00    -0.030 A 
ATOM     25  C   LIG    1       -9.252  -4.969   0.009  0.00  0.00    +0.040 A 
ATOM     26  C   LIG    1      -10.311  -5.852   0.014  0.00  0.00    +0.010 A 
ATOM     27  C   LIG    1      -11.611  -5.379   0.022  0.00  0.00    +0.030 A 
ATOM     28  C   LIG    1      -11.857  -4.017   0.030  0.00  0.00    +0.010 A 
ATOM     29  C   LIG    1      -10.807  -3.123   0.031  0.00  0.00    +0.040 A 
ENDBRANCH  22  24
ENDBRANCH   2  19
TORSDOF 3
