REMARK  Name = ZINCqH0000007tqw.0
REMARK                            x       y       z     vdW  Elec       q    Type
REMARK                         _______ _______ _______ _____ _____    ______ ____
ROOT
ATOM      1  C   LIG    1       -0.019   1.526   0.010  0.00  0.00    -0.050 C 
ATOM      2  C   LIG    1       -0.738   2.021   1.268  0.00  0.00    +0.050 C 
ATOM      3  C   LIG    1       -0.810   3.549   1.240  0.00  0.00    +0.200 C 
ATOM      4  N   LIG    1       -1.531   3.986   0.037  0.00  0.00    -0.460 N 
ATOM      5  C   LIG    1       -0.832   3.562  -1.183  0.00  0.00    +0.210 C 
ATOM      6  C   LIG    1       -0.762   2.034  -1.228  0.00  0.00    +0.040 C 
ENDROOT
BRANCH   4   7
ATOM      7  C   LIG    1       -1.728   5.356   0.046  0.00  0.00    +0.490 A 
ATOM      8  N   LIG    1       -1.293   6.078  -0.976  0.00  0.00    -0.560 NA
ATOM      9  C   LIG    1       -1.465   7.390  -0.998  0.00  0.00    +0.340 A 
ATOM     10  C   LIG    1       -2.108   8.005   0.064  0.00  0.00    -0.110 A 
ATOM     11  C   LIG    1       -2.550   7.220   1.117  0.00  0.00    +0.220 A 
ATOM     12  N   LIG    1       -2.350   5.913   1.075  0.00  0.00    -0.520 NA
BRANCH  11  13
ATOM     13  C   LIG    1       -3.254   7.846   2.293  0.00  0.00    -0.020 C 
ATOM     14  C   LIG    1       -2.499   9.103   2.729  0.00  0.00    +0.050 C 
ATOM     15  C   LIG    1       -3.297   6.849   3.452  0.00  0.00    +0.050 C 
ATOM     16  C   LIG    1       -4.681   8.223   1.891  0.00  0.00    +0.050 C 
ENDBRANCH  11  13
ENDBRANCH   4   7
BRANCH   1  17
ATOM     17  C   LIG    1        0.002  -0.004   0.002  0.00  0.00    +0.270 C 
BRANCH  17  21
ATOM     18  C   LIG    1        2.069  -1.420   3.464  0.00  0.00    +0.130 A 
ATOM     19  C   LIG    1        0.682  -1.403   3.441  0.00  0.00    -0.020 A 
ATOM     20  C   LIG    1        0.016  -0.945   2.321  0.00  0.00    +0.060 A 
ATOM     21  C   LIG    1        0.731  -0.503   1.223  0.00  0.00    -0.150 A 
ATOM     22  C   LIG    1        2.113  -0.524   1.241  0.00  0.00    +0.050 A 
ATOM     23  C   LIG    1        2.784  -0.976   2.361  0.00  0.00    -0.070 A 
BRANCH  18  25
ATOM     24  C   LIG    1        4.154  -1.858   4.518  0.00  0.00    +0.250 C 
ATOM     25  O   LIG    1        2.726  -1.869   4.565  0.00  0.00    -0.320 OA
ENDBRANCH  18  25
ENDBRANCH  17  21
BRANCH  17  26
ATOM     26  O   LIG    1        0.671  -0.465  -1.174  0.00  0.00    -0.550 OA
ATOM     27  H   LIG    1        1.588  -0.167  -1.247  0.00  0.00    +0.370 HD
ENDBRANCH  17  26
ENDBRANCH   1  17
TORSDOF 6
