REMARK  Name = ZINCvU0000000GSP.0
REMARK                            x       y       z     vdW  Elec       q    Type
REMARK                         _______ _______ _______ _____ _____    ______ ____
ROOT
ATOM      1  O   LIG    1        5.593   3.123  -0.154  0.00  0.00    -0.490 OA
ATOM      2  C   LIG    1        5.874   4.270  -0.444  0.00  0.00    +0.560 C 
ATOM      3  N   LIG    1        7.121   4.733  -0.229  0.00  0.00    -0.680 N 
ATOM      4  H   LIG    1        7.367   5.622  -0.530  0.00  0.00    +0.410 HD
ENDROOT
BRANCH   2   5
ATOM      5  C   LIG    1        4.849   5.154  -1.032  0.00  0.00    -0.180 A 
ATOM      6  C   LIG    1        5.168   6.472  -1.367  0.00  0.00    +0.080 A 
ATOM      7  C   LIG    1        4.206   7.293  -1.915  0.00  0.00    -0.040 A 
ATOM      8  C   LIG    1        2.924   6.817  -2.136  0.00  0.00    +0.090 A 
ATOM      9  C   LIG    1        2.598   5.514  -1.815  0.00  0.00    -0.080 A 
ATOM     10  C   LIG    1        3.551   4.676  -1.258  0.00  0.00    +0.190 A 
BRANCH  10  11
ATOM     11  O   LIG    1        3.230   3.397  -0.936  0.00  0.00    -0.270 OA
BRANCH  11  12
ATOM     12  C   LIG    1        1.888   2.981  -1.195  0.00  0.00    +0.210 C 
BRANCH  12  13
ATOM     13  C   LIG    1        1.716   1.521  -0.771  0.00  0.00    +0.160 C 
ATOM     14  C   LIG    1        0.238   1.079  -0.923  0.00  0.00    +0.020 C 
ATOM     15  C   LIG    1        0.374  -0.455  -1.084  0.00  0.00    +0.000 C 
ATOM     16  C   LIG    1        1.830  -0.659  -1.543  0.00  0.00    +0.190 C 
ATOM     17  O   LIG    1        2.424   0.643  -1.673  0.00  0.00    -0.360 OA
ENDBRANCH  12  13
ENDBRANCH  11  12
ENDBRANCH  10  11
ENDBRANCH   2   5
BRANCH   3  18
ATOM     18  C   LIG    1        8.058   3.934   0.427  0.00  0.00    +0.180 A 
ATOM     19  C   LIG    1        7.647   3.061   1.428  0.00  0.00    +0.010 A 
ATOM     20  C   LIG    1        8.569   2.267   2.073  0.00  0.00    +0.080 A 
ATOM     21  C   LIG    1        9.920   2.349   1.730  0.00  0.00    -0.060 A 
ATOM     22  C   LIG    1       10.331   3.231   0.728  0.00  0.00    +0.100 A 
ATOM     23  C   LIG    1        9.403   4.018   0.083  0.00  0.00    -0.010 A 
BRANCH  21  24
ATOM     24  C   LIG    1       10.913   1.503   2.424  0.00  0.00    +0.300 A 
ATOM     25  N   LIG    1       12.198   1.497   2.176  0.00  0.00    -0.470 NA
ATOM     26  C   LIG    1       12.798   0.603   3.003  0.00  0.00    +0.030 A 
ATOM     27  C   LIG    1       14.121   0.190   3.181  0.00  0.00    +0.080 A 
ATOM     28  C   LIG    1       14.416  -0.767   4.125  0.00  0.00    +0.020 A 
ATOM     29  C   LIG    1       13.409  -1.324   4.900  0.00  0.00    +0.050 A 
ATOM     30  C   LIG    1       12.098  -0.926   4.736  0.00  0.00    +0.050 A 
ATOM     31  C   LIG    1       11.782   0.037   3.790  0.00  0.00    +0.010 A 
ATOM     32  O   LIG    1       10.627   0.621   3.401  0.00  0.00    -0.210 OA
ENDBRANCH  21  24
ENDBRANCH   3  18
TORSDOF 6
