REMARK  Name = ZINCqH0000034pZF.0
REMARK                            x       y       z     vdW  Elec       q    Type
REMARK                         _______ _______ _______ _____ _____    ______ ____
ROOT
ATOM      1  C   LIG    1       -4.406  -0.330   2.442  0.00  0.00    -0.150 A 
ATOM      2  C   LIG    1       -5.258   0.709   2.622  0.00  0.00    +0.120 A 
ATOM      3  N   LIG    1       -4.644   1.685   3.374  0.00  0.00    -0.590 N 
ATOM      4  H   LIG    1       -5.050   2.525   3.636  0.00  0.00    +0.420 HD
ATOM      5  C   LIG    1       -3.365   1.288   3.698  0.00  0.00    +0.100 A 
ATOM      6  C   LIG    1       -2.338   1.880   4.424  0.00  0.00    -0.010 A 
ATOM      7  C   LIG    1       -1.139   1.219   4.580  0.00  0.00    +0.030 A 
ATOM      8  C   LIG    1       -0.944  -0.036   4.020  0.00  0.00    -0.030 A 
ATOM      9  C   LIG    1       -1.939  -0.638   3.302  0.00  0.00    +0.050 A 
ATOM     10  C   LIG    1       -3.161   0.017   3.126  0.00  0.00    -0.100 A 
ENDROOT
BRANCH   2  11
ATOM     11  C   LIG    1       -6.637   0.783   2.092  0.00  0.00    -0.030 A 
ATOM     12  C   LIG    1       -7.487  -0.319   2.194  0.00  0.00    +0.040 A 
ATOM     13  C   LIG    1       -8.773  -0.242   1.702  0.00  0.00    +0.010 A 
ATOM     14  C   LIG    1       -9.218   0.921   1.098  0.00  0.00    +0.020 A 
ATOM     15  C   LIG    1       -8.378   2.015   0.989  0.00  0.00    +0.010 A 
ATOM     16  C   LIG    1       -7.091   1.953   1.482  0.00  0.00    +0.010 A 
ENDBRANCH   2  11
BRANCH   1  17
ATOM     17  C   LIG    1       -4.687  -1.599   1.679  0.00  0.00    +0.130 C 
BRANCH  17  18
ATOM     18  C   LIG    1       -4.286  -1.412   0.214  0.00  0.00    +0.050 C 
BRANCH  18  21
ATOM     19  C   LIG    1       -3.822  -1.560  -2.580  0.00  0.00    +0.280 C 
ATOM     20  N   LIG    1       -4.291  -2.750  -1.866  0.00  0.00    -0.580 N 
ATOM     21  C   LIG    1       -4.566  -2.681  -0.549  0.00  0.00    +0.520 C 
ATOM     22  O   LIG    1       -5.041  -3.640   0.023  0.00  0.00    -0.530 OA
BRANCH  20  23
ATOM     23  C   LIG    1       -4.460  -4.016  -2.584  0.00  0.00    +0.100 C 
ATOM     24  C   LIG    1       -5.194  -3.974  -3.926  0.00  0.00    +0.040 C 
ATOM     25  C   LIG    1       -5.877  -4.579  -2.699  0.00  0.00    +0.050 C 
BRANCH  23  26
ATOM     26  C   LIG    1       -3.311  -5.016  -2.438  0.00  0.00    +0.230 C 
BRANCH  26  27
ATOM     27  O   LIG    1       -2.095  -4.414  -2.885  0.00  0.00    -0.570 OA
ATOM     28  H   LIG    1       -1.323  -4.992  -2.820  0.00  0.00    +0.380 HD
ENDBRANCH  26  27
ENDBRANCH  23  26
ENDBRANCH  20  23
ENDBRANCH  18  21
ENDBRANCH  17  18
ENDBRANCH   1  17
TORSDOF 7
