REMARK  Name = ZINCrD00000F5LmS.0
REMARK                            x       y       z     vdW  Elec       q    Type
REMARK                         _______ _______ _______ _____ _____    ______ ____
ROOT
ATOM      1  C   LIG    1        0.124  -6.999   4.879  0.00  0.00    -0.050 A 
ATOM      2  C   LIG    1        0.228  -6.304   6.087  0.00  0.00    +0.090 A 
ATOM      3  C   LIG    1        0.251  -6.997   7.278  0.00  0.00    +0.020 A 
ATOM      4  C   LIG    1        0.182  -8.384   7.279  0.00  0.00    +0.100 A 
ATOM      5  C   LIG    1        0.083  -9.079   6.080  0.00  0.00    +0.000 A 
ATOM      6  C   LIG    1        0.054  -8.395   4.885  0.00  0.00    +0.070 A 
ENDROOT
BRANCH   1   8
ATOM      7  N   LIG    1        0.159  -4.966   3.600  0.00  0.00    -0.220 NA
ATOM      8  C   LIG    1        0.094  -6.263   3.603  0.00  0.00    +0.240 C 
BRANCH   7  11
ATOM      9  O   LIG    1        0.284  -2.313   3.434  0.00  0.00    -0.490 OA
ATOM     10  C   LIG    1        0.198  -2.920   2.384  0.00  0.00    +0.580 C 
ATOM     11  N   LIG    1        0.130  -4.266   2.387  0.00  0.00    -0.580 N 
ATOM     12  H   LIG    1        0.062  -4.750   1.549  0.00  0.00    +0.390 HD
BRANCH  10  13
ATOM     13  C   LIG    1        0.168  -2.181   1.104  0.00  0.00    -0.120 A 
ATOM     14  C   LIG    1        0.070  -2.875  -0.103  0.00  0.00    +0.030 A 
ATOM     15  C   LIG    1        0.042  -2.182  -1.296  0.00  0.00    +0.030 A 
ATOM     16  C   LIG    1        0.106  -0.801  -1.300  0.00  0.00    +0.020 A 
ATOM     17  C   LIG    1        0.209  -0.102  -0.105  0.00  0.00    +0.100 A 
ATOM     18  C   LIG    1        0.238  -0.787   1.098  0.00  0.00    +0.070 A 
BRANCH  17  19
ATOM     19  O   LIG    1        0.277   1.255  -0.115  0.00  0.00    -0.490 OA
ATOM     20  H   LIG    1        1.178   1.603  -0.164  0.00  0.00    +0.400 HD
ENDBRANCH  17  19
ENDBRANCH  10  13
ENDBRANCH   7  11
ENDBRANCH   1   8
BRANCH   4  21
ATOM     21  O   LIG    1        0.211  -9.063   8.455  0.00  0.00    -0.290 OA
BRANCH  21  22
ATOM     22  C   LIG    1        1.312  -9.797   8.711  0.00  0.00    +0.510 C 
ATOM     23  O   LIG    1        2.263  -9.747   7.958  0.00  0.00    -0.480 OA
BRANCH  22  24
ATOM     24  C   LIG    1        1.361 -10.661   9.908  0.00  0.00    -0.130 A 
ATOM     25  C   LIG    1        0.271 -10.716  10.779  0.00  0.00    +0.080 A 
ATOM     26  C   LIG    1        0.322 -11.530  11.892  0.00  0.00    +0.000 A 
ATOM     27  C   LIG    1        1.454 -12.282  12.152  0.00  0.00    +0.050 A 
ATOM     28  C   LIG    1        2.540 -12.228  11.296  0.00  0.00    +0.010 A 
ATOM     29  C   LIG    1        2.500 -11.422  10.177  0.00  0.00    +0.090 A 
ENDBRANCH  22  24
ENDBRANCH  21  22
ENDBRANCH   4  21
TORSDOF 7
