REMARK  Name = ZINCqH0000007k3w.0
REMARK                            x       y       z     vdW  Elec       q    Type
REMARK                         _______ _______ _______ _____ _____    ______ ____
ROOT
ATOM      1  C   LIG    1       -1.258   3.450   0.131  0.00  0.00    +0.340 A 
ATOM      2  N   LIG    1       -2.327   4.176   0.243  0.00  0.00    -0.520 NA
ATOM      3  C   LIG    1       -2.152   5.494   0.340  0.00  0.00    +0.180 A 
ATOM      4  C   LIG    1       -0.871   5.906   0.310  0.00  0.00    -0.110 A 
ATOM      5  S   LIG    1        0.163   4.488   0.152  0.00  0.00    +0.100 S 
ENDROOT
BRANCH   3   6
ATOM      6  C   LIG    1       -3.284   6.436   0.473  0.00  0.00    -0.130 A 
ATOM      7  C   LIG    1       -4.585   6.088   0.509  0.00  0.00    +0.050 A 
ATOM      8  C   LIG    1       -5.462   7.147   0.639  0.00  0.00    +0.020 A 
ATOM      9  C   LIG    1       -4.888   8.351   0.709  0.00  0.00    -0.180 A 
ATOM     10  S   LIG    1       -3.140   8.183   0.615  0.00  0.00    +0.140 S 
BRANCH   9  11
ATOM     11  C   LIG    1       -5.627   9.656   0.853  0.00  0.00    +0.130 C 
BRANCH  11  12
ATOM     12  C   LIG    1       -5.805   9.981   2.337  0.00  0.00    +0.280 C 
BRANCH  12  13
ATOM     13  N   LIG    1       -6.523  11.250   2.477  0.00  0.00    -1.120 NA
ATOM     14  H   LIG    1       -6.612  11.843   1.714  0.00  0.00    +0.420 HD
BRANCH  13  15
ATOM     15  S   LIG    1       -7.183  11.672   3.936  0.00  0.00    +2.620 S 
ATOM     16  O   LIG    1       -7.946  10.535   4.317  0.00  0.00    -0.950 OA
ATOM     17  O   LIG    1       -7.808  12.924   3.689  0.00  0.00    -0.960 OA
ATOM     18  C   LIG    1       -5.755  11.878   5.036  0.00  0.00    -0.280 C 
ENDBRANCH  13  15
ENDBRANCH  12  13
ENDBRANCH  11  12
ENDBRANCH   9  11
ENDBRANCH   3   6
BRANCH   1  19
ATOM     19  N   LIG    1       -1.238   2.068   0.019  0.00  0.00    -0.630 N 
ATOM     20  H   LIG    1       -2.061   1.562   0.112  0.00  0.00    +0.420 HD
BRANCH  19  24
ATOM     21  C   LIG    1        2.351   0.084  -0.728  0.00  0.00    +0.120 A 
ATOM     22  C   LIG    1        1.398  -0.494   0.099  0.00  0.00    +0.020 A 
ATOM     23  C   LIG    1        0.210   0.164   0.348  0.00  0.00    +0.040 A 
ATOM     24  C   LIG    1       -0.031   1.404  -0.229  0.00  0.00    +0.120 A 
ATOM     25  C   LIG    1        0.923   1.981  -1.056  0.00  0.00    +0.010 A 
ATOM     26  C   LIG    1        2.111   1.322  -1.305  0.00  0.00    -0.030 A 
BRANCH  21  28
ATOM     27  C   LIG    1        4.456   0.088  -1.834  0.00  0.00    +0.240 C 
ATOM     28  O   LIG    1        3.521  -0.565  -0.973  0.00  0.00    -0.320 OA
ENDBRANCH  21  28
ENDBRANCH  19  24
ENDBRANCH   1  19
TORSDOF 8
