REMARK  Name = ZINCvU00000008mj.0
REMARK                            x       y       z     vdW  Elec       q    Type
REMARK                         _______ _______ _______ _____ _____    ______ ____
ROOT
ATOM      1  C   LIG    1        4.025   1.460   2.189  0.00  0.00    -0.690 A 
ATOM      2  C   LIG    1        4.659   0.284   2.547  0.00  0.00    +0.180 A 
ATOM      3  C   LIG    1        4.755  -0.082   3.878  0.00  0.00    +0.020 A 
ATOM      4  C   LIG    1        4.217   0.728   4.859  0.00  0.00    +0.070 A 
ATOM      5  C   LIG    1        3.575   1.917   4.504  0.00  0.00    -0.150 A 
ATOM      6 CL   LIG    1        4.337   0.269   6.529  0.00  0.00    -0.010 Cl
ATOM      7  C   LIG    1        3.488   2.281   3.159  0.00  0.00    +0.180 A 
ENDROOT
BRANCH   5   8
ATOM      8  C   LIG    1        2.997   2.789   5.548  0.00  0.00    +0.560 C 
ATOM      9  N   LIG    1        2.379   3.936   5.202  0.00  0.00    -0.660 N 
ATOM     10  H   LIG    1        2.254   4.156   4.265  0.00  0.00    +0.410 HD
ATOM     11  O   LIG    1        3.079   2.472   6.718  0.00  0.00    -0.490 OA
BRANCH   9  12
ATOM     12  C   LIG    1        1.916   4.807   6.192  0.00  0.00    +0.160 A 
ATOM     13  C   LIG    1        1.530   4.311   7.431  0.00  0.00    +0.040 A 
ATOM     14  C   LIG    1        1.074   5.174   8.408  0.00  0.00    +0.050 A 
ATOM     15  C   LIG    1        1.002   6.532   8.155  0.00  0.00    +0.020 A 
ATOM     16  C   LIG    1        1.386   7.030   6.922  0.00  0.00    -0.020 A 
ATOM     17 CL   LIG    1        1.294   8.735   6.609  0.00  0.00    -0.060 Cl
ATOM     18  C   LIG    1        1.848   6.172   5.942  0.00  0.00    -0.100 A 
ATOM     19  C   LIG    1        2.272   6.715   4.602  0.00  0.00    +0.110 C 
ENDBRANCH   9  12
ENDBRANCH   5   8
BRANCH   1  20
ATOM     20  S   LIG    1        3.910   1.915   0.491  0.00  0.00    +2.680 S 
ATOM     21  O   LIG    1        3.744   3.326   0.464  0.00  0.00    -0.940 OA
ATOM     22  O   LIG    1        4.971   1.245  -0.176  0.00  0.00    -0.930 OA
BRANCH  20  23
ATOM     23  N   LIG    1        2.504   1.267  -0.096  0.00  0.00    -0.940 N 
BRANCH  23  24
ATOM     24  C   LIG    1        1.335   2.030  -0.108  0.00  0.00    +0.130 A 
ATOM     25  C   LIG    1        1.288   3.220  -0.824  0.00  0.00    +0.030 A 
ATOM     26  C   LIG    1        0.131   3.975  -0.830  0.00  0.00    +0.020 A 
ATOM     27  C   LIG    1       -0.982   3.542  -0.134  0.00  0.00    +0.020 A 
ATOM     28  C   LIG    1       -0.939   2.359   0.580  0.00  0.00    +0.020 A 
ATOM     29  C   LIG    1        0.216   1.602   0.595  0.00  0.00    +0.010 A 
ENDBRANCH  23  24
BRANCH  23  30
ATOM     30  C   LIG    1        2.487  -0.107  -0.603  0.00  0.00    +0.330 C 
BRANCH  30  32
ATOM     31  C   LIG    1        3.650  -0.794  -2.637  0.00  0.00    +0.050 C 
ATOM     32  C   LIG    1        2.683  -0.095  -2.097  0.00  0.00    -0.080 C 
ENDBRANCH  30  32
ENDBRANCH  23  30
ENDBRANCH  20  23
ENDBRANCH   1  20
TORSDOF 7
