REMARK  Name = ZINCpe00000gM6YG.0
REMARK                            x       y       z     vdW  Elec       q    Type
REMARK                         _______ _______ _______ _____ _____    ______ ____
ROOT
ATOM      1  C   LIG    1       -0.331   0.015   0.170  0.00  0.00    +0.530 C 
ATOM      2  N   LIG    1        0.057   1.174   0.738  0.00  0.00    -0.610 N 
ATOM      3  C   LIG    1       -0.933   2.115   1.285  0.00  0.00    +0.280 C 
ATOM      4  C   LIG    1       -0.516   2.471   2.721  0.00  0.00    +0.170 C 
ATOM      5  N   LIG    1        0.869   2.961   2.716  0.00  0.00    -0.530 NA
ATOM      6  C   LIG    1        1.801   1.917   2.270  0.00  0.00    +0.170 C 
ATOM      7  C   LIG    1        1.480   1.535   0.821  0.00  0.00    +0.300 C 
ATOM      8  O   LIG    1        0.498  -0.746  -0.281  0.00  0.00    -0.510 OA
ENDROOT
BRANCH   1   9
ATOM      9  C   LIG    1       -1.795  -0.334   0.095  0.00  0.00    +0.180 C 
BRANCH   9  10
ATOM     10  C   LIG    1       -2.392   0.267  -1.152  0.00  0.00    -0.090 A 
ATOM     11  C   LIG    1       -2.100  -0.276  -2.389  0.00  0.00    +0.050 A 
ATOM     12  C   LIG    1       -2.652   0.273  -3.532  0.00  0.00    +0.000 A 
ATOM     13  C   LIG    1       -3.487   1.371  -3.438  0.00  0.00    +0.010 A 
ATOM     14  C   LIG    1       -3.774   1.917  -2.201  0.00  0.00    +0.000 A 
ATOM     15  C   LIG    1       -3.227   1.365  -1.058  0.00  0.00    +0.010 A 
ENDBRANCH   9  10
BRANCH   9  17
ATOM     16  C   LIG    1       -1.396  -2.415   1.267  0.00  0.00    +0.190 C 
ATOM     17  N   LIG    1       -1.948  -1.795   0.055  0.00  0.00    -0.520 NA
ATOM     18  C   LIG    1       -3.355  -2.172  -0.135  0.00  0.00    +0.190 C 
ENDBRANCH   9  17
ENDBRANCH   1   9
BRANCH   5  19
ATOM     19  C   LIG    1        1.249   3.476   4.038  0.00  0.00    +0.210 C 
BRANCH  19  20
ATOM     20  C   LIG    1        2.461   4.400   3.896  0.00  0.00    +0.130 C 
ATOM     21  C   LIG    1        2.867   4.927   5.275  0.00  0.00    +0.190 C 
ATOM     22  O   LIG    1        3.926   5.877   5.120  0.00  0.00    -0.380 OA
ATOM     23  C   LIG    1        3.590   6.981   4.275  0.00  0.00    +0.190 C 
ATOM     24  C   LIG    1        3.184   6.452   2.896  0.00  0.00    +0.190 C 
ATOM     25  O   LIG    1        2.124   5.504   3.050  0.00  0.00    -0.360 OA
ENDBRANCH  19  20
ENDBRANCH   5  19
TORSDOF 5
