REMARK  Name = ZINCkj00000xVSdA.1
REMARK                            x       y       z     vdW  Elec       q    Type
REMARK                         _______ _______ _______ _____ _____    ______ ____
ROOT
ATOM      1  N   LIG    1       -0.534  -0.218  -1.794  0.00  0.00    -0.380 N 
ATOM      2  C   LIG    1       -1.802   0.429  -2.153  0.00  0.00    +0.250 C 
ATOM      3  C   LIG    1       -2.081   0.221  -3.643  0.00  0.00    +0.060 C 
ATOM      4  C   LIG    1       -2.171  -1.279  -3.936  0.00  0.00    +0.030 C 
ATOM      5  C   LIG    1       -0.871  -1.955  -3.489  0.00  0.00    +0.140 C 
ATOM      6  C   LIG    1       -0.639  -1.667  -2.005  0.00  0.00    +0.290 C 
ATOM      7  H   LIG    1        0.206   0.152  -2.371  0.00  0.00    +0.430 HD
ENDROOT
BRANCH   5   8
ATOM      8  O   LIG    1        0.221  -1.442  -4.254  0.00  0.00    -0.570 OA
ATOM      9  H   LIG    1        0.137  -1.587  -5.206  0.00  0.00    +0.410 HD
ENDBRANCH   5   8
BRANCH   1  10
ATOM     10  C   LIG    1       -0.233   0.050  -0.382  0.00  0.00    +0.360 C 
BRANCH  10  13
ATOM     11  C   LIG    1        2.349   1.595  -1.222  0.00  0.00    +0.180 C 
ATOM     12  C   LIG    1        1.138   2.192  -0.554  0.00  0.00    +0.040 A 
ATOM     13  C   LIG    1        0.028   1.522  -0.194  0.00  0.00    -0.260 A 
ATOM     14  C   LIG    1       -0.844   2.463   0.399  0.00  0.00    -0.040 A 
ATOM     15  C   LIG    1       -0.218   3.653   0.362  0.00  0.00    +0.200 A 
ATOM     16  O   LIG    1        0.981   3.483  -0.219  0.00  0.00    -0.160 OA
ENDBRANCH  10  13
ENDBRANCH   1  10
BRANCH   5  17
ATOM     17  C   LIG    1       -0.981  -3.466  -3.705  0.00  0.00    +0.050 C 
BRANCH  17  18
ATOM     18  C   LIG    1       -1.217  -3.749  -5.167  0.00  0.00    +0.520 C 
ATOM     19  N   LIG    1       -1.346  -5.020  -5.595  0.00  0.00    -0.610 N 
ATOM     20  C   LIG    1       -1.258  -6.127  -4.640  0.00  0.00    +0.290 C 
ATOM     21  C   LIG    1       -1.575  -5.295  -7.016  0.00  0.00    +0.300 C 
ATOM     22  O   LIG    1       -1.290  -2.832  -5.958  0.00  0.00    -0.540 OA
ENDBRANCH  17  18
ENDBRANCH   5  17
TORSDOF 5
