REMARK  Name = ZINCkj00000xVSdA.0
REMARK                            x       y       z     vdW  Elec       q    Type
REMARK                         _______ _______ _______ _____ _____    ______ ____
ROOT
ATOM      1  N   LIG    1       -0.699   1.559   1.217  0.00  0.00    -0.380 N 
ATOM      2  C   LIG    1       -0.656   3.025   1.272  0.00  0.00    +0.250 C 
ATOM      3  C   LIG    1       -1.420   3.606   0.080  0.00  0.00    +0.060 C 
ATOM      4  C   LIG    1       -0.769   3.123  -1.220  0.00  0.00    +0.030 C 
ATOM      5  C   LIG    1       -0.752   1.592  -1.233  0.00  0.00    +0.140 C 
ATOM      6  C   LIG    1       -0.013   1.086   0.008  0.00  0.00    +0.290 C 
ATOM      7  H   LIG    1       -1.659   1.251   1.199  0.00  0.00    +0.410 HD
ENDROOT
BRANCH   5   8
ATOM      8  O   LIG    1       -0.081   1.133  -2.408  0.00  0.00    -0.540 OA
ATOM      9  H   LIG    1       -0.496   1.417  -3.234  0.00  0.00    +0.410 HD
ENDBRANCH   5   8
BRANCH   1  10
ATOM     10  C   LIG    1       -0.032   1.006   2.404  0.00  0.00    +0.360 C 
BRANCH  10  13
ATOM     11  C   LIG    1       -2.630  -0.369   3.462  0.00  0.00    +0.180 C 
ATOM     12  C   LIG    1       -1.925   0.801   4.098  0.00  0.00    +0.040 A 
ATOM     13  C   LIG    1       -0.807   1.390   3.638  0.00  0.00    -0.260 A 
ATOM     14  C   LIG    1       -0.500   2.441   4.532  0.00  0.00    -0.040 A 
ATOM     15  C   LIG    1       -1.447   2.429   5.488  0.00  0.00    +0.210 A 
ATOM     16  O   LIG    1       -2.306   1.431   5.221  0.00  0.00    -0.160 OA
ENDBRANCH  10  13
ENDBRANCH   1  10
BRANCH   5  17
ATOM     17  C   LIG    1       -2.188   1.064  -1.223  0.00  0.00    +0.020 C 
BRANCH  17  18
ATOM     18  C   LIG    1       -2.914   1.563  -2.445  0.00  0.00    +0.520 C 
ATOM     19  N   LIG    1       -4.202   1.223  -2.649  0.00  0.00    -0.610 N 
ATOM     20  C   LIG    1       -4.896   0.367  -1.683  0.00  0.00    +0.290 C 
ATOM     21  C   LIG    1       -4.909   1.708  -3.837  0.00  0.00    +0.310 C 
ATOM     22  O   LIG    1       -2.341   2.272  -3.245  0.00  0.00    -0.530 OA
ENDBRANCH  17  18
ENDBRANCH   5  17
TORSDOF 5
