REMARK  Name = ZINCrg00000ySUCg.1
REMARK                            x       y       z     vdW  Elec       q    Type
REMARK                         _______ _______ _______ _____ _____    ______ ____
ROOT
ATOM      1  N   LIG    1       -6.691   0.393   1.132  0.00  0.00    -0.660 N 
ATOM      2  H   LIG    1       -5.822   0.105   1.452  0.00  0.00    +0.420 HD
ATOM      3  C   LIG    1       -6.780   1.403   0.243  0.00  0.00    +0.590 C 
ATOM      4  O   LIG    1       -7.860   1.703  -0.229  0.00  0.00    -0.480 OA
ENDROOT
BRANCH   3   5
ATOM      5  C   LIG    1       -5.569   2.141  -0.158  0.00  0.00    -0.240 A 
ATOM      6  C   LIG    1       -5.508   3.194  -1.055  0.00  0.00    +0.300 A 
ATOM      7  N   LIG    1       -4.234   3.595  -1.150  0.00  0.00    -0.420 N 
ATOM      8  C   LIG    1       -3.693   4.681  -1.968  0.00  0.00    +0.300 C 
ATOM      9  C   LIG    1       -3.279   5.855  -1.074  0.00  0.00    +0.020 C 
ATOM     10  C   LIG    1       -2.563   5.329   0.170  0.00  0.00    +0.280 C 
ATOM     11  N   LIG    1       -1.587   4.290  -0.120  0.00  0.00    -0.730 N 
ATOM     12  H   LIG    1       -0.653   4.517  -0.247  0.00  0.00    +0.410 HD
ATOM     13  C   LIG    1       -1.998   3.002  -0.211  0.00  0.00    +0.600 C 
ATOM     14  O   LIG    1       -1.216   2.069  -0.202  0.00  0.00    -0.510 OA
ATOM     15  C   LIG    1       -3.458   2.806  -0.321  0.00  0.00    -0.060 A 
ATOM     16  C   LIG    1       -4.250   1.907   0.302  0.00  0.00    +0.070 A 
ENDBRANCH   3   5
BRANCH   1  21
ATOM     17  C   LIG    1       -8.919  -1.815   3.036  0.00  0.00    +0.180 A 
ATOM     18  C   LIG    1      -10.134  -1.440   2.460  0.00  0.00    -0.120 A 
ATOM     19  C   LIG    1      -10.142  -0.477   1.474  0.00  0.00    +0.320 A 
ATOM     20  N   LIG    1       -9.021   0.091   1.071  0.00  0.00    -0.490 NA
ATOM     21  C   LIG    1       -7.846  -0.235   1.591  0.00  0.00    +0.390 A 
ATOM     22  C   LIG    1       -7.755  -1.200   2.584  0.00  0.00    -0.090 A 
BRANCH  17  27
ATOM     23  C   LIG    1       -9.178  -6.415   6.171  0.00  0.00    +0.190 C 
ATOM     24  N   LIG    1       -9.229  -5.393   5.118  0.00  0.00    -0.550 NA
ATOM     25  C   LIG    1      -10.130  -4.295   5.493  0.00  0.00    +0.190 C 
ATOM     26  C   LIG    1      -10.216  -3.292   4.339  0.00  0.00    +0.200 C 
ATOM     27  N   LIG    1       -8.871  -2.784   4.034  0.00  0.00    -0.490 N 
ATOM     28  C   LIG    1       -7.969  -3.882   3.659  0.00  0.00    +0.210 C 
ATOM     29  C   LIG    1       -7.884  -4.885   4.813  0.00  0.00    +0.190 C 
ENDBRANCH  17  27
ENDBRANCH   1  21
TORSDOF 3
