REMARK  Name = ZINCvU0000000991.0
REMARK                            x       y       z     vdW  Elec       q    Type
REMARK                         _______ _______ _______ _____ _____    ______ ____
ROOT
ATOM      1  C   LIG    1       -2.884   1.266  -1.842  0.00  0.00    +0.250 A 
ATOM      2  N   LIG    1       -3.227   0.001  -1.670  0.00  0.00    -0.470 NA
ATOM      3  C   LIG    1       -4.507   0.028  -1.247  0.00  0.00    +0.230 A 
ATOM      4  N   LIG    1       -4.872   1.284  -1.184  0.00  0.00    -0.370 NA
ATOM      5  O   LIG    1       -3.957   2.007  -1.516  0.00  0.00    +0.100 OA
ENDROOT
BRANCH   1  12
ATOM      6  C   LIG    1        2.232   3.915  -3.675  0.00  0.00    +0.100 A 
ATOM      7  C   LIG    1        2.680   2.599  -3.764  0.00  0.00    -0.020 A 
ATOM      8  C   LIG    1        1.849   1.552  -3.435  0.00  0.00    +0.040 A 
ATOM      9  C   LIG    1        0.548   1.803  -3.009  0.00  0.00    +0.090 A 
ATOM     10  N   LIG    1       -0.490   0.983  -2.622  0.00  0.00    -0.560 N 
ATOM     11  H   LIG    1       -0.461   0.014  -2.586  0.00  0.00    +0.430 HD
ATOM     12  C   LIG    1       -1.578   1.767  -2.298  0.00  0.00    +0.130 A 
ATOM     13  C   LIG    1       -1.251   3.075  -2.463  0.00  0.00    +0.040 A 
ATOM     14  C   LIG    1        0.090   3.131  -2.917  0.00  0.00    -0.080 A 
ATOM     15  C   LIG    1        0.947   4.186  -3.255  0.00  0.00    +0.040 A 
BRANCH   6  17
ATOM     16  C   LIG    1        4.384   4.587  -4.431  0.00  0.00    +0.250 C 
ATOM     17  O   LIG    1        3.066   4.937  -4.003  0.00  0.00    -0.320 OA
ENDBRANCH   6  17
ENDBRANCH   1  12
BRANCH   3  18
ATOM     18  C   LIG    1       -5.348  -1.148  -0.914  0.00  0.00    -0.060 A 
ATOM     19  C   LIG    1       -4.826  -2.435  -1.034  0.00  0.00    +0.110 A 
ATOM     20  C   LIG    1       -5.607  -3.527  -0.718  0.00  0.00    -0.060 A 
ATOM     21  C   LIG    1       -6.917  -3.345  -0.293  0.00  0.00    +0.140 A 
ATOM     22  C   LIG    1       -7.441  -2.064  -0.178  0.00  0.00    +0.010 A 
ATOM     23  C   LIG    1       -6.662  -0.969  -0.487  0.00  0.00    +0.100 A 
BRANCH  21  24
ATOM     24  O   LIG    1       -7.686  -4.422   0.012  0.00  0.00    -0.250 OA
BRANCH  24  25
ATOM     25  C   LIG    1       -7.130  -5.657  -0.102  0.00  0.00    +0.100 A 
ATOM     26  C   LIG    1       -7.218  -6.350  -1.301  0.00  0.00    +0.050 A 
ATOM     27  C   LIG    1       -6.648  -7.603  -1.418  0.00  0.00    +0.050 A 
ATOM     28  C   LIG    1       -5.997  -8.172  -0.337  0.00  0.00    +0.080 A 
ATOM     29  C   LIG    1       -5.912  -7.483   0.864  0.00  0.00    +0.080 A 
ATOM     30  F   LIG    1       -5.277  -8.040   1.918  0.00  0.00    -0.120 F 
ATOM     31  F   LIG    1       -5.445  -9.400  -0.452  0.00  0.00    -0.120 F 
ATOM     32  C   LIG    1       -6.478  -6.227   0.981  0.00  0.00    +0.030 A 
ENDBRANCH  24  25
ENDBRANCH  21  24
ENDBRANCH   3  18
TORSDOF 5
