REMARK  Name = ZINCrD000000BBd6.0
REMARK                            x       y       z     vdW  Elec       q    Type
REMARK                         _______ _______ _______ _____ _____    ______ ____
ROOT
ATOM      1  C   LIG    1       -1.230   1.759   0.017  0.00  0.00    -0.110 A 
ATOM      2  C   LIG    1       -0.013   1.076   0.008  0.00  0.00    +0.100 A 
ATOM      3  C   LIG    1        1.172   1.783   0.000  0.00  0.00    +0.050 A 
ATOM      4  C   LIG    1        1.155   3.167   0.008  0.00  0.00    -0.100 A 
ATOM      5  C   LIG    1       -0.048   3.850   0.023  0.00  0.00    +0.030 A 
ATOM      6  C   LIG    1       -1.240   3.154   0.031  0.00  0.00    +0.040 A 
ENDROOT
BRANCH   1   8
ATOM      7  O   LIG    1       -2.491  -0.208   0.012  0.00  0.00    -0.510 OA
ATOM      8  C   LIG    1       -2.503   1.007   0.019  0.00  0.00    +0.570 C 
ATOM      9  N   LIG    1       -3.677   1.669   0.028  0.00  0.00    -0.600 N 
ATOM     10  H   LIG    1       -3.686   2.639   0.034  0.00  0.00    +0.410 HD
BRANCH   9  11
ATOM     11  O   LIG    1       -4.896   0.950   0.029  0.00  0.00    -0.130 OA
BRANCH  11  12
ATOM     12  C   LIG    1       -6.060   1.778   0.039  0.00  0.00    +0.210 C 
BRANCH  12  13
ATOM     13  C   LIG    1       -7.293   0.912   0.040  0.00  0.00    -0.100 A 
ATOM     14  C   LIG    1       -7.867   0.526  -1.157  0.00  0.00    +0.040 A 
ATOM     15  C   LIG    1       -8.996  -0.273  -1.157  0.00  0.00    +0.010 A 
ATOM     16  C   LIG    1       -9.556  -0.677   0.041  0.00  0.00    +0.020 A 
ATOM     17  C   LIG    1       -8.985  -0.287   1.238  0.00  0.00    +0.010 A 
ATOM     18  C   LIG    1       -7.853   0.507   1.237  0.00  0.00    +0.040 A 
ENDBRANCH  12  13
ENDBRANCH  11  12
ENDBRANCH   9  11
ENDBRANCH   1   8
BRANCH   4  19
ATOM     19  C   LIG    1        2.452   3.933  -0.001  0.00  0.00    +0.400 C 
BRANCH  19  20
ATOM     20  N   LIG    1        2.859   4.188  -1.385  0.00  0.00    -0.390 N 
ATOM     21  N   LIG    1        3.669   3.370  -2.187  0.00  0.00    -0.000 NA
ATOM     22  N   LIG    1        3.811   3.911  -3.345  0.00  0.00    -0.220 NA
ATOM     23  C   LIG    1        3.146   5.083  -3.399  0.00  0.00    -0.020 A 
ATOM     24  C   LIG    1        2.986   6.046  -4.403  0.00  0.00    +0.110 A 
ATOM     25  C   LIG    1        2.236   7.161  -4.164  0.00  0.00    +0.000 A 
ATOM     26  C   LIG    1        1.627   7.355  -2.931  0.00  0.00    +0.080 A 
ATOM     27  C   LIG    1        1.768   6.423  -1.928  0.00  0.00    +0.000 A 
ATOM     28  C   LIG    1        2.528   5.280  -2.152  0.00  0.00    +0.090 A 
ENDBRANCH  19  20
ENDBRANCH   4  19
TORSDOF 6
