REMARK  Name = ZINCpe000000WG2u.0
REMARK                            x       y       z     vdW  Elec       q    Type
REMARK                         _______ _______ _______ _____ _____    ______ ____
ROOT
ATOM      1  C   LIG    1        1.429  -1.968   3.016  0.00  0.00    -0.200 A 
ATOM      2  C   LIG    1        2.720  -1.440   2.929  0.00  0.00    +0.160 A 
ATOM      3  C   LIG    1        3.691  -1.849   3.814  0.00  0.00    -0.060 A 
ATOM      4  C   LIG    1        3.388  -2.788   4.796  0.00  0.00    +0.310 A 
ATOM      5  C   LIG    1        2.103  -3.316   4.886  0.00  0.00    -0.130 A 
ATOM      6  C   LIG    1        1.126  -2.906   4.007  0.00  0.00    +0.210 A 
ENDROOT
BRANCH   1  12
ATOM      7  N   LIG    1       -0.710   2.302   1.916  0.00  0.00    -1.000 NA
ATOM      8  C   LIG    1       -1.557   1.291   1.268  0.00  0.00    +0.290 C 
ATOM      9  C   LIG    1       -0.655   0.198   0.682  0.00  0.00    +0.290 C 
ATOM     10  N   LIG    1        0.295  -0.233   1.718  0.00  0.00    -0.610 N 
ATOM     11  C   LIG    1        1.142   0.778   2.366  0.00  0.00    +0.260 C 
ATOM     12  C   LIG    1        0.387  -1.531   2.068  0.00  0.00    +0.570 C 
ATOM     13  O   LIG    1       -0.390  -2.342   1.603  0.00  0.00    -0.520 OA
ATOM     14  C   LIG    1        0.240   1.872   2.952  0.00  0.00    +0.290 C 
BRANCH   7  16
ATOM     15  C   LIG    1       -2.085   4.577   2.598  0.00  0.00    -0.280 C 
ATOM     16  S   LIG    1       -0.823   3.897   1.486  0.00  0.00    +2.610 S 
ATOM     17  O   LIG    1       -1.300   3.866   0.148  0.00  0.00    -0.950 OA
ATOM     18  O   LIG    1        0.456   4.434   1.795  0.00  0.00    -0.950 OA
ENDBRANCH   7  16
ENDBRANCH   1  12
BRANCH   5  19
ATOM     19  N   LIG    1        1.785  -4.314   5.931  0.00  0.00    +0.050 N 
ATOM     20  O   LIG    1        2.671  -4.760   6.638  0.00  0.00    -0.200 OA
ATOM     21  O   LIG    1        0.636  -4.690   6.085  0.00  0.00    -0.140 OA
ENDBRANCH   5  19
BRANCH   4  22
ATOM     22  N   LIG    1        4.371  -3.199   5.690  0.00  0.00    -0.680 N 
ATOM     23  H   LIG    1        4.188  -3.919   6.314  0.00  0.00    +0.420 HD
BRANCH  22  24
ATOM     24  C   LIG    1        5.682  -2.546   5.689  0.00  0.00    +0.200 C 
ATOM     25  C   LIG    1        6.920  -3.445   5.666  0.00  0.00    +0.020 C 
ATOM     26  C   LIG    1        6.544  -2.690   6.944  0.00  0.00    +0.030 C 
ENDBRANCH  22  24
ENDBRANCH   4  22
TORSDOF 5
