REMARK  Name = ZINCqH0000000otE.0
REMARK                            x       y       z     vdW  Elec       q    Type
REMARK                         _______ _______ _______ _____ _____    ______ ____
ROOT
ATOM      1  C   LIG    1        3.736   2.656   2.426  0.00  0.00    +0.010 C 
ATOM      2  C   LIG    1        4.921   2.426   3.369  0.00  0.00    +0.030 C 
ATOM      3  C   LIG    1        5.835   3.653   3.339  0.00  0.00    +0.170 C 
ATOM      4  N   LIG    1        5.078   4.841   3.753  0.00  0.00    -0.530 NA
ATOM      5  C   LIG    1        3.964   5.109   2.835  0.00  0.00    +0.170 C 
ATOM      6  C   LIG    1        2.993   3.926   2.850  0.00  0.00    +0.020 C 
ENDROOT
BRANCH   1  15
ATOM      7  C   LIG    1        0.473   2.958  -0.113  0.00  0.00    +0.080 C 
ATOM      8  C   LIG    1        1.708   2.537   0.640  0.00  0.00    +0.510 C 
ATOM      9  N   LIG    1        1.599   1.739   1.721  0.00  0.00    -0.600 N 
ATOM     10  C   LIG    1        0.274   1.186   2.062  0.00  0.00    +0.260 C 
ATOM     11  C   LIG    1        0.352  -0.293   2.481  0.00  0.00    +0.020 C 
ATOM     12  C   LIG    1        1.325  -1.032   1.596  0.00  0.00    +0.000 C 
ATOM     13  C   LIG    1        2.710  -1.004   2.235  0.00  0.00    +0.000 C 
ATOM     14  C   LIG    1        3.493   0.204   1.932  0.00  0.00    +0.010 C 
ATOM     15  C   LIG    1        2.786   1.459   2.498  0.00  0.00    +0.240 C 
ATOM     16  O   LIG    1        2.800   2.916   0.274  0.00  0.00    -0.530 OA
ENDBRANCH   1  15
BRANCH   4  17
ATOM     17  C   LIG    1        5.958   6.012   3.869  0.00  0.00    +0.230 C 
BRANCH  17  18
ATOM     18  C   LIG    1        5.298   7.053   4.736  0.00  0.00    +0.000 A 
ATOM     19  C   LIG    1        4.750   8.181   4.165  0.00  0.00    -0.010 A 
ATOM     20  C   LIG    1        4.138   9.137   4.961  0.00  0.00    +0.130 A 
ATOM     21  C   LIG    1        4.081   8.969   6.336  0.00  0.00    +0.000 A 
ATOM     22  C   LIG    1        4.630   7.846   6.919  0.00  0.00    +0.100 A 
ATOM     23  F   LIG    1        3.599  10.239   4.396  0.00  0.00    -0.130 F 
ATOM     24  C   LIG    1        5.244   6.878   6.121  0.00  0.00    -0.020 A 
BRANCH  24  25
ATOM     25  C   LIG    1        5.816   5.710   6.721  0.00  0.00    +0.260 C 
ATOM     26  N   LIG    1        6.270   4.784   7.197  0.00  0.00    -0.410 NA
ENDBRANCH  24  25
ENDBRANCH  17  18
ENDBRANCH   4  17
TORSDOF 4
