REMARK  Name = ZINCpe00000MJJLK.0
REMARK                            x       y       z     vdW  Elec       q    Type
REMARK                         _______ _______ _______ _____ _____    ______ ____
ROOT
ATOM      1  N   LIG    1       -0.898   6.761  -5.928  0.00  0.00    -0.520 NA
ATOM      2  C   LIG    1       -1.797   5.912  -6.726  0.00  0.00    +0.240 C 
ATOM      3  C   LIG    1       -1.282   4.472  -6.676  0.00  0.00    +0.090 C 
ATOM      4  C   LIG    1       -1.038   4.064  -5.246  0.00  0.00    +0.050 A 
ATOM      5  N   LIG    1       -0.920   2.779  -4.958  0.00  0.00    -0.210 NA
ATOM      6  N   LIG    1       -0.702   2.359  -3.766  0.00  0.00    -0.280 NA
ATOM      7  C   LIG    1       -0.592   3.185  -2.737  0.00  0.00    +0.260 A 
ATOM      8  C   LIG    1       -0.706   4.560  -2.944  0.00  0.00    +0.020 A 
ATOM      9  C   LIG    1       -0.935   5.004  -4.238  0.00  0.00    -0.090 A 
ATOM     10  C   LIG    1       -1.066   6.478  -4.498  0.00  0.00    +0.290 C 
ENDROOT
BRANCH   7  11
ATOM     11  N   LIG    1       -0.360   2.687  -1.460  0.00  0.00    -0.460 N 
ATOM     12  C   LIG    1       -0.276   1.211  -1.474  0.00  0.00    +0.210 C 
ATOM     13  C   LIG    1        0.492   0.683  -0.343  0.00  0.00    +0.020 C 
ATOM     14  C   LIG    1       -0.156   1.066   1.005  0.00  0.00    +0.210 C 
ATOM     15  O   LIG    1        0.140   2.409   1.287  0.00  0.00    -0.380 OA
ATOM     16  C   LIG    1       -0.823   3.397   0.865  0.00  0.00    +0.230 C 
ATOM     17  C   LIG    1       -1.385   3.120  -0.540  0.00  0.00    +0.170 C 
ENDBRANCH   7  11
BRANCH   1  18
ATOM     18  C   LIG    1        0.500   6.580  -6.340  0.00  0.00    +0.290 C 
BRANCH  18  23
ATOM     19  N   LIG    1        1.590   8.882  -6.089  0.00  0.00    -0.270 N 
ATOM     20  N   LIG    1        2.374   9.454  -5.243  0.00  0.00    -0.080 NA
ATOM     21  N   LIG    1        2.678   8.637  -4.297  0.00  0.00    -0.270 NA
ATOM     22  C   LIG    1        2.065   7.469  -4.520  0.00  0.00    +0.130 A 
ATOM     23  C   LIG    1        1.361   7.617  -5.666  0.00  0.00    -0.010 A 
BRANCH  19  25
ATOM     24  C   LIG    1       -0.231  10.274  -6.943  0.00  0.00    +0.060 C 
ATOM     25  C   LIG    1        1.038   9.496  -7.299  0.00  0.00    +0.310 C 
ENDBRANCH  19  25
ENDBRANCH  18  23
ENDBRANCH   1  18
TORSDOF 4
