REMARK  Name = ZINCvU00000005of.0
REMARK                            x       y       z     vdW  Elec       q    Type
REMARK                         _______ _______ _______ _____ _____    ______ ____
ROOT
ATOM      1  O   LIG    1        2.600   6.347  -2.614  0.00  0.00    -0.510 OA
ATOM      2  C   LIG    1        3.718   6.082  -2.215  0.00  0.00    +0.590 C 
ATOM      3  N   LIG    1        3.999   6.159  -0.899  0.00  0.00    -0.600 N 
ATOM      4  C   LIG    1        3.041   6.507   0.166  0.00  0.00    +0.260 C 
ATOM      5  C   LIG    1        3.630   5.875   1.451  0.00  0.00    +0.040 C 
ATOM      6  C   LIG    1        5.151   6.089   1.236  0.00  0.00    +0.070 C 
ATOM      7  C   LIG    1        5.313   5.910  -0.288  0.00  0.00    +0.300 C 
ENDROOT
BRANCH   7   8
ATOM      8  C   LIG    1        6.320   6.899  -0.816  0.00  0.00    +0.070 A 
ATOM      9  N   LIG    1        6.024   8.065  -1.251  0.00  0.00    -0.440 NA
ATOM     10  C   LIG    1        7.028   8.845  -1.694  0.00  0.00    +0.080 A 
ATOM     11  C   LIG    1        6.987  10.152  -2.219  0.00  0.00    +0.070 A 
ATOM     12  C   LIG    1        8.134  10.772  -2.616  0.00  0.00    +0.030 A 
ATOM     13  C   LIG    1        9.359  10.129  -2.517  0.00  0.00    +0.040 A 
ATOM     14  C   LIG    1        9.429   8.853  -2.003  0.00  0.00    +0.060 A 
ATOM     15  C   LIG    1        8.268   8.204  -1.592  0.00  0.00    -0.170 A 
ATOM     16  S   LIG    1        7.998   6.604  -0.910  0.00  0.00    +0.100 S 
ENDBRANCH   7   8
BRANCH   2  17
ATOM     17  C   LIG    1        4.766   5.676  -3.171  0.00  0.00    -0.160 A 
ATOM     18  C   LIG    1        6.012   5.247  -2.708  0.00  0.00    +0.060 A 
ATOM     19  C   LIG    1        6.985   4.865  -3.606  0.00  0.00    -0.030 A 
ATOM     20  C   LIG    1        6.737   4.914  -4.968  0.00  0.00    +0.080 A 
ATOM     21  C   LIG    1        5.511   5.340  -5.439  0.00  0.00    -0.080 A 
ATOM     22  C   LIG    1        4.518   5.723  -4.550  0.00  0.00    +0.190 A 
BRANCH  22  23
ATOM     23  O   LIG    1        3.314   6.143  -5.012  0.00  0.00    -0.270 OA
BRANCH  23  24
ATOM     24  C   LIG    1        3.135   6.164  -6.430  0.00  0.00    +0.250 C 
BRANCH  24  25
ATOM     25  C   LIG    1        1.747   6.654  -6.753  0.00  0.00    -0.100 A 
ATOM     26  C   LIG    1        0.706   5.752  -6.873  0.00  0.00    +0.070 A 
ATOM     27  C   LIG    1       -0.568   6.200  -7.165  0.00  0.00    -0.020 A 
ATOM     28  C   LIG    1       -0.800   7.553  -7.348  0.00  0.00    +0.110 A 
ATOM     29  C   LIG    1        0.243   8.455  -7.232  0.00  0.00    -0.020 A 
ATOM     30  F   LIG    1       -2.045   7.992  -7.637  0.00  0.00    -0.140 F 
ATOM     31  C   LIG    1        1.516   8.005  -6.935  0.00  0.00    +0.070 A 
ENDBRANCH  24  25
ENDBRANCH  23  24
ENDBRANCH  22  23
ENDBRANCH   2  17
TORSDOF 5
