REMARK  Name = ZINC9p0000002o1j.0
REMARK                            x       y       z     vdW  Elec       q    Type
REMARK                         _______ _______ _______ _____ _____    ______ ____
ROOT
ATOM      1  C   LIG    1        2.178   0.019   1.231  0.00  0.00    +0.000 C 
ATOM      2  C   LIG    1        0.742  -0.511   1.242  0.00  0.00    +0.020 C 
ATOM      3  C   LIG    1        0.002  -0.004   0.002  0.00  0.00    +0.040 C 
ATOM      4  C   LIG    1       -0.019   1.526   0.010  0.00  0.00    +0.040 C 
ATOM      5  C   LIG    1        1.417   2.055  -0.000  0.00  0.00    +0.170 C 
ATOM      6  C   LIG    1        2.157   1.548   1.239  0.00  0.00    +0.040 C 
ENDROOT
BRANCH   5   7
ATOM      7  N   LIG    1        1.397   3.524   0.008  0.00  0.00    -0.640 N 
ATOM      8  H   LIG    1        0.909   3.858  -0.810  0.00  0.00    +0.440 HD
ATOM      9  H   LIG    1        2.343   3.873   0.001  0.00  0.00    +0.440 HD
ATOM     10  H   LIG    1        0.924   3.850   0.838  0.00  0.00    +0.430 HD
ENDBRANCH   5   7
BRANCH   1  12
ATOM     11  C   LIG    1        3.047  -2.011   2.400  0.00  0.00    +0.020 C 
ATOM     12  C   LIG    1        2.917  -0.488   2.470  0.00  0.00    +0.020 C 
ENDBRANCH   1  12
TORSDOF 2
