REMARK  Name = ZINCpe000000WSsJ.0
REMARK                            x       y       z     vdW  Elec       q    Type
REMARK                         _______ _______ _______ _____ _____    ______ ____
ROOT
ATOM      1  N   LIG    1        2.675   6.691   2.379  0.00  0.00    -0.720 N 
ATOM      2  H   LIG    1        2.583   7.478   1.819  0.00  0.00    +0.410 HD
ATOM      3  C   LIG    1        2.610   5.462   1.831  0.00  0.00    +0.500 C 
ATOM      4  O   LIG    1        2.724   4.479   2.531  0.00  0.00    -0.520 OA
ENDROOT
BRANCH   1   6
ATOM      5  C   LIG    1        1.537   6.749   4.543  0.00  0.00    +0.060 C 
ATOM      6  C   LIG    1        2.883   6.840   3.821  0.00  0.00    +0.340 C 
BRANCH   6   7
ATOM      7  C   LIG    1        3.514   8.179   4.103  0.00  0.00    +0.180 A 
ATOM      8  N   LIG    1        3.165   9.323   3.582  0.00  0.00    -0.270 NA
ATOM      9  N   LIG    1        3.916  10.258   4.047  0.00  0.00    -0.280 NA
ATOM     10  C   LIG    1        4.786   9.748   4.879  0.00  0.00    +0.160 A 
ATOM     11  C   LIG    1        5.944  10.112   5.784  0.00  0.00    +0.180 C 
ATOM     12  C   LIG    1        6.642   8.763   6.070  0.00  0.00    +0.070 C 
ATOM     13  C   LIG    1        5.487   7.759   5.861  0.00  0.00    +0.300 C 
ATOM     14  N   LIG    1        4.554   8.418   4.939  0.00  0.00    -0.490 N 
ENDBRANCH   6   7
ENDBRANCH   1   6
BRANCH   3  15
ATOM     15  C   LIG    1        2.396   5.309   0.347  0.00  0.00    +0.340 C 
BRANCH  15  16
ATOM     16  N   LIG    1        2.363   3.886   0.002  0.00  0.00    -0.530 N 
ATOM     17  C   LIG    1        3.499   3.233  -0.328  0.00  0.00    +0.490 C 
ATOM     18  C   LIG    1        3.440   1.778  -0.717  0.00  0.00    +0.310 C 
ATOM     19  O   LIG    1        2.370   1.137  -0.017  0.00  0.00    -0.300 OA
ATOM     20  C   LIG    1        1.175   1.785   0.000  0.00  0.00    +0.080 A 
ATOM     21  C   LIG    1       -0.013   1.076   0.008  0.00  0.00    +0.030 A 
ATOM     22  C   LIG    1       -1.219   1.753   0.017  0.00  0.00    +0.030 A 
ATOM     23  C   LIG    1       -1.243   3.135   0.031  0.00  0.00    +0.020 A 
ATOM     24  C   LIG    1       -0.059   3.851   0.024  0.00  0.00    +0.000 A 
ATOM     25  O   LIG    1        4.562   3.817  -0.311  0.00  0.00    -0.510 OA
ATOM     26  C   LIG    1        1.152   3.179   0.009  0.00  0.00    +0.100 A 
ENDBRANCH  15  16
ENDBRANCH   3  15
TORSDOF 4
