REMARK  Name = ZINCpe00000VVGnR.0
REMARK                            x       y       z     vdW  Elec       q    Type
REMARK                         _______ _______ _______ _____ _____    ______ ____
ROOT
ATOM      1  C   LIG    1        1.082   2.652   1.281  0.00  0.00    +0.300 C 
ENDROOT
BRANCH   1   2
ATOM      2  N   LIG    1       -0.146   3.451   1.268  0.00  0.00    -0.730 N 
ATOM      3  H   LIG    1       -0.708   3.465   0.477  0.00  0.00    +0.400 HD
ATOM      4  C   LIG    1       -0.495   4.168   2.355  0.00  0.00    +0.520 C 
ATOM      5  O   LIG    1        0.207   4.152   3.343  0.00  0.00    -0.530 OA
BRANCH   4   6
ATOM      6  C   LIG    1       -1.758   4.990   2.341  0.00  0.00    +0.040 C 
BRANCH   6   7
ATOM      7  C   LIG    1       -1.919   5.700   3.687  0.00  0.00    +0.310 C 
BRANCH   7   8
ATOM      8  N   LIG    1       -3.147   6.500   3.673  0.00  0.00    -0.700 N 
ATOM      9  H   LIG    1       -3.708   6.513   2.883  0.00  0.00    +0.410 HD
BRANCH   8  10
ATOM     10  C   LIG    1       -3.505   7.236   4.789  0.00  0.00    +0.560 A 
ATOM     11  N   LIG    1       -2.729   7.202   5.863  0.00  0.00    -0.570 NA
ATOM     12  C   LIG    1       -3.040   7.899   6.944  0.00  0.00    +0.360 A 
ATOM     13  C   LIG    1       -4.199   8.660   6.947  0.00  0.00    -0.150 A 
ATOM     14  C   LIG    1       -4.990   8.668   5.809  0.00  0.00    +0.360 A 
ATOM     15  N   LIG    1       -4.619   7.953   4.760  0.00  0.00    -0.570 NA
ENDBRANCH   8  10
ENDBRANCH   7   8
ENDBRANCH   6   7
ENDBRANCH   4   6
ENDBRANCH   1   2
BRANCH   1  16
ATOM     16  C   LIG    1        1.224   1.913  -0.051  0.00  0.00    -0.010 C 
BRANCH  16  20
ATOM     17  N   LIG    1        2.258  -0.326  -0.235  0.00  0.00    -0.850 N 
ATOM     18  H   LIG    1        1.396  -0.668  -0.518  0.00  0.00    +0.400 HD
ATOM     19  H   LIG    1        3.009  -0.931  -0.128  0.00  0.00    +0.400 HD
ATOM     20  C   LIG    1        2.413   0.990   0.011  0.00  0.00    +0.530 C 
ATOM     21  O   LIG    1        3.511   1.432   0.277  0.00  0.00    -0.530 OA
ENDBRANCH  16  20
BRANCH  16  22
ATOM     22  C   LIG    1        1.424   2.929  -1.178  0.00  0.00    +0.110 C 
BRANCH  22  23
ATOM     23  C   LIG    1        1.441   2.211  -2.503  0.00  0.00    -0.110 A 
ATOM     24  C   LIG    1        2.636   1.751  -3.024  0.00  0.00    +0.050 A 
ATOM     25  C   LIG    1        2.652   1.088  -4.237  0.00  0.00    -0.010 A 
ATOM     26  C   LIG    1        1.473   0.895  -4.935  0.00  0.00    +0.100 A 
ATOM     27  C   LIG    1        0.277   1.360  -4.415  0.00  0.00    -0.010 A 
ATOM     28  F   LIG    1        1.488   0.252  -6.123  0.00  0.00    -0.140 F 
ATOM     29  C   LIG    1        0.263   2.018  -3.199  0.00  0.00    +0.040 A 
ENDBRANCH  22  23
ENDBRANCH  16  22
ENDBRANCH   1  16
TORSDOF 9
