REMARK  Name = ZINCrH000004tTDc.0
REMARK                            x       y       z     vdW  Elec       q    Type
REMARK                         _______ _______ _______ _____ _____    ______ ____
ROOT
ATOM      1  O   LIG    1       -1.552   2.529  -1.121  0.00  0.00    -0.510 OA
ATOM      2  C   LIG    1       -0.651   1.724  -1.226  0.00  0.00    +0.520 C 
ATOM      3  N   LIG    1       -0.288   1.272  -2.443  0.00  0.00    -0.670 N 
ATOM      4  H   LIG    1        0.480   0.688  -2.535  0.00  0.00    +0.410 HD
ENDROOT
BRANCH   3   5
ATOM      5  C   LIG    1       -1.022   1.646  -3.575  0.00  0.00    +0.150 A 
ATOM      6  C   LIG    1       -0.381   1.812  -4.795  0.00  0.00    +0.000 A 
ATOM      7  C   LIG    1       -1.107   2.182  -5.910  0.00  0.00    +0.040 A 
ATOM      8  C   LIG    1       -2.471   2.386  -5.812  0.00  0.00    +0.020 A 
ATOM      9  C   LIG    1       -3.112   2.222  -4.598  0.00  0.00    -0.120 A 
ATOM     10  C   LIG    1       -2.393   1.847  -3.481  0.00  0.00    +0.050 A 
BRANCH   9  11
ATOM     11  C   LIG    1       -4.599   2.445  -4.496  0.00  0.00    +0.270 C 
BRANCH  11  12
ATOM     12  C   LIG    1       -5.336   1.164  -4.892  0.00  0.00    +0.420 C 
ATOM     13  F   LIG    1       -5.005   0.824  -6.208  0.00  0.00    -0.180 F 
ATOM     14  F   LIG    1       -6.716   1.371  -4.797  0.00  0.00    -0.170 F 
ATOM     15  F   LIG    1       -4.960   0.126  -4.033  0.00  0.00    -0.170 F 
ENDBRANCH  11  12
BRANCH  11  16
ATOM     16  O   LIG    1       -4.983   3.506  -5.373  0.00  0.00    -0.520 OA
ATOM     17  H   LIG    1       -4.783   3.338  -6.304  0.00  0.00    +0.390 HD
ENDBRANCH  11  16
ENDBRANCH   9  11
ENDBRANCH   3   5
BRANCH   2  18
ATOM     18  C   LIG    1        0.064   1.228   0.005  0.00  0.00    +0.070 C 
BRANCH  18  19
ATOM     19  C   LIG    1       -0.537   1.892   1.246  0.00  0.00    +0.090 C 
ATOM     20  C   LIG    1       -1.989   1.442   1.412  0.00  0.00    +0.090 C 
ATOM     21  C   LIG    1       -2.033   0.003   1.848  0.00  0.00    +0.520 C 
ATOM     22  N   LIG    1       -1.095  -0.495   2.676  0.00  0.00    -0.670 N 
ATOM     23  H   LIG    1       -1.145  -1.421   2.958  0.00  0.00    +0.410 HD
ATOM     24  C   LIG    1       -0.052   0.316   3.133  0.00  0.00    +0.160 A 
ATOM     25  C   LIG    1        0.679  -0.053   4.254  0.00  0.00    -0.020 A 
ATOM     26  C   LIG    1        1.710   0.752   4.699  0.00  0.00    +0.050 A 
ATOM     27  C   LIG    1        2.014   1.923   4.029  0.00  0.00    -0.010 A 
ATOM     28  C   LIG    1        1.287   2.293   2.912  0.00  0.00    +0.050 A 
ATOM     29  O   LIG    1       -2.923  -0.718   1.450  0.00  0.00    -0.520 OA
ATOM     30  C   LIG    1        0.256   1.493   2.462  0.00  0.00    -0.120 A 
ENDBRANCH  18  19
ENDBRANCH   2  18
TORSDOF 6
