REMARK  Name = ZINCvU0000000BQs.0
REMARK                            x       y       z     vdW  Elec       q    Type
REMARK                         _______ _______ _______ _____ _____    ______ ____
ROOT
ATOM      1  N   LIG    1       -4.728   0.962  -0.372  0.00  0.00    -0.680 N 
ATOM      2  H   LIG    1       -4.784   0.124   0.113  0.00  0.00    +0.410 HD
ATOM      3  C   LIG    1       -3.548   1.605  -0.473  0.00  0.00    +0.700 C 
ATOM      4  N   LIG    1       -2.428   1.039   0.019  0.00  0.00    -0.680 N 
ATOM      5  H   LIG    1       -2.457   0.138   0.378  0.00  0.00    +0.410 HD
ATOM      6  O   LIG    1       -3.493   2.696  -1.007  0.00  0.00    -0.550 OA
ENDROOT
BRANCH   1  10
ATOM      7  C   LIG    1       -8.136   2.575  -2.144  0.00  0.00    -0.670 A 
ATOM      8  C   LIG    1       -7.958   1.204  -2.112  0.00  0.00    +0.150 A 
ATOM      9  C   LIG    1       -6.830   0.666  -1.525  0.00  0.00    -0.030 A 
ATOM     10  C   LIG    1       -5.873   1.504  -0.968  0.00  0.00    +0.220 A 
ATOM     11  C   LIG    1       -6.057   2.880  -0.997  0.00  0.00    +0.010 A 
ATOM     12  C   LIG    1       -7.185   3.411  -1.590  0.00  0.00    +0.150 A 
BRANCH   7  13
ATOM     13  S   LIG    1       -9.578   3.256  -2.894  0.00  0.00    +2.490 S 
ATOM     14  O   LIG    1       -9.975   2.277  -3.845  0.00  0.00    -0.940 OA
ATOM     15  O   LIG    1       -9.177   4.556  -3.305  0.00  0.00    -0.930 OA
BRANCH  13  17
ATOM     16  C   LIG    1      -10.236   4.262  -0.437  0.00  0.00    +0.080 C 
ATOM     17  C   LIG    1      -10.785   3.360  -1.544  0.00  0.00    -0.430 C 
ATOM     18  C   LIG    1      -12.095   3.944  -2.075  0.00  0.00    +0.090 C 
ENDBRANCH  13  17
ENDBRANCH   7  13
ENDBRANCH   1  10
BRANCH   4  19
ATOM     19  C   LIG    1       -1.223   1.751   0.011  0.00  0.00    +0.160 A 
ATOM     20  C   LIG    1       -1.228   3.128   0.184  0.00  0.00    +0.030 A 
ATOM     21  C   LIG    1       -0.037   3.829   0.170  0.00  0.00    +0.030 A 
ATOM     22  C   LIG    1        1.159   3.158  -0.009  0.00  0.00    +0.020 A 
ATOM     23  C   LIG    1        1.167   1.786  -0.175  0.00  0.00    -0.070 A 
ATOM     24  C   LIG    1       -0.019   1.080  -0.163  0.00  0.00    +0.010 A 
BRANCH  23  25
ATOM     25  C   LIG    1        2.473   1.059  -0.370  0.00  0.00    +0.220 C 
BRANCH  25  26
ATOM     26  O   LIG    1        2.777   0.989  -1.764  0.00  0.00    -0.370 OA
BRANCH  26  27
ATOM     27  C   LIG    1        4.002   0.316  -2.060  0.00  0.00    +0.150 C 
ATOM     28  C   LIG    1        3.729  -1.176  -2.257  0.00  0.00    -0.010 C 
ATOM     29  C   LIG    1        5.041  -1.897  -2.574  0.00  0.00    +0.010 C 
ATOM     30  C   LIG    1        5.647  -1.316  -3.853  0.00  0.00    +0.000 C 
ATOM     31  C   LIG    1        5.920   0.176  -3.655  0.00  0.00    -0.020 C 
ATOM     32  C   LIG    1        6.526   0.758  -4.934  0.00  0.00    +0.030 C 
ATOM     33  C   LIG    1        4.608   0.897  -3.339  0.00  0.00    +0.030 C 
ENDBRANCH  26  27
ENDBRANCH  25  26
ENDBRANCH  23  25
ENDBRANCH   4  19
TORSDOF 7
