REMARK  Name = ZINCrD00000F5Lp1.0
REMARK                            x       y       z     vdW  Elec       q    Type
REMARK                         _______ _______ _______ _____ _____    ______ ____
ROOT
ATOM      1  C   LIG    1       -4.744   3.401   5.986  0.00  0.00    +0.550 C 
ATOM      2  N   LIG    1       -6.072   3.623   5.953  0.00  0.00    -0.600 N 
ATOM      3  O   LIG    1       -4.183   2.920   5.020  0.00  0.00    -0.530 OA
ENDROOT
BRANCH   2   4
ATOM      4  C   LIG    1       -6.826   3.373   4.722  0.00  0.00    +0.270 C 
ATOM      5  C   LIG    1       -6.780   1.872   4.383  0.00  0.00    +0.070 C 
ATOM      6  C   LIG    1       -7.296   1.730   2.928  0.00  0.00    -0.310 C 
ATOM      7  S   LIG    1       -6.475   3.128   2.075  0.00  0.00    +2.400 S 
ATOM      8  O   LIG    1       -7.409   3.771   1.218  0.00  0.00    -0.940 OA
ATOM      9  O   LIG    1       -5.223   2.696   1.559  0.00  0.00    -0.920 OA
ATOM     10  C   LIG    1       -6.193   4.159   3.557  0.00  0.00    -0.320 C 
ENDBRANCH   2   4
BRANCH   1  12
ATOM     11  C   LIG    1       -2.632   3.621   7.181  0.00  0.00    +0.140 C 
ATOM     12  C   LIG    1       -3.975   3.739   7.186  0.00  0.00    -0.100 C 
BRANCH  11  17
ATOM     13  C   LIG    1        0.349   4.523  12.014  0.00  0.00    +0.090 C 
ATOM     14  C   LIG    1       -0.432   4.287  10.747  0.00  0.00    -0.070 A 
ATOM     15  C   LIG    1       -1.799   4.505  10.730  0.00  0.00    +0.010 A 
ATOM     16  C   LIG    1       -2.520   4.296   9.574  0.00  0.00    +0.020 A 
ATOM     17  C   LIG    1       -1.869   3.853   8.418  0.00  0.00    -0.090 A 
ATOM     18  C   LIG    1       -0.488   3.629   8.445  0.00  0.00    +0.040 A 
ATOM     19  C   LIG    1        0.220   3.848   9.608  0.00  0.00    +0.010 A 
ENDBRANCH  11  17
ENDBRANCH   1  12
BRANCH   2  20
ATOM     20  C   LIG    1       -6.763   4.115   7.147  0.00  0.00    +0.350 C 
BRANCH  20  21
ATOM     21  C   LIG    1       -6.766   5.622   7.141  0.00  0.00    -0.090 A 
ATOM     22  C   LIG    1       -5.733   6.318   7.741  0.00  0.00    +0.010 A 
ATOM     23  C   LIG    1       -5.731   7.700   7.732  0.00  0.00    +0.050 A 
ATOM     24  C   LIG    1       -6.768   8.389   7.131  0.00  0.00    -0.010 A 
ATOM     25  C   LIG    1       -7.806   7.693   6.535  0.00  0.00    +0.100 A 
ATOM     26  F   LIG    1       -8.821   8.365   5.947  0.00  0.00    -0.140 F 
ATOM     27  C   LIG    1       -7.804   6.309   6.540  0.00  0.00    +0.000 A 
ENDBRANCH  20  21
ENDBRANCH   2  20
TORSDOF 5
