REMARK  Name = ZINCqH0000006qlg.0
REMARK                            x       y       z     vdW  Elec       q    Type
REMARK                         _______ _______ _______ _____ _____    ______ ____
ROOT
ATOM      1  C   LIG    1        2.687   5.379   0.004  0.00  0.00    -0.280 A 
ATOM      2  C   LIG    1        2.220   6.678   0.010  0.00  0.00    +0.350 A 
ATOM      3  N   LIG    1        3.292   7.491   0.010  0.00  0.00    -0.310 N 
ATOM      4  N   LIG    1        4.447   6.700  -0.006  0.00  0.00    -0.280 NA
ATOM      5  C   LIG    1        4.098   5.443  -0.010  0.00  0.00    +0.300 A 
ENDROOT
BRANCH   3   6
ATOM      6  C   LIG    1        3.259   8.892   0.017  0.00  0.00    +0.180 A 
ATOM      7  C   LIG    1        2.041   9.559   0.027  0.00  0.00    +0.010 A 
ATOM      8  C   LIG    1        2.011  10.939   0.040  0.00  0.00    +0.110 A 
ATOM      9  C   LIG    1        3.193  11.658   0.032  0.00  0.00    -0.190 A 
ATOM     10  C   LIG    1        4.407  10.997   0.016  0.00  0.00    +0.110 A 
ATOM     11  C   LIG    1        4.443   9.616   0.009  0.00  0.00    +0.040 A 
BRANCH   9  12
ATOM     12  C   LIG    1        3.157  13.164   0.040  0.00  0.00    +0.510 C 
ATOM     13  F   LIG    1        4.294  13.654   0.691  0.00  0.00    -0.170 F 
ATOM     14  F   LIG    1        2.010  13.600   0.714  0.00  0.00    -0.170 F 
ATOM     15  F   LIG    1        3.132  13.638  -1.276  0.00  0.00    -0.170 F 
ENDBRANCH   9  12
ENDBRANCH   3   6
BRANCH   1  18
ATOM     16  N   LIG    1        2.461   2.945  -0.006  0.00  0.00    -0.620 N 
ATOM     17  H   LIG    1        3.429   2.880  -0.016  0.00  0.00    +0.420 HD
ATOM     18  C   LIG    1        1.866   4.154   0.006  0.00  0.00    +0.600 C 
ATOM     19  O   LIG    1        0.653   4.236   0.019  0.00  0.00    -0.510 OA
BRANCH  16  23
ATOM     20  C   LIG    1        1.276  -0.401  -0.012  0.00  0.00    +0.080 A 
ATOM     21  C   LIG    1        0.002  -0.004   0.002  0.00  0.00    -0.100 A 
ATOM     22  S   LIG    1       -0.022   1.758   0.012  0.00  0.00    +0.250 S 
ATOM     23  C   LIG    1        1.688   1.791  -0.004  0.00  0.00    +0.240 A 
ATOM     24  N   LIG    1        2.157   0.583  -0.015  0.00  0.00    -0.510 NA
BRANCH  20  25
ATOM     25  C   LIG    1        1.677  -1.853  -0.023  0.00  0.00    +0.280 C 
BRANCH  25  27
ATOM     26  C   LIG    1        0.775  -4.074  -0.025  0.00  0.00    +0.200 C 
ATOM     27  O   LIG    1        0.505  -2.671  -0.016  0.00  0.00    -0.390 OA
ENDBRANCH  25  27
ENDBRANCH  20  25
ENDBRANCH  16  23
ENDBRANCH   1  18
TORSDOF 6
