REMARK  Name = ZINCpk000005iFes.0
REMARK                            x       y       z     vdW  Elec       q    Type
REMARK                         _______ _______ _______ _____ _____    ______ ____
ROOT
ATOM      1  N   LIG    1       -0.994   3.058  -1.072  0.00  0.00    -0.520 NA
ATOM      2  C   LIG    1       -2.039   3.282  -2.074  0.00  0.00    +0.260 C 
ATOM      3  C   LIG    1       -1.570   2.845  -3.437  0.00  0.00    -0.080 A 
ATOM      4  C   LIG    1       -2.259   3.303  -4.551  0.00  0.00    +0.000 A 
ATOM      5  C   LIG    1       -1.868   2.921  -5.819  0.00  0.00    +0.000 A 
ATOM      6  C   LIG    1       -0.785   2.078  -5.981  0.00  0.00    +0.000 A 
ATOM      7  C   LIG    1       -0.098   1.622  -4.873  0.00  0.00    +0.000 A 
ATOM      8  C   LIG    1       -0.488   2.006  -3.599  0.00  0.00    -0.070 A 
ATOM      9  C   LIG    1        0.295   1.488  -2.421  0.00  0.00    +0.090 C 
ATOM     10  C   LIG    1       -0.515   1.669  -1.136  0.00  0.00    +0.140 C 
ENDROOT
BRANCH   1  11
ATOM     11  C   LIG    1       -1.473   3.388   0.277  0.00  0.00    +0.190 C 
BRANCH  11  12
ATOM     12  C   LIG    1       -1.575   4.908   0.424  0.00  0.00    +0.180 C 
BRANCH  12  14
ATOM     13  C   LIG    1       -2.751   6.824  -0.406  0.00  0.00    +0.200 C 
ATOM     14  O   LIG    1       -2.575   5.407  -0.466  0.00  0.00    -0.390 OA
ENDBRANCH  12  14
ENDBRANCH  11  12
ENDBRANCH   1  11
BRANCH  10  15
ATOM     15  C   LIG    1        0.372   1.374   0.076  0.00  0.00    +0.270 C 
BRANCH  15  16
ATOM     16  N   LIG    1        1.426   2.387   0.167  0.00  0.00    -0.720 N 
ATOM     17  H   LIG    1        1.440   3.130  -0.456  0.00  0.00    +0.410 HD
ATOM     18  C   LIG    1        2.377   2.285   1.117  0.00  0.00    +0.520 C 
ATOM     19  O   LIG    1        2.360   1.356   1.896  0.00  0.00    -0.540 OA
BRANCH  18  20
ATOM     20  C   LIG    1        3.462   3.327   1.211  0.00  0.00    +0.060 C 
BRANCH  20  21
ATOM     21  C   LIG    1        4.405   2.979   2.364  0.00  0.00    +0.340 C 
BRANCH  21  22
ATOM     22  N   LIG    1        5.460   3.992   2.455  0.00  0.00    -0.380 N 
ATOM     23  C   LIG    1        5.774   4.715   3.551  0.00  0.00    +0.220 A 
ATOM     24  C   LIG    1        6.799   5.535   3.224  0.00  0.00    -0.120 A 
ATOM     25  C   LIG    1        7.123   5.305   1.883  0.00  0.00    +0.230 A 
ATOM     26  N   LIG    1        6.325   4.376   1.423  0.00  0.00    -0.300 NA
ENDBRANCH  21  22
ENDBRANCH  20  21
ENDBRANCH  18  20
ENDBRANCH  15  16
ENDBRANCH  10  15
TORSDOF 8
