REMARK  Name = ZINCkj00000GeSUF.0
REMARK                            x       y       z     vdW  Elec       q    Type
REMARK                         _______ _______ _______ _____ _____    ______ ____
ROOT
ATOM      1  S   LIG    1       -0.451   1.888  -5.181  0.00  0.00    +2.710 S 
ATOM      2  O   LIG    1       -1.372   2.828  -5.717  0.00  0.00    -0.920 OA
ATOM      3  O   LIG    1       -0.572   0.485  -5.373  0.00  0.00    -0.930 OA
ENDROOT
BRANCH   1   4
ATOM      4  C   LIG    1        1.137   2.340  -5.796  0.00  0.00    -0.710 A 
ATOM      5  C   LIG    1        1.958   1.381  -6.357  0.00  0.00    +0.210 A 
ATOM      6  C   LIG    1        3.205   1.733  -6.841  0.00  0.00    +0.020 A 
ATOM      7  C   LIG    1        3.631   3.048  -6.765  0.00  0.00    +0.160 A 
ATOM      8  C   LIG    1        2.808   4.011  -6.203  0.00  0.00    +0.020 A 
ATOM      9  F   LIG    1        3.223   5.295  -6.128  0.00  0.00    -0.110 F 
ATOM     10  F   LIG    1        4.849   3.391  -7.238  0.00  0.00    -0.100 F 
ATOM     11  C   LIG    1        1.558   3.657  -5.723  0.00  0.00    +0.190 A 
ATOM     12  F   LIG    1        0.752   4.595  -5.179  0.00  0.00    -0.100 F 
ENDBRANCH   1   4
BRANCH   1  16
ATOM     13  C   LIG    1       -0.753   1.593  -1.232  0.00  0.00    -0.010 C 
ATOM     14  C   LIG    1       -0.656   3.137  -1.344  0.00  0.00    +0.040 C 
ATOM     15  C   LIG    1       -0.804   3.383  -2.861  0.00  0.00    +0.280 C 
ATOM     16  N   LIG    1       -0.431   2.135  -3.543  0.00  0.00    -1.010 NA
ATOM     17  C   LIG    1       -0.037   1.141  -2.529  0.00  0.00    +0.310 C 
BRANCH  13  18
ATOM     18  C   LIG    1       -0.013   1.086   0.008  0.00  0.00    +0.280 C 
BRANCH  18  20
ATOM     19  C   LIG    1        0.010   1.073   2.407  0.00  0.00    +0.330 C 
ATOM     20  N   LIG    1       -0.700   1.560   1.217  0.00  0.00    -0.510 N 
ATOM     21  H   LIG    1       -1.647   1.210   1.224  0.00  0.00    +0.430 HD
ATOM     22  H   LIG    1       -0.714   2.568   1.222  0.00  0.00    +0.430 HD
ENDBRANCH  18  20
ENDBRANCH  13  18
ENDBRANCH   1  16
TORSDOF 4
