REMARK  Name = ZINCqH0000005S16.0
REMARK                            x       y       z     vdW  Elec       q    Type
REMARK                         _______ _______ _______ _____ _____    ______ ____
ROOT
ATOM      1  N   LIG    1       -1.191   1.867   0.018  0.00  0.00    -0.680 N 
ATOM      2  H   LIG    1       -1.196   2.836  -0.024  0.00  0.00    +0.420 HD
ATOM      3  C   LIG    1       -0.027   1.205   0.176  0.00  0.00    +0.510 C 
ATOM      4  O   LIG    1       -0.029   0.002   0.325  0.00  0.00    -0.510 OA
ENDROOT
BRANCH   1   7
ATOM      5  C   LIG    1       -3.609  -0.794  -0.800  0.00  0.00    -0.100 A 
ATOM      6  C   LIG    1       -2.410  -0.086  -0.703  0.00  0.00    +0.110 A 
ATOM      7  C   LIG    1       -2.392   1.155  -0.086  0.00  0.00    +0.140 A 
ATOM      8  C   LIG    1       -3.566   1.696   0.424  0.00  0.00    +0.040 A 
ATOM      9  C   LIG    1       -4.755   0.998   0.324  0.00  0.00    +0.050 A 
ATOM     10  C   LIG    1       -4.785  -0.241  -0.284  0.00  0.00    +0.000 A 
ATOM     11 CL   LIG    1       -6.281  -1.113  -0.407  0.00  0.00    -0.030 Cl
BRANCH   5  12
ATOM     12  C   LIG    1       -3.636  -2.119  -1.452  0.00  0.00    +0.500 C 
ATOM     13  O   LIG    1       -4.682  -2.731  -1.540  0.00  0.00    -0.480 OA
BRANCH  12  15
ATOM     14  C   LIG    1       -2.603  -3.954  -2.575  0.00  0.00    +0.270 C 
ATOM     15  O   LIG    1       -2.502  -2.649  -1.948  0.00  0.00    -0.350 OA
ENDBRANCH  12  15
ENDBRANCH   5  12
ENDBRANCH   1   7
BRANCH   3  16
ATOM     16  C   LIG    1        1.277   1.961   0.163  0.00  0.00    +0.070 C 
BRANCH  16  17
ATOM     17  C   LIG    1        2.436   0.981   0.354  0.00  0.00    +0.110 C 
BRANCH  17  18
ATOM     18  C   LIG    1        3.740   1.737   0.341  0.00  0.00    -0.080 A 
ATOM     19  C   LIG    1        4.464   1.843  -0.831  0.00  0.00    +0.030 A 
ATOM     20  C   LIG    1        5.662   2.542  -0.844  0.00  0.00    +0.090 A 
ATOM     21  C   LIG    1        6.138   3.126   0.321  0.00  0.00    -0.040 A 
ATOM     22  C   LIG    1        5.416   3.015   1.493  0.00  0.00    -0.040 A 
ATOM     23  C   LIG    1        4.216   2.320   1.506  0.00  0.00    +0.100 A 
BRANCH  20  24
ATOM     24  O   LIG    1        6.373   2.652  -1.998  0.00  0.00    -0.320 OA
ATOM     25  C   LIG    1        7.600   3.381  -1.938  0.00  0.00    +0.230 C 
ENDBRANCH  20  24
BRANCH  23  26
ATOM     26  O   LIG    1        3.505   2.211   2.660  0.00  0.00    -0.310 OA
ATOM     27  C   LIG    1        4.054   2.837   3.821  0.00  0.00    +0.230 C 
ENDBRANCH  23  26
ENDBRANCH  17  18
ENDBRANCH  16  17
ENDBRANCH   3  16
TORSDOF 8
