REMARK  Name = ZINCkj000005g8KJ.0
REMARK                            x       y       z     vdW  Elec       q    Type
REMARK                         _______ _______ _______ _____ _____    ______ ____
ROOT
ATOM      1  C   LIG    1       -1.089   3.626   0.110  0.00  0.00    +0.000 C 
ATOM      2  C   LIG    1       -0.521   4.127   1.441  0.00  0.00    +0.080 C 
ATOM      3  C   LIG    1       -0.605   5.654   1.483  0.00  0.00    +0.270 C 
ATOM      4  N   LIG    1       -2.006   6.074   1.359  0.00  0.00    -0.380 N 
ATOM      5  C   LIG    1       -2.536   5.660   0.054  0.00  0.00    +0.260 C 
ATOM      6  H   LIG    1       -2.551   5.647   2.093  0.00  0.00    +0.420 HD
ATOM      7  C   LIG    1       -2.526   4.133  -0.043  0.00  0.00    +0.090 C 
ENDROOT
BRANCH   4   8
ATOM      8  C   LIG    1       -2.090   7.535   1.478  0.00  0.00    +0.160 C 
ATOM      9  C   LIG    1       -1.241   8.205   0.378  0.00  0.00    +0.040 C 
ATOM     10  C   LIG    1       -0.627   9.445   1.074  0.00  0.00    +0.050 C 
ATOM     11  C   LIG    1       -0.314   8.918   2.496  0.00  0.00    +0.040 C 
ATOM     12  C   LIG    1       -1.501   7.989   2.825  0.00  0.00    +0.040 C 
ENDBRANCH   4   8
BRANCH   1  15
ATOM     13  N   LIG    1        0.082   1.450   0.214  0.00  0.00    -0.720 N 
ATOM     14  H   LIG    1        0.915   1.938   0.307  0.00  0.00    +0.410 HD
ATOM     15  C   LIG    1       -1.081   2.119   0.093  0.00  0.00    +0.520 C 
ATOM     16  O   LIG    1       -2.122   1.509  -0.029  0.00  0.00    -0.520 OA
BRANCH  13  17
ATOM     17  C   LIG    1        0.090  -0.015   0.198  0.00  0.00    +0.360 C 
BRANCH  17  18
ATOM     18  C   LIG    1        1.505  -0.512   0.341  0.00  0.00    +0.460 C 
ATOM     19  O   LIG    1        2.414   0.277   0.446  0.00  0.00    -0.510 OA
BRANCH  18  20
ATOM     20  O   LIG    1        1.756  -1.830   0.352  0.00  0.00    -0.350 OA
BRANCH  20  22
ATOM     21  C   LIG    1        3.230  -3.764   0.486  0.00  0.00    +0.070 C 
ATOM     22  C   LIG    1        3.143  -2.236   0.494  0.00  0.00    +0.210 C 
ENDBRANCH  20  22
ENDBRANCH  18  20
ENDBRANCH  17  18
ENDBRANCH  13  17
ENDBRANCH   1  15
TORSDOF 6
