REMARK  Name = ZINCpe000000Yrry.0
REMARK                            x       y       z     vdW  Elec       q    Type
REMARK                         _______ _______ _______ _____ _____    ______ ____
ROOT
ATOM      1  N   LIG    1        4.137  -0.427   0.754  0.00  0.00    -0.710 N 
ATOM      2  H   LIG    1        3.593  -1.222   0.872  0.00  0.00    +0.410 HD
ATOM      3  C   LIG    1        5.363  -0.362   1.310  0.00  0.00    +0.570 C 
ATOM      4  O   LIG    1        6.045   0.633   1.162  0.00  0.00    -0.530 OA
ENDROOT
BRANCH   3   5
ATOM      5  C   LIG    1        5.878  -1.502   2.099  0.00  0.00    -0.080 A 
ATOM      6  C   LIG    1        5.097  -2.645   2.269  0.00  0.00    -0.010 A 
ATOM      7  C   LIG    1        5.582  -3.709   3.007  0.00  0.00    +0.130 A 
ATOM      8  C   LIG    1        6.841  -3.644   3.578  0.00  0.00    -0.030 A 
ATOM      9  C   LIG    1        7.625  -2.508   3.413  0.00  0.00    +0.130 A 
ATOM     10  F   LIG    1        4.824  -4.816   3.172  0.00  0.00    -0.130 F 
ATOM     11  C   LIG    1        7.149  -1.439   2.670  0.00  0.00    +0.060 A 
BRANCH   9  12
ATOM     12  N   LIG    1        8.896  -2.447   3.991  0.00  0.00    -0.480 N 
ATOM     13  C   LIG    1        9.924  -2.177   2.975  0.00  0.00    +0.180 C 
ATOM     14  C   LIG    1       11.289  -2.059   3.658  0.00  0.00    +0.230 C 
ATOM     15  O   LIG    1       11.555  -3.257   4.391  0.00  0.00    -0.380 OA
ATOM     16  C   LIG    1       10.573  -3.551   5.389  0.00  0.00    +0.230 C 
ATOM     17  C   LIG    1        9.201  -3.684   4.724  0.00  0.00    +0.170 C 
ENDBRANCH   9  12
ENDBRANCH   3   5
BRANCH   1  18
ATOM     18  CA  LIG    1        3.626   0.702  -0.028  0.00  0.00    +0.330 C 
BRANCH  18  24
ATOM     19  C   LIG    1        1.739   3.160   0.002  0.00  0.00    +0.350 C 
ATOM     20  N   LIG    1        1.309   1.760  -0.001  0.00  0.00    -0.370 N 
ATOM     21  N   LIG    1       -0.016   1.304   0.009  0.00  0.00    -0.290 NA
ATOM     22  C   LIG    1        0.002  -0.004   0.002  0.00  0.00    +0.240 A 
ATOM     23  C   LIG    1        1.337  -0.423  -0.013  0.00  0.00    -0.090 A 
ATOM     24  C   LIG    1        2.119   0.681  -0.015  0.00  0.00    +0.070 A 
ENDBRANCH  18  24
BRANCH  18  25
ATOM     25  C   LIG    1        4.125   0.591  -1.470  0.00  0.00    +0.190 C 
BRANCH  25  26
ATOM     26  O   LIG    1        3.566  -0.575  -2.079  0.00  0.00    -0.560 OA
ATOM     27  H   LIG    1        3.840  -0.709  -2.997  0.00  0.00    +0.380 HD
ENDBRANCH  25  26
ENDBRANCH  18  25
ENDBRANCH   1  18
TORSDOF 6
