REMARK  Name = ZINCpk00000KfLkB.0
REMARK                            x       y       z     vdW  Elec       q    Type
REMARK                         _______ _______ _______ _____ _____    ______ ____
ROOT
ATOM      1  N   LIG    1       -0.698   1.558   1.213  0.00  0.00    -0.720 N 
ATOM      2  H   LIG    1       -1.495   2.106   1.135  0.00  0.00    +0.410 HD
ATOM      3  C   LIG    1       -0.222   1.232   2.431  0.00  0.00    +0.530 C 
ATOM      4  O   LIG    1        0.774   0.548   2.529  0.00  0.00    -0.520 OA
ENDROOT
BRANCH   3   5
ATOM      5  C   LIG    1       -0.927   1.718   3.671  0.00  0.00    +0.000 C 
ATOM      6  C   LIG    1       -2.373   1.173   3.735  0.00  0.00    +0.070 C 
ATOM      7  C   LIG    1       -2.599   0.894   5.205  0.00  0.00    +0.520 C 
ATOM      8  N   LIG    1       -1.423   0.865   5.856  0.00  0.00    -0.620 N 
ATOM      9  O   LIG    1       -3.683   0.721   5.720  0.00  0.00    -0.520 OA
ATOM     10  C   LIG    1       -0.301   1.101   4.941  0.00  0.00    +0.300 C 
BRANCH   8  11
ATOM     11  C   LIG    1       -1.281   0.629   7.295  0.00  0.00    +0.340 C 
BRANCH  11  12
ATOM     12  C   LIG    1       -1.133  -0.872   7.553  0.00  0.00    -0.070 C 
ATOM     13  C   LIG    1       -2.230  -1.561   8.367  0.00  0.00    +0.020 C 
ATOM     14  C   LIG    1       -0.854  -1.317   8.990  0.00  0.00    +0.030 C 
ENDBRANCH  11  12
ENDBRANCH   8  11
ENDBRANCH   3   5
BRANCH   1  15
ATOM     15  C   LIG    1       -0.013   1.086   0.008  0.00  0.00    +0.270 C 
BRANCH  15  16
ATOM     16  C   LIG    1       -0.753   1.593  -1.232  0.00  0.00    +0.270 C 
BRANCH  16  17
ATOM     17  N   LIG    1       -0.067   1.120  -2.437  0.00  0.00    -0.730 N 
ATOM     18  H   LIG    1        0.730   0.573  -2.358  0.00  0.00    +0.410 HD
BRANCH  17  25
ATOM     19  C   LIG    1        0.096   1.005  -4.851  0.00  0.00    -0.150 A 
ATOM     20  C   LIG    1       -0.410   1.351  -6.109  0.00  0.00    +0.190 A 
ATOM     21  C   LIG    1       -1.546   2.131  -6.202  0.00  0.00    -0.070 A 
ATOM     22  C   LIG    1       -2.187   2.573  -5.058  0.00  0.00    +0.130 A 
ATOM     23  C   LIG    1       -1.702   2.235  -3.809  0.00  0.00    -0.070 A 
ATOM     24  F   LIG    1        0.211   0.922  -7.229  0.00  0.00    -0.120 F 
ATOM     25  C   LIG    1       -0.559   1.456  -3.693  0.00  0.00    +0.290 A 
BRANCH  19  27
ATOM     26  N   LIG    1        2.208  -0.443  -4.660  0.00  0.00    -0.410 NA
ATOM     27  C   LIG    1        1.274   0.198  -4.745  0.00  0.00    +0.250 C 
ENDBRANCH  19  27
ENDBRANCH  17  25
ENDBRANCH  16  17
ENDBRANCH  15  16
ENDBRANCH   1  15
TORSDOF 8
