REMARK  Name = ZINCrD000000AA8I.1
REMARK                            x       y       z     vdW  Elec       q    Type
REMARK                         _______ _______ _______ _____ _____    ______ ____
ROOT
ATOM      1  O   LIG    1        3.542  -4.483   1.471  0.00  0.00    -0.530 OA
ATOM      2  C   LIG    1        3.898  -3.617   0.699  0.00  0.00    +0.510 C 
ATOM      3  N   LIG    1        3.689  -2.320   0.998  0.00  0.00    -0.720 N 
ATOM      4  H   LIG    1        3.973  -1.628   0.381  0.00  0.00    +0.410 HD
ENDROOT
BRANCH   3   5
ATOM      5  C   LIG    1        3.031  -1.955   2.255  0.00  0.00    +0.280 C 
BRANCH   5   6
ATOM      6  C   LIG    1        2.918  -0.432   2.348  0.00  0.00    +0.100 C 
ATOM      7  C   LIG    1        2.232  -0.050   3.661  0.00  0.00    +0.000 C 
ATOM      8  C   LIG    1        3.057  -0.573   4.838  0.00  0.00    +0.020 C 
ATOM      9  C   LIG    1        4.456   0.047   4.795  0.00  0.00    +0.000 C 
ATOM     10  C   LIG    1        5.142  -0.335   3.482  0.00  0.00    +0.020 C 
ATOM     11  C   LIG    1        4.316   0.188   2.305  0.00  0.00    +0.030 C 
BRANCH   6  12
ATOM     12  N   LIG    1        2.125   0.070   1.217  0.00  0.00    -0.520 NA
ATOM     13  C   LIG    1        0.772  -0.505   1.227  0.00  0.00    +0.150 C 
ATOM     14  C   LIG    1        0.002  -0.004   0.002  0.00  0.00    +0.230 C 
ATOM     15  O   LIG    1       -0.017   1.426   0.010  0.00  0.00    -0.380 OA
ATOM     16  C   LIG    1        1.284   2.019   0.001  0.00  0.00    +0.220 C 
ATOM     17  C   LIG    1        2.067   1.539   1.225  0.00  0.00    +0.150 C 
ENDBRANCH   6  12
ENDBRANCH   5   6
ENDBRANCH   3   5
BRANCH   2  18
ATOM     18  C   LIG    1        4.574  -3.993  -0.594  0.00  0.00    +0.120 C 
BRANCH  18  19
ATOM     19  C   LIG    1        4.686  -5.493  -0.685  0.00  0.00    -0.070 A 
ATOM     20  C   LIG    1        5.805  -6.134  -0.189  0.00  0.00    +0.060 A 
ATOM     21  C   LIG    1        5.906  -7.511  -0.269  0.00  0.00    +0.020 A 
ATOM     22  C   LIG    1        4.891  -8.245  -0.853  0.00  0.00    +0.070 A 
ATOM     23  C   LIG    1        3.773  -7.604  -1.354  0.00  0.00    -0.180 A 
ATOM     24  C   LIG    1        3.671  -6.228  -1.271  0.00  0.00    +0.070 A 
BRANCH  23  25
ATOM     25  C   LIG    1        2.667  -8.404  -1.992  0.00  0.00    +0.510 C 
ATOM     26  F   LIG    1        1.447  -7.747  -1.802  0.00  0.00    -0.180 F 
ATOM     27  F   LIG    1        2.611  -9.672  -1.403  0.00  0.00    -0.180 F 
ATOM     28  F   LIG    1        2.918  -8.537  -3.362  0.00  0.00    -0.180 F 
ENDBRANCH  23  25
ENDBRANCH  18  19
ENDBRANCH   2  18
TORSDOF 6
