REMARK  Name = ZINCvU00000009OF.1
REMARK                            x       y       z     vdW  Elec       q    Type
REMARK                         _______ _______ _______ _____ _____    ______ ____
ROOT
ATOM      1  C   LIG    1        1.147  -4.923   0.178  0.00  0.00    +0.070 C 
ENDROOT
BRANCH   1   2
ATOM      2  C   LIG    1        1.746  -5.082  -1.196  0.00  0.00    -0.090 A 
ATOM      3  C   LIG    1        1.031  -5.720  -2.192  0.00  0.00    +0.040 A 
ATOM      4  C   LIG    1        1.578  -5.862  -3.454  0.00  0.00    +0.000 A 
ATOM      5  C   LIG    1        2.844  -5.372  -3.717  0.00  0.00    +0.010 A 
ATOM      6  C   LIG    1        3.561  -4.739  -2.719  0.00  0.00    +0.000 A 
ATOM      7  C   LIG    1        3.012  -4.593  -1.459  0.00  0.00    +0.070 A 
ENDBRANCH   1   2
BRANCH   1   8
ATOM      8  C   LIG    1       -0.127  -4.124   0.082  0.00  0.00    +0.540 C 
ATOM      9  N   LIG    1       -0.074  -2.781  -0.013  0.00  0.00    -0.650 N 
ATOM     10  H   LIG    1        0.784  -2.333  -0.085  0.00  0.00    +0.420 HD
ATOM     11  O   LIG    1       -1.200  -4.690   0.090  0.00  0.00    -0.500 OA
BRANCH   9  12
ATOM     12  C   LIG    1       -1.258  -2.031  -0.008  0.00  0.00    +0.120 A 
ATOM     13  C   LIG    1       -2.404  -2.537  -0.603  0.00  0.00    +0.070 A 
ATOM     14  C   LIG    1       -3.570  -1.795  -0.598  0.00  0.00    -0.100 A 
ATOM     15  C   LIG    1       -3.598  -0.549  -0.001  0.00  0.00    +0.040 A 
ATOM     16  C   LIG    1       -2.461  -0.040   0.600  0.00  0.00    -0.060 A 
ATOM     17  C   LIG    1       -4.814  -2.346  -1.245  0.00  0.00    +0.100 C 
ATOM     18  C   LIG    1       -1.286  -0.775   0.594  0.00  0.00    +0.100 A 
BRANCH  18  19
ATOM     19  O   LIG    1       -0.166  -0.274   1.179  0.00  0.00    -0.320 OA
ATOM     20  C   LIG    1       -0.270   1.020   1.777  0.00  0.00    +0.250 C 
ENDBRANCH  18  19
ENDBRANCH   9  12
ENDBRANCH   1   8
BRANCH   1  21
ATOM     21  S   LIG    1        0.784  -6.556   0.870  0.00  0.00    +0.080 S 
BRANCH  21  27
ATOM     22  C   LIG    1        6.365  -9.373   1.597  0.00  0.00    +0.150 A 
ATOM     23  C   LIG    1        6.841  -8.176   1.073  0.00  0.00    -0.060 A 
ATOM     24  C   LIG    1        5.967  -7.169   0.729  0.00  0.00    +0.110 A 
ATOM     25  C   LIG    1        4.593  -7.349   0.907  0.00  0.00    +0.030 A 
ATOM     26  N   LIG    1        3.510  -6.563   0.663  0.00  0.00    -0.470 NA
ATOM     27  C   LIG    1        2.419  -7.199   1.009  0.00  0.00    +0.250 A 
ATOM     28  N   LIG    1        2.737  -8.439   1.490  0.00  0.00    -0.580 N 
ATOM     29  H   LIG    1        2.113  -9.109   1.810  0.00  0.00    +0.430 HD
ATOM     30  C   LIG    1        4.116  -8.559   1.436  0.00  0.00    +0.100 A 
ATOM     31  C   LIG    1        5.006  -9.566   1.778  0.00  0.00    -0.020 A 
BRANCH  22  33
ATOM     32  C   LIG    1        8.627 -10.097   1.720  0.00  0.00    +0.250 C 
ATOM     33  O   LIG    1        7.238 -10.360   1.932  0.00  0.00    -0.320 OA
ENDBRANCH  22  33
ENDBRANCH  21  27
ENDBRANCH   1  21
TORSDOF 7
