REMARK  Name = ZINCvU00000009OF.0
REMARK                            x       y       z     vdW  Elec       q    Type
REMARK                         _______ _______ _______ _____ _____    ______ ____
ROOT
ATOM      1  C   LIG    1       -0.646  -4.951   0.807  0.00  0.00    +0.070 C 
ENDROOT
BRANCH   1   2
ATOM      2  C   LIG    1        0.247  -5.120   2.009  0.00  0.00    -0.090 A 
ATOM      3  C   LIG    1        1.477  -5.737   1.875  0.00  0.00    +0.030 A 
ATOM      4  C   LIG    1        2.299  -5.887   2.977  0.00  0.00    +0.000 A 
ATOM      5  C   LIG    1        1.886  -5.429   4.214  0.00  0.00    +0.010 A 
ATOM      6  C   LIG    1        0.654  -4.817   4.349  0.00  0.00    +0.000 A 
ATOM      7  C   LIG    1       -0.165  -4.662   3.247  0.00  0.00    +0.070 A 
ENDBRANCH   1   2
BRANCH   1   8
ATOM      8  C   LIG    1        0.061  -4.120  -0.232  0.00  0.00    +0.540 C 
ATOM      9  N   LIG    1        0.096  -2.778  -0.112  0.00  0.00    -0.650 N 
ATOM     10  H   LIG    1       -0.277  -2.351   0.675  0.00  0.00    +0.420 HD
ATOM     11  O   LIG    1        0.599  -4.658  -1.176  0.00  0.00    -0.510 OA
BRANCH   9  12
ATOM     12  C   LIG    1        0.672  -1.998  -1.124  0.00  0.00    +0.120 A 
ATOM     13  C   LIG    1        1.768  -2.474  -1.829  0.00  0.00    +0.070 A 
ATOM     14  C   LIG    1        2.334  -1.703  -2.827  0.00  0.00    -0.100 A 
ATOM     15  C   LIG    1        1.812  -0.458  -3.124  0.00  0.00    +0.040 A 
ATOM     16  C   LIG    1        0.716   0.020  -2.430  0.00  0.00    -0.060 A 
ATOM     17  C   LIG    1        3.525  -2.220  -3.592  0.00  0.00    +0.100 C 
ATOM     18  C   LIG    1        0.145  -0.744  -1.425  0.00  0.00    +0.100 A 
BRANCH  18  19
ATOM     19  O   LIG    1       -0.929  -0.273  -0.737  0.00  0.00    -0.320 OA
ATOM     20  C   LIG    1       -1.415   1.021  -1.100  0.00  0.00    +0.250 C 
ENDBRANCH  18  19
ENDBRANCH   9  12
ENDBRANCH   1   8
BRANCH   1  21
ATOM     21  S   LIG    1       -1.038  -6.577   0.115  0.00  0.00    +0.080 S 
BRANCH  21  28
ATOM     22  C   LIG    1       -4.218  -8.350   5.224  0.00  0.00    +0.120 A 
ATOM     23  C   LIG    1       -4.413  -9.536   4.524  0.00  0.00    -0.040 A 
ATOM     24  C   LIG    1       -3.888  -9.692   3.257  0.00  0.00    +0.060 A 
ATOM     25  C   LIG    1       -3.162  -8.664   2.678  0.00  0.00    +0.020 A 
ATOM     26  N   LIG    1       -2.522  -8.509   1.457  0.00  0.00    -0.580 N 
ATOM     27  H   LIG    1       -2.476  -9.165   0.744  0.00  0.00    +0.430 HD
ATOM     28  C   LIG    1       -1.966  -7.261   1.447  0.00  0.00    +0.260 A 
ATOM     29  N   LIG    1       -2.221  -6.651   2.579  0.00  0.00    -0.480 NA
ATOM     30  C   LIG    1       -2.961  -7.463   3.379  0.00  0.00    +0.100 A 
ATOM     31  C   LIG    1       -3.497  -7.316   4.660  0.00  0.00    +0.030 A 
BRANCH  22  33
ATOM     32  C   LIG    1       -5.474  -9.316   6.997  0.00  0.00    +0.250 C 
ATOM     33  O   LIG    1       -4.740  -8.209   6.472  0.00  0.00    -0.320 OA
ENDBRANCH  22  33
ENDBRANCH  21  28
ENDBRANCH   1  21
TORSDOF 7
