REMARK  Name = ZINCrH000004q7Tr.0
REMARK                            x       y       z     vdW  Elec       q    Type
REMARK                         _______ _______ _______ _____ _____    ______ ____
ROOT
ATOM      1  C   LIG    1        3.772   1.857   1.025  0.00  0.00    +0.190 C 
ATOM      2  C   LIG    1        3.554   3.229   0.440  0.00  0.00    +0.200 A 
ATOM      3  C   LIG    1        4.515   4.203   0.260  0.00  0.00    -0.290 A 
ATOM      4  C   LIG    1        3.870   5.325  -0.309  0.00  0.00    +0.300 A 
ATOM      5  N   LIG    1        2.608   5.033  -0.462  0.00  0.00    -0.280 NA
ATOM      6  N   LIG    1        2.386   3.729  -0.006  0.00  0.00    -0.320 N 
ENDROOT
BRANCH   3   7
ATOM      7  C   LIG    1        5.944   4.096   0.603  0.00  0.00    +0.610 C 
ATOM      8  N   LIG    1        6.793   5.089   0.271  0.00  0.00    -0.550 N 
ATOM      9  C   LIG    1        6.399   6.363  -0.337  0.00  0.00    +0.270 C 
ATOM     10  C   LIG    1        7.710   7.145  -0.518  0.00  0.00    +0.090 C 
ATOM     11  C   LIG    1        8.781   6.223   0.019  0.00  0.00    -0.140 A 
ATOM     12  C   LIG    1       10.149   6.385   0.117  0.00  0.00    +0.050 A 
ATOM     13  C   LIG    1       10.931   5.378   0.655  0.00  0.00    -0.010 A 
ATOM     14  C   LIG    1       10.339   4.209   1.095  0.00  0.00    +0.040 A 
ATOM     15  C   LIG    1        8.973   4.043   0.999  0.00  0.00    +0.010 A 
ATOM     16  C   LIG    1        8.177   5.057   0.462  0.00  0.00    +0.150 A 
ATOM     17  O   LIG    1        6.358   3.112   1.185  0.00  0.00    -0.520 OA
ENDBRANCH   3   7
BRANCH   6  18
ATOM     18  C   LIG    1        1.158   3.060  -0.007  0.00  0.00    +0.390 A 
ATOM     19  C   LIG    1       -0.023   3.791   0.019  0.00  0.00    +0.010 A 
ATOM     20  C   LIG    1       -1.232   3.117   0.018  0.00  0.00    +0.160 A 
ATOM     21  C   LIG    1       -1.217   1.730  -0.015  0.00  0.00    -0.250 A 
ATOM     22  C   LIG    1       -0.004   1.068  -0.034  0.00  0.00    +0.380 A 
ATOM     23  N   LIG    1        1.132   1.737  -0.032  0.00  0.00    -0.490 NA
BRANCH  21  24
ATOM     24  C   LIG    1       -2.509   0.954  -0.024  0.00  0.00    +0.520 C 
ATOM     25  F   LIG    1       -3.253   1.300  -1.156  0.00  0.00    -0.170 F 
ATOM     26  F   LIG    1       -3.242   1.257   1.128  0.00  0.00    -0.170 F 
ATOM     27  F   LIG    1       -2.229  -0.417  -0.051  0.00  0.00    -0.170 F 
ENDBRANCH  21  24
ENDBRANCH   6  18
TORSDOF 3
