REMARK  Name = ZINCvU00000006wA.0
REMARK                            x       y       z     vdW  Elec       q    Type
REMARK                         _______ _______ _______ _____ _____    ______ ____
ROOT
ATOM      1  N   LIG    1        5.271  -2.131   0.360  0.00  0.00    -0.300 N 
ATOM      2  C   LIG    1        5.837  -1.227  -0.459  0.00  0.00    +0.300 A 
ATOM      3  C   LIG    1        4.960  -0.171  -0.594  0.00  0.00    -0.280 A 
ATOM      4  C   LIG    1        3.786  -0.501   0.221  0.00  0.00    +0.190 A 
ATOM      5  N   LIG    1        4.018  -1.671   0.773  0.00  0.00    -0.270 NA
ENDROOT
BRANCH   1  10
ATOM      6  C   LIG    1        7.625  -7.053   1.922  0.00  0.00    +0.100 C 
ATOM      7  C   LIG    1        7.000  -5.746   1.507  0.00  0.00    -0.090 A 
ATOM      8  C   LIG    1        5.746  -5.401   1.978  0.00  0.00    +0.030 A 
ATOM      9  C   LIG    1        5.170  -4.203   1.599  0.00  0.00    +0.030 A 
ATOM     10  C   LIG    1        5.852  -3.346   0.746  0.00  0.00    +0.140 A 
ATOM     11  C   LIG    1        7.109  -3.698   0.270  0.00  0.00    +0.000 A 
ATOM     12  C   LIG    1        7.681  -4.894   0.657  0.00  0.00    +0.050 A 
ENDBRANCH   1  10
BRANCH   4  13
ATOM     13  C   LIG    1        2.571   0.331   0.394  0.00  0.00    -0.040 A 
ATOM     14  C   LIG    1        1.322  -0.275   0.528  0.00  0.00    +0.040 A 
ATOM     15  C   LIG    1        0.195   0.504   0.690  0.00  0.00    +0.000 A 
ATOM     16  C   LIG    1        0.301   1.883   0.719  0.00  0.00    +0.020 A 
ATOM     17  C   LIG    1        1.538   2.489   0.586  0.00  0.00    +0.000 A 
ATOM     18  C   LIG    1        2.672   1.720   0.424  0.00  0.00    +0.090 A 
ENDBRANCH   4  13
BRANCH   3  19
ATOM     19  C   LIG    1        5.161   1.046  -1.398  0.00  0.00    +0.600 C 
ATOM     20  N   LIG    1        6.301   1.210  -2.099  0.00  0.00    -0.670 N 
ATOM     21  H   LIG    1        7.019   0.564  -2.014  0.00  0.00    +0.410 HD
ATOM     22  O   LIG    1        4.300   1.904  -1.429  0.00  0.00    -0.510 OA
BRANCH  20  23
ATOM     23  C   LIG    1        6.447   2.313  -2.950  0.00  0.00    +0.120 A 
ATOM     24  C   LIG    1        5.344   2.824  -3.621  0.00  0.00    +0.060 A 
ATOM     25  C   LIG    1        5.489   3.914  -4.456  0.00  0.00    -0.050 A 
ATOM     26  C   LIG    1        6.737   4.492  -4.632  0.00  0.00    +0.110 A 
ATOM     27  C   LIG    1        7.841   3.979  -3.966  0.00  0.00    +0.020 A 
ATOM     28  C   LIG    1        7.697   2.892  -3.127  0.00  0.00    +0.030 A 
BRANCH  26  29
ATOM     29  O   LIG    1        6.880   5.563  -5.458  0.00  0.00    -0.310 OA
BRANCH  29  30
ATOM     30  C   LIG    1        5.702   6.039  -6.112  0.00  0.00    +0.380 C 
BRANCH  30  31
ATOM     31  C   LIG    1        6.043   7.193  -6.960  0.00  0.00    +0.210 C 
ATOM     32  N   LIG    1        6.307   8.084  -7.614  0.00  0.00    -0.390 NA
ENDBRANCH  30  31
ENDBRANCH  29  30
ENDBRANCH  26  29
ENDBRANCH  20  23
ENDBRANCH   3  19
TORSDOF 7
