REMARK  Name = ZINCqH00000365WV.0
REMARK                            x       y       z     vdW  Elec       q    Type
REMARK                         _______ _______ _______ _____ _____    ______ ____
ROOT
ATOM      1  C   LIG    1       -0.569   1.963   1.385  0.00  0.00    +0.260 C 
ATOM      2  C   LIG    1        0.419   1.433   0.325  0.00  0.00    +0.040 C 
ATOM      3  C   LIG    1       -0.225   1.885  -1.012  0.00  0.00    +0.040 C 
ATOM      4  C   LIG    1       -0.838   3.251  -0.616  0.00  0.00    +0.250 C 
ATOM      5  N   LIG    1       -1.329   3.059   0.761  0.00  0.00    -0.610 N 
ATOM      6  C   LIG    1       -2.310   3.771   1.351  0.00  0.00    +0.580 C 
ATOM      7  O   LIG    1       -2.850   4.678   0.748  0.00  0.00    -0.530 OA
ENDROOT
BRANCH   6   8
ATOM      8  C   LIG    1       -2.727   3.449   2.729  0.00  0.00    -0.100 A 
ATOM      9  C   LIG    1       -2.203   2.324   3.372  0.00  0.00    +0.060 A 
ATOM     10  C   LIG    1       -2.593   2.028   4.659  0.00  0.00    +0.070 A 
ATOM     11  C   LIG    1       -3.504   2.845   5.317  0.00  0.00    -0.110 A 
ATOM     12  S   LIG    1       -3.996   2.468   6.970  0.00  0.00    -0.070 S 
ATOM     13  C   LIG    1       -4.326   4.123   7.645  0.00  0.00    +0.150 C 
ATOM     14  C   LIG    1       -5.120   4.912   6.641  0.00  0.00    +0.520 C 
ATOM     15  N   LIG    1       -4.956   4.801   5.325  0.00  0.00    -0.650 N 
ATOM     16  H   LIG    1       -5.528   5.345   4.761  0.00  0.00    +0.420 HD
ATOM     17  O   LIG    1       -5.954   5.691   7.053  0.00  0.00    -0.510 OA
ATOM     18  C   LIG    1       -4.037   3.972   4.684  0.00  0.00    +0.150 A 
ATOM     19  C   LIG    1       -3.639   4.273   3.392  0.00  0.00    +0.070 A 
ENDBRANCH   6   8
BRANCH   1  23
ATOM     20  C   LIG    1        1.583   3.419   4.779  0.00  0.00    +0.130 A 
ATOM     21  C   LIG    1        1.199   2.087   4.718  0.00  0.00    -0.010 A 
ATOM     22  C   LIG    1        0.503   1.619   3.620  0.00  0.00    +0.060 A 
ATOM     23  C   LIG    1        0.190   2.476   2.582  0.00  0.00    -0.140 A 
ATOM     24  C   LIG    1        0.576   3.803   2.637  0.00  0.00    +0.060 A 
ATOM     25  C   LIG    1        1.267   4.277   3.736  0.00  0.00    -0.070 A 
BRANCH  20  27
ATOM     26  C   LIG    1        2.629   5.264   5.852  0.00  0.00    +0.250 C 
ATOM     27  O   LIG    1        2.266   3.882   5.858  0.00  0.00    -0.320 OA
ENDBRANCH  20  27
ENDBRANCH   1  23
TORSDOF 3
