REMARK  Name = ZINCpk00000y5qZ3.0
REMARK                            x       y       z     vdW  Elec       q    Type
REMARK                         _______ _______ _______ _____ _____    ______ ____
ROOT
ATOM      1  N   LIG    1       -2.068  -0.002  -1.300  0.00  0.00    -0.560 N 
ATOM      2  C   LIG    1       -2.298   1.161  -1.930  0.00  0.00    +0.700 A 
ATOM      3  N   LIG    1       -3.522   1.711  -2.020  0.00  0.00    -0.640 N 
ATOM      4  H   LIG    1       -3.636   2.554  -2.487  0.00  0.00    +0.440 HD
ATOM      5  C   LIG    1       -4.622   1.084  -1.452  0.00  0.00    +0.230 A 
ATOM      6  C   LIG    1       -5.891   1.633  -1.534  0.00  0.00    -0.050 A 
ATOM      7  C   LIG    1       -6.961   0.975  -0.953  0.00  0.00    +0.180 A 
ATOM      8  C   LIG    1       -6.775  -0.231  -0.290  0.00  0.00    -0.040 A 
ATOM      9  C   LIG    1       -5.518  -0.790  -0.200  0.00  0.00    +0.180 A 
ATOM     10  F   LIG    1       -8.199   1.510  -1.033  0.00  0.00    -0.120 F 
ATOM     11  C   LIG    1       -4.433  -0.137  -0.780  0.00  0.00    -0.210 A 
ATOM     12  O   LIG    1       -1.360   1.741  -2.442  0.00  0.00    -0.520 OA
ATOM     13  C   LIG    1       -3.071  -0.695  -0.718  0.00  0.00    +0.570 A 
ATOM     14  O   LIG    1       -2.854  -1.750  -0.154  0.00  0.00    -0.480 OA
ENDROOT
BRANCH   1  15
ATOM     15  C   LIG    1       -0.704  -0.533  -1.248  0.00  0.00    +0.340 C 
BRANCH  15  17
ATOM     16  C   LIG    1       -0.680  -0.546   1.260  0.00  0.00    +0.070 C 
ATOM     17  C   LIG    1        0.002  -0.004   0.002  0.00  0.00    +0.190 C 
ATOM     18  N   LIG    1       -0.018   1.463   0.010  0.00  0.00    -0.710 N 
ATOM     19  H   LIG    1       -0.814   2.017   0.017  0.00  0.00    +0.420 HD
ATOM     20  C   LIG    1        1.249   1.913   0.000  0.00  0.00    +0.570 C 
ATOM     21  C   LIG    1        2.194   0.780  -0.015  0.00  0.00    -0.150 A 
ATOM     22  C   LIG    1        3.588   0.718  -0.029  0.00  0.00    +0.080 A 
ATOM     23  C   LIG    1        4.221  -0.508  -0.042  0.00  0.00    +0.020 A 
ATOM     24  C   LIG    1        3.480  -1.676  -0.041  0.00  0.00    +0.050 A 
ATOM     25  C   LIG    1        2.096  -1.623  -0.027  0.00  0.00    +0.030 A 
ATOM     26  O   LIG    1        1.570   3.085   0.003  0.00  0.00    -0.520 OA
ATOM     27  C   LIG    1        1.456  -0.406  -0.014  0.00  0.00    -0.070 A 
ENDBRANCH  15  17
ENDBRANCH   1  15
TORSDOF 2
