REMARK  Name = ZINCvU00000009Vy.0
REMARK                            x       y       z     vdW  Elec       q    Type
REMARK                         _______ _______ _______ _____ _____    ______ ____
ROOT
ATOM      1  O   LIG    1        3.390   3.578   0.072  0.00  0.00    -0.560 OA
ATOM      2  C   LIG    1        2.333   4.177   0.079  0.00  0.00    +0.710 C 
ATOM      3  N   LIG    1        2.320   5.520   0.193  0.00  0.00    -0.740 N 
ATOM      4  H   LIG    1        1.476   5.998   0.198  0.00  0.00    +0.400 HD
ATOM      5  N   LIG    1        1.173   3.499  -0.029  0.00  0.00    -0.680 N 
ATOM      6  H   LIG    1        0.333   3.980  -0.088  0.00  0.00    +0.410 HD
ENDROOT
BRANCH   5   7
ATOM      7  C   LIG    1        1.181   2.101  -0.056  0.00  0.00    +0.180 A 
ATOM      8  C   LIG    1        2.223   1.423  -0.670  0.00  0.00    +0.040 A 
ATOM      9  C   LIG    1        2.230   0.041  -0.696  0.00  0.00    +0.050 A 
ATOM     10  C   LIG    1        1.198  -0.674  -0.110  0.00  0.00    -0.050 A 
ATOM     11  C   LIG    1        0.154  -0.011   0.505  0.00  0.00    +0.060 A 
ATOM     12 CL   LIG    1        1.218  -2.409  -0.148  0.00  0.00    -0.070 Cl
ATOM     13  C   LIG    1        0.137   1.381   0.537  0.00  0.00    -0.060 A 
BRANCH  13  14
ATOM     14  C   LIG    1       -0.985   2.098   1.191  0.00  0.00    -0.050 A 
ATOM     15  C   LIG    1       -0.725   3.098   2.126  0.00  0.00    +0.010 A 
ATOM     16  C   LIG    1       -1.773   3.766   2.727  0.00  0.00    +0.000 A 
ATOM     17  C   LIG    1       -3.079   3.436   2.412  0.00  0.00    +0.010 A 
ATOM     18  C   LIG    1       -3.342   2.441   1.488  0.00  0.00    +0.010 A 
ATOM     19  C   LIG    1       -2.302   1.770   0.876  0.00  0.00    +0.030 A 
ENDBRANCH  13  14
ENDBRANCH   5   7
BRANCH   3  20
ATOM     20  C   LIG    1        3.580   6.258   0.311  0.00  0.00    +0.290 C 
ATOM     21  C   LIG    1        4.084   6.716  -1.077  0.00  0.00    +0.080 C 
ATOM     22  C   LIG    1        3.527   8.114  -1.231  0.00  0.00    +0.520 C 
ATOM     23  N   LIG    1        3.128   8.586  -0.037  0.00  0.00    -0.560 N 
ATOM     24  O   LIG    1        3.452   8.721  -2.278  0.00  0.00    -0.500 OA
ATOM     25  C   LIG    1        3.366   7.608   1.030  0.00  0.00    +0.290 C 
BRANCH  23  26
ATOM     26  C   LIG    1        2.558   9.850   0.162  0.00  0.00    +0.200 A 
ATOM     27  C   LIG    1        2.272  10.663  -0.927  0.00  0.00    +0.010 A 
ATOM     28  C   LIG    1        1.705  11.907  -0.729  0.00  0.00    +0.100 A 
ATOM     29  C   LIG    1        1.433  12.349   0.553  0.00  0.00    -0.100 A 
ATOM     30  C   LIG    1        1.723  11.542   1.643  0.00  0.00    +0.140 A 
ATOM     31  F   LIG    1        1.456  11.976   2.894  0.00  0.00    -0.120 F 
ATOM     32 CL   LIG    1        0.727  13.916   0.798  0.00  0.00    -0.050 Cl
ATOM     33  C   LIG    1        2.285  10.294   1.449  0.00  0.00    -0.040 A 
ENDBRANCH  23  26
ENDBRANCH   3  20
TORSDOF 4
