REMARK  Name = ZINCrH00000tj1hK.0
REMARK                            x       y       z     vdW  Elec       q    Type
REMARK                         _______ _______ _______ _____ _____    ______ ____
ROOT
ATOM      1  C   LIG    1        0.467   4.232   0.021  0.00  0.00    +0.250 A 
ATOM      2  C   LIG    1       -0.839   3.759   0.030  0.00  0.00    -0.100 A 
ATOM      3  C   LIG    1       -1.075   2.398   0.030  0.00  0.00    +0.090 A 
ATOM      4  C   LIG    1       -0.018   1.508   0.010  0.00  0.00    -0.200 A 
ATOM      5  C   LIG    1        0.002  -0.004   0.002  0.00  0.00    +0.100 C 
ATOM      6  C   LIG    1        1.495  -0.371  -0.014  0.00  0.00    +0.260 C 
ATOM      7  N   LIG    1        2.206   0.910  -0.014  0.00  0.00    -0.560 N 
ATOM      8  C   LIG    1        3.546   1.049  -0.027  0.00  0.00    +0.520 C 
ATOM      9  O   LIG    1        4.041   2.157  -0.026  0.00  0.00    -0.500 OA
ATOM     10  C   LIG    1        1.290   1.967   0.000  0.00  0.00    +0.190 A 
ATOM     11  C   LIG    1        1.528   3.341   0.006  0.00  0.00    -0.070 A 
ENDROOT
BRANCH   1  12
ATOM     12  N   LIG    1        0.712   5.607   0.026  0.00  0.00    -0.730 N 
ATOM     13  H   LIG    1        1.623   5.938   0.019  0.00  0.00    +0.410 HD
BRANCH  12  15
ATOM     14  C   LIG    1       -0.894   6.790  -1.390  0.00  0.00    +0.040 C 
ATOM     15  C   LIG    1       -0.409   6.551   0.041  0.00  0.00    +0.330 C 
BRANCH  15  16
ATOM     16  C   LIG    1        0.041   7.856   0.645  0.00  0.00    +0.190 A 
ATOM     17  N   LIG    1        1.156   8.476   0.371  0.00  0.00    -0.480 NA
ATOM     18  C   LIG    1        1.223   9.606   1.090  0.00  0.00    +0.140 A 
ATOM     19  C   LIG    1        0.110   9.685   1.845  0.00  0.00    +0.130 A 
ATOM     20  N   LIG    1       -0.640   8.575   1.562  0.00  0.00    -0.450 N 
ATOM     21  C   LIG    1       -1.939   8.232   2.147  0.00  0.00    +0.330 C 
ENDBRANCH  15  16
ENDBRANCH  12  15
ENDBRANCH   1  12
BRANCH   8  22
ATOM     22  C   LIG    1        4.431  -0.171  -0.042  0.00  0.00    +0.120 C 
BRANCH  22  23
ATOM     23  C   LIG    1        5.876   0.257  -0.054  0.00  0.00    -0.070 A 
ATOM     24  C   LIG    1        6.528   0.453  -1.257  0.00  0.00    +0.020 A 
ATOM     25  C   LIG    1        7.853   0.850  -1.268  0.00  0.00    +0.000 A 
ATOM     26  C   LIG    1        8.527   1.040  -0.077  0.00  0.00    +0.000 A 
ATOM     27  C   LIG    1        7.877   0.838   1.126  0.00  0.00    +0.000 A 
ATOM     28  C   LIG    1        6.551   0.446   1.137  0.00  0.00    +0.020 A 
ENDBRANCH  22  23
ENDBRANCH   8  22
TORSDOF 5
