REMARK  Name = ZINCrD0000073zzK.0
REMARK                            x       y       z     vdW  Elec       q    Type
REMARK                         _______ _______ _______ _____ _____    ______ ____
ROOT
ATOM      1  C   LIG    1        4.158   0.554   1.380  0.00  0.00    +0.510 C 
ATOM      2  N   LIG    1        5.484   0.496   1.612  0.00  0.00    -0.730 N 
ATOM      3  H   LIG    1        6.103   0.399   0.871  0.00  0.00    +0.400 HD
ATOM      4  O   LIG    1        3.385   0.676   2.307  0.00  0.00    -0.520 OA
ENDROOT
BRANCH   1   5
ATOM      5  C   LIG    1        3.635   0.467  -0.031  0.00  0.00    +0.150 C 
BRANCH   5  10
ATOM      6  C   LIG    1       -0.729   3.634   0.029  0.00  0.00    +0.150 A 
ATOM      7  C   LIG    1        0.597   4.056   0.019  0.00  0.00    -0.070 A 
ATOM      8  C   LIG    1        1.614   3.142   0.004  0.00  0.00    +0.100 A 
ATOM      9  C   LIG    1        1.320   1.780  -0.001  0.00  0.00    -0.150 A 
ATOM     10  C   LIG    1        2.131   0.556  -0.015  0.00  0.00    -0.150 A 
ATOM     11  C   LIG    1        1.265  -0.466  -0.013  0.00  0.00    +0.230 A 
ATOM     12  O   LIG    1        0.002  -0.004   0.002  0.00  0.00    -0.190 OA
ATOM     13  C   LIG    1       -0.016   1.344   0.009  0.00  0.00    +0.090 A 
ATOM     14  C   LIG    1       -1.037   2.285   0.029  0.00  0.00    -0.010 A 
BRANCH   6  16
ATOM     15  C   LIG    1       -1.344   5.930   0.050  0.00  0.00    +0.250 C 
ATOM     16  O   LIG    1       -1.729   4.554   0.045  0.00  0.00    -0.310 OA
ENDBRANCH   6  16
ENDBRANCH   5  10
ENDBRANCH   1   5
BRANCH   2  17
ATOM     17  C   LIG    1        5.992   0.581   2.984  0.00  0.00    +0.340 C 
BRANCH  17  18
ATOM     18  C   LIG    1        7.497   0.492   2.968  0.00  0.00    -0.180 A 
ATOM     19  C   LIG    1        8.132  -0.700   3.270  0.00  0.00    +0.130 A 
ATOM     20  C   LIG    1        9.520  -0.737   3.238  0.00  0.00    -0.070 A 
ATOM     21  C   LIG    1       10.219   0.410   2.920  0.00  0.00    +0.310 A 
ATOM     22  N   LIG    1        9.585   1.534   2.642  0.00  0.00    -0.540 NA
ATOM     23  C   LIG    1        8.264   1.607   2.657  0.00  0.00    +0.340 A 
BRANCH  23  24
ATOM     24  O   LIG    1        7.654   2.783   2.364  0.00  0.00    -0.290 OA
BRANCH  24  25
ATOM     25  C   LIG    1        8.498   3.893   2.052  0.00  0.00    +0.220 C 
BRANCH  25  26
ATOM     26  C   LIG    1        7.636   5.121   1.752  0.00  0.00    +0.400 C 
ATOM     27  F   LIG    1        6.857   5.428   2.873  0.00  0.00    -0.200 F 
ATOM     28  F   LIG    1        6.801   4.850   0.663  0.00  0.00    -0.200 F 
ENDBRANCH  25  26
ENDBRANCH  24  25
ENDBRANCH  23  24
ENDBRANCH  17  18
ENDBRANCH   2  17
TORSDOF 8
