REMARK  Name = ZINCkj00000a7StD.0
REMARK                            x       y       z     vdW  Elec       q    Type
REMARK                         _______ _______ _______ _____ _____    ______ ____
ROOT
ATOM      1  O   LIG    1       -3.830   5.989   0.072  0.00  0.00    -0.520 OA
ATOM      2  C   LIG    1       -4.117   4.807   0.068  0.00  0.00    +0.600 C 
ATOM      3  N   LIG    1       -5.411   4.428   0.078  0.00  0.00    -0.710 N 
ATOM      4  H   LIG    1       -5.640   3.485   0.075  0.00  0.00    +0.420 HD
ENDROOT
BRANCH   3   5
ATOM      5  C   LIG    1       -6.470   5.439   0.094  0.00  0.00    +0.160 C 
ATOM      6  C   LIG    1       -6.396   6.328   1.353  0.00  0.00    +0.060 C 
ATOM      7  C   LIG    1       -7.495   5.728   2.291  0.00  0.00    +0.040 C 
ATOM      8  C   LIG    1       -8.624   5.334   1.307  0.00  0.00    +0.060 C 
ATOM      9  C   LIG    1       -6.418   6.346  -1.156  0.00  0.00    +0.080 C 
ATOM     10  C   LIG    1       -7.915   6.599  -1.467  0.00  0.00    +0.280 C 
ATOM     11  N   LIG    1       -8.552   5.295  -1.152  0.00  0.00    -0.510 N 
ATOM     12  H   LIG    1       -8.414   4.648  -1.914  0.00  0.00    +0.430 HD
ATOM     13  H   LIG    1       -9.537   5.422  -0.978  0.00  0.00    +0.430 HD
ATOM     14  C   LIG    1       -7.879   4.800   0.067  0.00  0.00    +0.170 C 
ENDBRANCH   3   5
BRANCH   2  15
ATOM     15  C   LIG    1       -3.052   3.790   0.052  0.00  0.00    -0.030 A 
ATOM     16  C   LIG    1       -1.724   4.179   0.041  0.00  0.00    +0.150 A 
ATOM     17  C   LIG    1       -0.736   3.177   0.026  0.00  0.00    +0.000 A 
ATOM     18  C   LIG    1        0.646   3.205   0.013  0.00  0.00    +0.010 A 
ATOM     19  C   LIG    1        1.081   1.878   0.002  0.00  0.00    +0.020 A 
ATOM     20  C   LIG    1       -0.013   1.076   0.008  0.00  0.00    +0.170 A 
ATOM     21  N   LIG    1       -1.130   1.849   0.017  0.00  0.00    -0.390 N 
ATOM     22  C   LIG    1       -2.465   1.544   0.034  0.00  0.00    +0.530 A 
ATOM     23  N   LIG    1       -3.372   2.472   0.048  0.00  0.00    -0.480 NA
ENDBRANCH   2  15
TORSDOF 2
