REMARK  Name = ZINCrD000000BZyj.0
REMARK                            x       y       z     vdW  Elec       q    Type
REMARK                         _______ _______ _______ _____ _____    ______ ____
ROOT
ATOM      1  C   LIG    1        0.009   5.601  -0.205  0.00  0.00    -0.120 A 
ATOM      2  C   LIG    1        1.219   6.298  -0.204  0.00  0.00    +0.020 A 
ATOM      3  C   LIG    1        1.221   7.676  -0.296  0.00  0.00    +0.040 A 
ATOM      4  C   LIG    1        0.029   8.369  -0.379  0.00  0.00    +0.010 A 
ATOM      5  C   LIG    1       -1.181   7.685  -0.376  0.00  0.00    +0.160 A 
ATOM      6  C   LIG    1       -1.194   6.302  -0.289  0.00  0.00    +0.100 A 
ENDROOT
BRANCH   5   7
ATOM      7  N   LIG    1       -2.386   8.392  -0.461  0.00  0.00    -0.680 N 
ATOM      8  H   LIG    1       -2.438   9.198  -0.998  0.00  0.00    +0.410 HD
ATOM      9  C   LIG    1       -3.473   7.953   0.204  0.00  0.00    +0.740 C 
ATOM     10  N   LIG    1       -4.606   8.683   0.198  0.00  0.00    -0.660 N 
ATOM     11  C   LIG    1       -5.038   9.963  -0.386  0.00  0.00    +0.270 C 
ATOM     12  C   LIG    1       -6.468   9.419  -0.367  0.00  0.00    +0.070 C 
ATOM     13  C   LIG    1       -7.549  10.440   0.018  0.00  0.00    +0.040 C 
ATOM     14  C   LIG    1       -8.319  10.615  -1.322  0.00  0.00    +0.010 C 
ATOM     15  C   LIG    1       -8.202   9.190  -1.920  0.00  0.00    +0.210 C 
ATOM     16  O   LIG    1       -6.894   8.727  -1.536  0.00  0.00    -0.340 OA
ATOM     17  C   LIG    1       -5.953   8.552   0.779  0.00  0.00    +0.310 C 
ATOM     18  O   LIG    1       -3.432   6.899   0.808  0.00  0.00    -0.560 OA
ENDBRANCH   5   7
BRANCH   1  20
ATOM     19  O   LIG    1       -1.051   3.521  -0.108  0.00  0.00    -0.450 OA
ATOM     20  C   LIG    1        0.004   4.126  -0.112  0.00  0.00    +0.550 C 
ATOM     21  N   LIG    1        1.168   3.451  -0.031  0.00  0.00    -0.660 N 
ATOM     22  H   LIG    1        2.005   3.936   0.041  0.00  0.00    +0.420 HD
BRANCH  21  23
ATOM     23  C   LIG    1        1.169   2.058  -0.049  0.00  0.00    +0.370 A 
ATOM     24  C   LIG    1        2.377   1.370  -0.072  0.00  0.00    -0.050 A 
ATOM     25  C   LIG    1        2.363  -0.013  -0.089  0.00  0.00    +0.110 A 
ATOM     26  C   LIG    1        1.137  -0.664  -0.084  0.00  0.00    -0.120 A 
ATOM     27  C   LIG    1       -0.026   0.083  -0.062  0.00  0.00    +0.320 A 
ATOM     28 CL   LIG    1        1.063  -2.399  -0.106  0.00  0.00    -0.050 Cl
ATOM     29  N   LIG    1        0.019   1.402  -0.045  0.00  0.00    -0.460 NA
ENDBRANCH  21  23
ENDBRANCH   1  20
TORSDOF 3
