REMARK  Name = ZINCzw0000000gBS.1
REMARK                            x       y       z     vdW  Elec       q    Type
REMARK                         _______ _______ _______ _____ _____    ______ ____
ROOT
ATOM      1  N   LIG    1       -2.755   2.964  -4.589  0.00  0.00    -0.680 N 
ATOM      2  H   LIG    1       -2.568   3.850  -4.938  0.00  0.00    +0.420 HD
ATOM      3  C   LIG    1       -3.671   2.182  -5.194  0.00  0.00    +0.520 C 
ATOM      4  O   LIG    1       -3.976   1.115  -4.704  0.00  0.00    -0.500 OA
ENDROOT
BRANCH   3   5
ATOM      5  C   LIG    1       -4.317   2.634  -6.478  0.00  0.00    +0.000 C 
ATOM      6  C   LIG    1       -5.055   3.954  -6.242  0.00  0.00    +0.030 C 
ATOM      7  C   LIG    1       -5.681   4.427  -7.557  0.00  0.00    +0.280 C 
ATOM      8  N   LIG    1       -6.526   3.351  -8.092  0.00  0.00    -0.610 N 
ATOM      9  C   LIG    1       -5.941   2.016  -8.274  0.00  0.00    +0.290 C 
ATOM     10  C   LIG    1       -7.815   3.585  -8.412  0.00  0.00    +0.520 C 
ATOM     11  O   LIG    1       -8.502   2.688  -8.853  0.00  0.00    -0.500 OA
ATOM     12  C   LIG    1       -5.311   1.570  -6.950  0.00  0.00    +0.050 C 
BRANCH  10  13
ATOM     13  C   LIG    1       -8.401   4.960  -8.220  0.00  0.00    +0.220 C 
BRANCH  13  14
ATOM     14  O   LIG    1       -9.771   4.954  -8.626  0.00  0.00    -0.290 OA
BRANCH  14  15
ATOM     15  C   LIG    1      -10.452   6.125  -8.517  0.00  0.00    +0.120 A 
ATOM     16  C   LIG    1       -9.816   7.255  -8.022  0.00  0.00    -0.090 A 
ATOM     17  C   LIG    1      -10.509   8.445  -7.917  0.00  0.00    +0.050 A 
ATOM     18  C   LIG    1      -11.838   8.509  -8.293  0.00  0.00    -0.020 A 
ATOM     19  C   LIG    1      -12.475   7.383  -8.781  0.00  0.00    +0.050 A 
ATOM     20  C   LIG    1      -11.786   6.191  -8.893  0.00  0.00    -0.020 A 
ENDBRANCH  14  15
ENDBRANCH  13  14
ENDBRANCH  10  13
ENDBRANCH   3   5
BRANCH   1  24
ATOM     21  C   LIG    1       -0.731   1.579  -1.222  0.00  0.00    -0.180 A 
ATOM     22  C   LIG    1       -1.035   2.923  -1.339  0.00  0.00    +0.080 A 
ATOM     23  C   LIG    1       -1.702   3.386  -2.457  0.00  0.00    -0.010 A 
ATOM     24  C   LIG    1       -2.075   2.499  -3.458  0.00  0.00    +0.190 A 
ATOM     25  C   LIG    1       -1.773   1.149  -3.335  0.00  0.00    +0.030 A 
ATOM     26  C   LIG    1       -1.101   0.693  -2.217  0.00  0.00    +0.060 A 
BRANCH  21  27
ATOM     27  C   LIG    1        0.001   1.078  -0.004  0.00  0.00    +0.320 C 
BRANCH  27  32
ATOM     28  C   LIG    1        3.671   0.884   0.756  0.00  0.00    +0.010 C 
ATOM     29  C   LIG    1        4.093  -0.048  -0.383  0.00  0.00    +0.070 C 
ATOM     30  C   LIG    1        3.288   0.299  -1.639  0.00  0.00    +0.050 C 
ATOM     31  C   LIG    1        1.794   0.192  -1.324  0.00  0.00    +0.240 C 
ATOM     32  N   LIG    1        1.449   1.127  -0.247  0.00  0.00    -0.380 N 
ATOM     33  H   LIG    1        1.711   2.062  -0.518  0.00  0.00    +0.430 HD
ATOM     34  C   LIG    1        2.163   0.756   0.981  0.00  0.00    +0.290 C 
BRANCH  28  38
ATOM     35  N   LIG    1        5.285   2.657   0.148  0.00  0.00    -0.830 N 
ATOM     36  H   LIG    1        5.501   3.573  -0.086  0.00  0.00    +0.420 HD
ATOM     37  H   LIG    1        5.989   1.992   0.206  0.00  0.00    +0.410 HD
ATOM     38  C   LIG    1        4.007   2.307   0.392  0.00  0.00    +0.520 C 
ATOM     39  O   LIG    1        3.126   3.138   0.319  0.00  0.00    -0.560 OA
ENDBRANCH  28  38
ENDBRANCH  27  32
ENDBRANCH  21  27
ENDBRANCH   1  24
TORSDOF 8
