REMARK  Name = ZINCzw0000000gBS.0
REMARK                            x       y       z     vdW  Elec       q    Type
REMARK                         _______ _______ _______ _____ _____    ______ ____
ROOT
ATOM      1  N   LIG    1        4.411   0.089   2.277  0.00  0.00    -0.680 N 
ATOM      2  H   LIG    1        4.784   0.670   1.595  0.00  0.00    +0.420 HD
ATOM      3  C   LIG    1        3.140  -0.346   2.170  0.00  0.00    +0.520 C 
ATOM      4  O   LIG    1        2.700  -1.138   2.977  0.00  0.00    -0.500 OA
ENDROOT
BRANCH   3   5
ATOM      5  C   LIG    1        2.265   0.151   1.048  0.00  0.00    +0.000 C 
ATOM      6  C   LIG    1        0.881  -0.493   1.157  0.00  0.00    +0.050 C 
ATOM      7  C   LIG    1        0.006  -0.012  -0.005  0.00  0.00    +0.290 C 
ATOM      8  N   LIG    1       -0.012   1.457  -0.007  0.00  0.00    -0.620 N 
ATOM      9  C   LIG    1        1.268   2.179  -0.018  0.00  0.00    +0.280 C 
ATOM     10  C   LIG    1       -1.180   2.130  -0.004  0.00  0.00    +0.520 C 
ATOM     11  O   LIG    1       -2.229   1.522   0.000  0.00  0.00    -0.500 OA
ATOM     12  C   LIG    1        2.129   1.673   1.144  0.00  0.00    +0.030 C 
BRANCH  10  13
ATOM     13  C   LIG    1       -1.181   3.637  -0.006  0.00  0.00    +0.220 C 
BRANCH  13  14
ATOM     14  O   LIG    1       -2.529   4.112  -0.003  0.00  0.00    -0.290 OA
BRANCH  14  15
ATOM     15  C   LIG    1       -2.708   5.459  -0.004  0.00  0.00    +0.120 A 
ATOM     16  C   LIG    1       -1.609   6.306  -0.003  0.00  0.00    -0.090 A 
ATOM     17  C   LIG    1       -1.794   7.675  -0.010  0.00  0.00    +0.050 A 
ATOM     18  C   LIG    1       -3.073   8.201  -0.007  0.00  0.00    -0.020 A 
ATOM     19  C   LIG    1       -4.169   7.359  -0.002  0.00  0.00    +0.050 A 
ATOM     20  C   LIG    1       -3.990   5.989  -0.001  0.00  0.00    -0.020 A 
ENDBRANCH  14  15
ENDBRANCH  13  14
ENDBRANCH  10  13
ENDBRANCH   3   5
BRANCH   1  24
ATOM     21  C   LIG    1        6.739  -1.058   5.536  0.00  0.00    -0.180 A 
ATOM     22  C   LIG    1        5.820  -1.941   4.999  0.00  0.00    +0.070 A 
ATOM     23  C   LIG    1        5.046  -1.564   3.919  0.00  0.00    +0.030 A 
ATOM     24  C   LIG    1        5.192  -0.296   3.372  0.00  0.00    +0.190 A 
ATOM     25  C   LIG    1        6.120   0.587   3.910  0.00  0.00    +0.000 A 
ATOM     26  C   LIG    1        6.886   0.205   4.994  0.00  0.00    +0.070 A 
BRANCH  21  27
ATOM     27  C   LIG    1        7.581  -1.473   6.715  0.00  0.00    +0.330 C 
BRANCH  27  32
ATOM     28  C   LIG    1       10.844  -3.320   6.879  0.00  0.00    -0.010 C 
ATOM     29  C   LIG    1       11.707  -2.333   6.087  0.00  0.00    +0.060 C 
ATOM     30  C   LIG    1       10.876  -1.750   4.940  0.00  0.00    +0.070 C 
ATOM     31  C   LIG    1        9.619  -1.092   5.512  0.00  0.00    +0.240 C 
ATOM     32  N   LIG    1        8.824  -2.092   6.235  0.00  0.00    -0.380 N 
ATOM     33  H   LIG    1        8.601  -2.854   5.613  0.00  0.00    +0.420 HD
ATOM     34  C   LIG    1        9.588  -2.603   7.379  0.00  0.00    +0.290 C 
BRANCH  28  38
ATOM     35  N   LIG    1       12.780  -4.511   7.855  0.00  0.00    -0.840 N 
ATOM     36  H   LIG    1       13.284  -4.847   8.612  0.00  0.00    +0.420 HD
ATOM     37  H   LIG    1       13.104  -4.658   6.953  0.00  0.00    +0.410 HD
ATOM     38  C   LIG    1       11.628  -3.841   8.056  0.00  0.00    +0.530 C 
ATOM     39  O   LIG    1       11.222  -3.658   9.184  0.00  0.00    -0.530 OA
ENDBRANCH  28  38
ENDBRANCH  27  32
ENDBRANCH  21  27
ENDBRANCH   1  24
TORSDOF 8
