REMARK  Name = ZINCrH00000No57l.0
REMARK                            x       y       z     vdW  Elec       q    Type
REMARK                         _______ _______ _______ _____ _____    ______ ____
ROOT
ATOM      1  N   LIG    1       -0.242   1.246   2.466  0.00  0.00    -0.580 N 
ATOM      2  H   LIG    1        0.555   0.699   2.544  0.00  0.00    +0.390 HD
ATOM      3  C   LIG    1       -0.718   1.572   1.248  0.00  0.00    +0.550 C 
ATOM      4  O   LIG    1       -1.715   2.256   1.150  0.00  0.00    -0.480 OA
ENDROOT
BRANCH   1   7
ATOM      5  C   LIG    1        0.800   0.534   4.913  0.00  0.00    +0.090 C 
ATOM      6  C   LIG    1       -0.439   1.384   4.791  0.00  0.00    +0.150 C 
ATOM      7  N   LIG    1       -0.897   1.698   3.618  0.00  0.00    -0.230 NA
BRANCH   6   8
ATOM      8  C   LIG    1       -1.129   1.859   6.004  0.00  0.00    -0.050 A 
ATOM      9  C   LIG    1       -0.637   1.523   7.268  0.00  0.00    +0.050 A 
ATOM     10  C   LIG    1       -1.285   1.969   8.400  0.00  0.00    +0.020 A 
ATOM     11  C   LIG    1       -2.426   2.753   8.290  0.00  0.00    +0.070 A 
ATOM     12  O   LIG    1       -3.051   3.179   9.422  0.00  0.00    -0.310 OA
ATOM     13  C   LIG    1       -3.970   4.267   9.280  0.00  0.00    +0.230 C 
ATOM     14  C   LIG    1       -4.869   3.982   8.069  0.00  0.00    +0.230 C 
ATOM     15  O   LIG    1       -4.035   3.865   6.911  0.00  0.00    -0.300 OA
ATOM     16  C   LIG    1       -2.921   3.094   7.034  0.00  0.00    +0.050 A 
ATOM     17  C   LIG    1       -2.273   2.653   5.894  0.00  0.00    +0.080 A 
ENDBRANCH   6   8
ENDBRANCH   1   7
BRANCH   3  18
ATOM     18  C   LIG    1       -0.013   1.086   0.008  0.00  0.00    +0.110 C 
BRANCH  18  19
ATOM     19  S   LIG    1       -0.888   1.685  -1.458  0.00  0.00    +0.100 S 
BRANCH  19  20
ATOM     20  C   LIG    1        0.122   0.990  -2.724  0.00  0.00    +0.070 A 
ATOM     21  N   LIG    1        1.175   0.274  -2.515  0.00  0.00    -0.470 NA
ATOM     22  C   LIG    1        1.842  -0.192  -3.589  0.00  0.00    +0.090 A 
ATOM     23  C   LIG    1        3.005  -0.990  -3.628  0.00  0.00    +0.070 A 
ATOM     24  C   LIG    1        3.550  -1.366  -4.830  0.00  0.00    +0.040 A 
ATOM     25  C   LIG    1        2.969  -0.968  -6.024  0.00  0.00    +0.040 A 
ATOM     26  C   LIG    1        1.833  -0.188  -6.011  0.00  0.00    +0.060 A 
ATOM     27  C   LIG    1        1.266   0.202  -4.801  0.00  0.00    -0.180 A 
ATOM     28  S   LIG    1       -0.157   1.180  -4.449  0.00  0.00    +0.120 S 
ENDBRANCH  19  20
ENDBRANCH  18  19
ENDBRANCH   3  18
TORSDOF 5
