REMARK  Name = ZINCrH000004of4n.0
REMARK                            x       y       z     vdW  Elec       q    Type
REMARK                         _______ _______ _______ _____ _____    ______ ____
ROOT
ATOM      1  N   LIG    1        2.343  -2.664   0.825  0.00  0.00    -0.720 N 
ATOM      2  H   LIG    1        3.119  -2.112   1.008  0.00  0.00    +0.400 HD
ATOM      3  C   LIG    1        2.233  -3.882   1.390  0.00  0.00    +0.550 C 
ATOM      4  O   LIG    1        1.222  -4.534   1.235  0.00  0.00    -0.520 OA
ENDROOT
BRANCH   3   5
ATOM      5  C   LIG    1        3.367  -4.435   2.215  0.00  0.00    -0.070 C 
ATOM      6  C   LIG    1        4.554  -4.934   1.374  0.00  0.00    +0.060 C 
ATOM      7  C   LIG    1        3.846  -6.302   1.334  0.00  0.00    +0.030 C 
ATOM      8  C   LIG    1        3.158  -5.896   2.648  0.00  0.00    +0.070 C 
BRANCH   5   9
ATOM      9  C   LIG    1        3.769  -3.522   3.344  0.00  0.00    -0.040 A 
ATOM     10  C   LIG    1        5.015  -2.923   3.338  0.00  0.00    +0.000 A 
ATOM     11  C   LIG    1        5.384  -2.084   4.374  0.00  0.00    +0.050 A 
ATOM     12  C   LIG    1        4.509  -1.844   5.415  0.00  0.00    -0.010 A 
ATOM     13  C   LIG    1        3.260  -2.443   5.422  0.00  0.00    +0.100 A 
ATOM     14  F   LIG    1        2.403  -2.209   6.440  0.00  0.00    -0.140 F 
ATOM     15  C   LIG    1        2.889  -3.279   4.382  0.00  0.00    -0.010 A 
ENDBRANCH   5   9
ENDBRANCH   3   5
BRANCH   1  17
ATOM     16  C   LIG    1        1.539  -2.691  -1.485  0.00  0.00    +0.040 C 
ATOM     17  C   LIG    1        1.290  -2.172  -0.067  0.00  0.00    +0.280 C 
BRANCH  17  18
ATOM     18  C   LIG    1        1.300  -0.665  -0.074  0.00  0.00    -0.090 A 
ATOM     19  C   LIG    1        0.106   0.033  -0.080  0.00  0.00    +0.060 A 
ATOM     20  C   LIG    1        0.112   1.414  -0.087  0.00  0.00    +0.030 A 
ATOM     21  C   LIG    1        1.319   2.101  -0.089  0.00  0.00    +0.150 A 
ATOM     22  C   LIG    1        2.515   1.398  -0.083  0.00  0.00    +0.010 A 
ATOM     23  C   LIG    1        2.503   0.016  -0.076  0.00  0.00    +0.040 A 
BRANCH  21  24
ATOM     24  N   LIG    1        1.328   3.503  -0.096  0.00  0.00    -0.330 N 
ATOM     25  C   LIG    1        2.412   4.304  -0.093  0.00  0.00    +0.480 A 
ATOM     26  N   LIG    1        1.998   5.545  -0.106  0.00  0.00    -0.530 NA
ATOM     27  C   LIG    1        0.666   5.578  -0.108  0.00  0.00    +0.440 A 
ATOM     28  N   LIG    1        0.210   4.353  -0.102  0.00  0.00    -0.310 NA
ENDBRANCH  21  24
ENDBRANCH  17  18
ENDBRANCH   1  17
TORSDOF 5
