REMARK  Name = ZINCrH000004nOH9.0
REMARK                            x       y       z     vdW  Elec       q    Type
REMARK                         _______ _______ _______ _____ _____    ______ ____
ROOT
ATOM      1  N   LIG    1       -0.242   1.246   2.466  0.00  0.00    -0.640 N 
ATOM      2  H   LIG    1        0.555   0.699   2.544  0.00  0.00    +0.430 HD
ATOM      3  C   LIG    1       -0.718   1.572   1.248  0.00  0.00    +0.510 C 
ATOM      4  O   LIG    1       -1.714   2.256   1.150  0.00  0.00    -0.460 OA
ENDROOT
BRANCH   1  10
ATOM      5  C   LIG    1       -3.249   3.319   7.428  0.00  0.00    -0.660 A 
ATOM      6  C   LIG    1       -3.984   3.823   6.365  0.00  0.00    +0.130 A 
ATOM      7  C   LIG    1       -3.609   3.563   5.071  0.00  0.00    +0.060 A 
ATOM      8  C   LIG    1       -2.468   2.778   4.802  0.00  0.00    +0.160 A 
ATOM      9  N   LIG    1       -1.948   2.426   3.609  0.00  0.00    -0.480 NA
ATOM     10  C   LIG    1       -0.890   1.693   3.606  0.00  0.00    +0.360 A 
ATOM     11  S   LIG    1       -0.380   1.345   5.252  0.00  0.00    +0.080 S 
ATOM     12  C   LIG    1       -1.736   2.277   5.883  0.00  0.00    -0.210 A 
ATOM     13  C   LIG    1       -2.132   2.550   7.190  0.00  0.00    +0.200 A 
BRANCH   5  15
ATOM     14  C   LIG    1       -2.878   5.197   9.508  0.00  0.00    -0.250 C 
ATOM     15  S   LIG    1       -3.746   3.662   9.084  0.00  0.00    +2.500 S 
ATOM     16  O   LIG    1       -3.230   2.573   9.837  0.00  0.00    -0.930 OA
ATOM     17  O   LIG    1       -5.146   3.889   8.990  0.00  0.00    -0.930 OA
ENDBRANCH   5  15
ENDBRANCH   1  10
BRANCH   3  18
ATOM     18  C   LIG    1       -0.013   1.086   0.008  0.00  0.00    +0.070 C 
BRANCH  18  19
ATOM     19  C   LIG    1       -0.753   1.593  -1.232  0.00  0.00    +0.130 C 
BRANCH  19  20
ATOM     20  C   LIG    1       -0.047   1.107  -2.471  0.00  0.00    -0.170 A 
ATOM     21  C   LIG    1        0.872   1.779  -3.183  0.00  0.00    +0.230 A 
ATOM     22  N   LIG    1        1.289   1.020  -4.242  0.00  0.00    -0.600 N 
ATOM     23  H   LIG    1        1.949   1.293  -4.898  0.00  0.00    +0.420 HD
ATOM     24  C   LIG    1        0.632  -0.191  -4.238  0.00  0.00    +0.090 A 
ATOM     25  C   LIG    1        0.676  -1.307  -5.066  0.00  0.00    -0.010 A 
ATOM     26  C   LIG    1       -0.124  -2.394  -4.793  0.00  0.00    +0.030 A 
ATOM     27  C   LIG    1       -0.977  -2.388  -3.697  0.00  0.00    -0.020 A 
ATOM     28  C   LIG    1       -1.037  -1.302  -2.870  0.00  0.00    +0.050 A 
ATOM     29  C   LIG    1       -0.230  -0.191  -3.126  0.00  0.00    -0.100 A 
ENDBRANCH  19  20
ENDBRANCH  18  19
ENDBRANCH   3  18
TORSDOF 5
