REMARK  Name = ZINCpk00000ebpFP.0
REMARK                            x       y       z     vdW  Elec       q    Type
REMARK                         _______ _______ _______ _____ _____    ______ ____
ROOT
ATOM      1  N   LIG    1        0.002  -0.004   0.002  0.00  0.00    -0.670 N 
ATOM      2  H   LIG    1        0.845  -0.477  -0.083  0.00  0.00    +0.420 HD
ATOM      3  C   LIG    1       -0.016   1.343   0.011  0.00  0.00    +0.520 C 
ATOM      4  O   LIG    1       -1.074   1.936   0.027  0.00  0.00    -0.480 OA
ENDROOT
BRANCH   1   8
ATOM      5  C   LIG    1       -3.560  -2.138   0.339  0.00  0.00    -0.690 A 
ATOM      6  C   LIG    1       -3.537  -0.938  -0.349  0.00  0.00    +0.150 A 
ATOM      7  C   LIG    1       -2.357  -0.229  -0.462  0.00  0.00    +0.010 A 
ATOM      8  C   LIG    1       -1.194  -0.721   0.115  0.00  0.00    +0.210 A 
ATOM      9  C   LIG    1       -1.220  -1.928   0.800  0.00  0.00    -0.020 A 
ATOM     10  C   LIG    1       -2.404  -2.631   0.915  0.00  0.00    +0.150 A 
BRANCH   5  11
ATOM     11  S   LIG    1       -5.067  -3.040   0.481  0.00  0.00    +2.700 S 
ATOM     12  O   LIG    1       -6.117  -2.097   0.314  0.00  0.00    -0.960 OA
ATOM     13  O   LIG    1       -4.936  -3.862   1.633  0.00  0.00    -0.960 OA
BRANCH  11  14
ATOM     14  N   LIG    1       -5.149  -4.065  -0.818  0.00  0.00    -1.250 NA
ATOM     15  H   LIG    1       -5.912  -4.655  -0.923  0.00  0.00    +0.420 HD
ATOM     16  H   LIG    1       -4.433  -4.076  -1.473  0.00  0.00    +0.420 HD
ENDBRANCH  11  14
ENDBRANCH   5  11
ENDBRANCH   1   8
BRANCH   3  17
ATOM     17  C   LIG    1        1.279   2.115  -0.006  0.00  0.00    +0.270 C 
BRANCH  17  18
ATOM     18  O   LIG    1        0.994   3.538   0.008  0.00  0.00    -0.330 OA
BRANCH  18  19
ATOM     19  C   LIG    1        2.051   4.374  -0.004  0.00  0.00    +0.520 C 
ATOM     20  O   LIG    1        3.180   3.925  -0.026  0.00  0.00    -0.480 OA
BRANCH  19  21
ATOM     21  C   LIG    1        1.839   5.832   0.008  0.00  0.00    -0.150 A 
ATOM     22  C   LIG    1        0.542   6.353   0.028  0.00  0.00    +0.130 A 
ATOM     23  C   LIG    1        0.350   7.719   0.045  0.00  0.00    -0.060 A 
ATOM     24  C   LIG    1        1.438   8.578   0.032  0.00  0.00    +0.100 A 
ATOM     25  C   LIG    1        2.725   8.075   0.008  0.00  0.00    +0.000 A 
ATOM     26 CL   LIG    1       -1.260   8.365   0.075  0.00  0.00    -0.050 Cl
ATOM     27  C   LIG    1        2.936   6.705  -0.004  0.00  0.00    +0.180 A 
BRANCH  27  28
ATOM     28  O   LIG    1        4.199   6.211  -0.029  0.00  0.00    -0.480 OA
ATOM     29  H   LIG    1        4.551   6.074  -0.920  0.00  0.00    +0.400 HD
ENDBRANCH  27  28
ENDBRANCH  19  21
ENDBRANCH  18  19
ENDBRANCH  17  18
ENDBRANCH   3  17
TORSDOF 8
