REMARK  Name = ZINCkj00000GeRda.0
REMARK                            x       y       z     vdW  Elec       q    Type
REMARK                         _______ _______ _______ _____ _____    ______ ____
ROOT
ATOM      1  O   LIG    1       -3.959   1.999  -1.540  0.00  0.00    -0.550 OA
ATOM      2  C   LIG    1       -2.761   2.205  -1.508  0.00  0.00    +0.700 C 
ATOM      3  N   LIG    1       -1.933   1.279  -0.986  0.00  0.00    -0.640 N 
ATOM      4  C   LIG    1       -0.475   1.505  -1.060  0.00  0.00    +0.280 C 
ATOM      5  C   LIG    1        0.215   1.103   0.256  0.00  0.00    +0.070 C 
ATOM      6  C   LIG    1       -0.644   1.528   1.426  0.00  0.00    +0.260 C 
ATOM      7  N   LIG    1       -1.508   0.416   1.819  0.00  0.00    -0.370 N 
ATOM      8  C   LIG    1       -2.742   0.350   1.133  0.00  0.00    +0.230 C 
ATOM      9  H   LIG    1       -1.009  -0.447   1.660  0.00  0.00    +0.430 HD
ATOM     10  C   LIG    1       -2.503   0.096  -0.374  0.00  0.00    +0.350 C 
ATOM     11  N   LIG    1       -2.262   3.358  -1.993  0.00  0.00    -0.680 N 
ATOM     12  H   LIG    1       -1.317   3.554  -1.904  0.00  0.00    +0.410 HD
ENDROOT
BRANCH  11  13
ATOM     13  C   LIG    1       -3.109   4.275  -2.627  0.00  0.00    +0.170 A 
ATOM     14  C   LIG    1       -2.644   5.024  -3.700  0.00  0.00    -0.020 A 
ATOM     15  C   LIG    1       -3.482   5.926  -4.327  0.00  0.00    +0.070 A 
ATOM     16  C   LIG    1       -4.781   6.090  -3.882  0.00  0.00    -0.020 A 
ATOM     17  C   LIG    1       -5.247   5.348  -2.809  0.00  0.00    +0.120 A 
ATOM     18  F   LIG    1       -6.517   5.510  -2.377  0.00  0.00    -0.130 F 
ATOM     19  C   LIG    1       -4.413   4.441  -2.181  0.00  0.00    -0.010 A 
ENDBRANCH  11  13
BRANCH   7  20
ATOM     20  C   LIG    1       -1.784   0.532   3.257  0.00  0.00    +0.270 C 
BRANCH  20  21
ATOM     21  C   LIG    1       -2.429  -0.760   3.759  0.00  0.00    +0.210 C 
BRANCH  21  22
ATOM     22  O   LIG    1       -1.499  -1.838   3.632  0.00  0.00    -0.580 OA
ATOM     23  H   LIG    1       -1.842  -2.691   3.933  0.00  0.00    +0.410 HD
ENDBRANCH  21  22
ENDBRANCH  20  21
ENDBRANCH   7  20
TORSDOF 4
