REMARK  Name = ZINCkj00000GeRda.1
REMARK                            x       y       z     vdW  Elec       q    Type
REMARK                         _______ _______ _______ _____ _____    ______ ____
ROOT
ATOM      1  O   LIG    1       -4.376   3.096  -0.081  0.00  0.00    -0.540 OA
ATOM      2  C   LIG    1       -3.797   2.399  -0.892  0.00  0.00    +0.700 C 
ATOM      3  N   LIG    1       -3.147   1.290  -0.486  0.00  0.00    -0.630 N 
ATOM      4  C   LIG    1       -3.244   0.887   0.931  0.00  0.00    +0.310 C 
ATOM      5  C   LIG    1       -1.881   0.409   1.465  0.00  0.00    +0.060 C 
ATOM      6  C   LIG    1       -0.786   1.296   0.915  0.00  0.00    +0.260 C 
ATOM      7  N   LIG    1       -0.248   0.698  -0.304  0.00  0.00    -0.360 N 
ATOM      8  C   LIG    1       -0.927   1.057  -1.490  0.00  0.00    +0.230 C 
ATOM      9  H   LIG    1       -0.282  -0.306  -0.209  0.00  0.00    +0.430 HD
ATOM     10  C   LIG    1       -2.381   0.536  -1.456  0.00  0.00    +0.320 C 
ATOM     11  N   LIG    1       -3.804   2.737  -2.197  0.00  0.00    -0.680 N 
ATOM     12  H   LIG    1       -3.279   2.225  -2.833  0.00  0.00    +0.410 HD
ENDROOT
BRANCH  11  13
ATOM     13  C   LIG    1       -4.568   3.825  -2.634  0.00  0.00    +0.180 A 
ATOM     14  C   LIG    1       -4.130   4.598  -3.701  0.00  0.00    -0.030 A 
ATOM     15  C   LIG    1       -4.885   5.671  -4.132  0.00  0.00    +0.070 A 
ATOM     16  C   LIG    1       -6.077   5.977  -3.502  0.00  0.00    -0.020 A 
ATOM     17  C   LIG    1       -6.518   5.208  -2.437  0.00  0.00    +0.130 A 
ATOM     18  F   LIG    1       -7.683   5.509  -1.824  0.00  0.00    -0.130 F 
ATOM     19  C   LIG    1       -5.768   4.129  -2.006  0.00  0.00    -0.010 A 
ENDBRANCH  11  13
BRANCH   7  20
ATOM     20  C   LIG    1        1.159   1.101  -0.436  0.00  0.00    +0.270 C 
BRANCH  20  21
ATOM     21  C   LIG    1        1.976   0.478   0.697  0.00  0.00    +0.210 C 
BRANCH  21  22
ATOM     22  O   LIG    1        1.960  -0.945   0.570  0.00  0.00    -0.580 OA
ATOM     23  H   LIG    1        2.459  -1.407   1.257  0.00  0.00    +0.410 HD
ENDBRANCH  21  22
ENDBRANCH  20  21
ENDBRANCH   7  20
TORSDOF 4
