REMARK  Name = ZINCpk00000e9y3w.0
REMARK                            x       y       z     vdW  Elec       q    Type
REMARK                         _______ _______ _______ _____ _____    ______ ____
ROOT
ATOM      1  N   LIG    1        4.643   5.065   1.178  0.00  0.00    -0.530 NA
ATOM      2  C   LIG    1        5.062   3.692   1.488  0.00  0.00    +0.170 C 
ATOM      3  C   LIG    1        4.581   2.752   0.378  0.00  0.00    +0.300 C 
ATOM      4  N   LIG    1        3.132   2.936   0.205  0.00  0.00    -0.600 N 
ATOM      5  C   LIG    1        2.622   4.303   0.021  0.00  0.00    +0.280 C 
ATOM      6  C   LIG    1        2.295   1.879   0.210  0.00  0.00    +0.590 C 
ATOM      7  O   LIG    1        2.744   0.748   0.237  0.00  0.00    -0.550 OA
ATOM      8  C   LIG    1        3.179   5.182   1.151  0.00  0.00    +0.170 C 
ENDROOT
BRANCH   6   9
ATOM      9  C   LIG    1        0.845   2.093   0.183  0.00  0.00    -0.050 A 
ATOM     10  C   LIG    1        0.175   3.200   0.659  0.00  0.00    +0.000 A 
ATOM     11  C   LIG    1       -1.188   2.982   0.437  0.00  0.00    -0.060 A 
ATOM     12  C   LIG    1       -1.324   1.777  -0.165  0.00  0.00    +0.190 A 
ATOM     13  N   LIG    1       -0.097   1.224  -0.322  0.00  0.00    -0.400 N 
BRANCH  13  14
ATOM     14  C   LIG    1        0.182  -0.080  -0.927  0.00  0.00    +0.360 C 
BRANCH  14  15
ATOM     15  C   LIG    1       -0.007  -1.163   0.103  0.00  0.00    -0.170 A 
ATOM     16  C   LIG    1       -1.243  -1.771   0.263  0.00  0.00    +0.070 A 
ATOM     17  C   LIG    1       -1.370  -2.763   1.223  0.00  0.00    -0.040 A 
ATOM     18  C   LIG    1       -0.270  -3.111   1.983  0.00  0.00    +0.270 A 
ATOM     19  N   LIG    1        0.891  -2.510   1.804  0.00  0.00    -0.490 NA
ATOM     20  C   LIG    1        1.050  -1.567   0.897  0.00  0.00    +0.310 A 
ENDBRANCH  14  15
ENDBRANCH  13  14
ENDBRANCH   6   9
BRANCH   1  21
ATOM     21  C   LIG    1        5.230   6.021   2.127  0.00  0.00    +0.140 C 
BRANCH  21  22
ATOM     22  C   LIG    1        4.583   7.394   1.933  0.00  0.00    +0.200 C 
BRANCH  22  24
ATOM     23  C   LIG    1        4.462   9.729   2.814  0.00  0.00    +0.010 C 
ATOM     24  C   LIG    1        5.194   8.390   2.921  0.00  0.00    -0.020 C 
ENDBRANCH  22  24
BRANCH  22  25
ATOM     25  O   LIG    1        4.814   7.846   0.598  0.00  0.00    -0.550 OA
ATOM     26  H   LIG    1        5.750   7.936   0.369  0.00  0.00    +0.380 HD
ENDBRANCH  22  25
ENDBRANCH  21  22
ENDBRANCH   1  21
TORSDOF 7
