REMARK  Name = ZINCrH00000rn20B.0
REMARK                            x       y       z     vdW  Elec       q    Type
REMARK                         _______ _______ _______ _____ _____    ______ ____
ROOT
ATOM      1  C   LIG    1        1.965   4.144  -3.111  0.00  0.00    +0.260 C 
ENDROOT
BRANCH   1   2
ATOM      2  C   LIG    1        1.537   3.643  -1.755  0.00  0.00    +0.520 C 
ATOM      3  N   LIG    1        2.202   2.627  -1.171  0.00  0.00    -0.710 N 
ATOM      4  H   LIG    1        2.909   2.170  -1.652  0.00  0.00    +0.400 HD
ATOM      5  O   LIG    1        0.593   4.155  -1.190  0.00  0.00    -0.530 OA
BRANCH   3   6
ATOM      6  C   LIG    1        1.857   2.214   0.192  0.00  0.00    +0.280 C 
ATOM      7  C   LIG    1        3.042   1.469   0.842  0.00  0.00    +0.050 C 
ATOM      8  C   LIG    1        2.731  -0.005   0.507  0.00  0.00    +0.070 C 
ATOM      9  C   LIG    1        1.227  -0.066   0.346  0.00  0.00    -0.090 A 
ATOM     10  C   LIG    1        0.367  -1.151   0.356  0.00  0.00    +0.010 A 
ATOM     11  C   LIG    1       -0.991  -0.963   0.186  0.00  0.00    +0.010 A 
ATOM     12  C   LIG    1       -1.494   0.312   0.005  0.00  0.00    -0.010 A 
ATOM     13  C   LIG    1       -0.636   1.395  -0.010  0.00  0.00    +0.050 A 
ATOM     14  C   LIG    1        0.725   1.209   0.165  0.00  0.00    -0.120 A 
ENDBRANCH   3   6
ENDBRANCH   1   2
BRANCH   1  15
ATOM     15  N   LIG    1        1.629   5.564  -3.236  0.00  0.00    -0.700 N 
ATOM     16  H   LIG    1        0.909   5.941  -2.706  0.00  0.00    +0.420 HD
ATOM     17  C   LIG    1        2.321   6.348  -4.086  0.00  0.00    +0.650 C 
ATOM     18  O   LIG    1        3.223   5.876  -4.750  0.00  0.00    -0.560 OA
BRANCH  17  19
ATOM     19  O   LIG    1        2.012   7.653  -4.201  0.00  0.00    -0.360 OA
BRANCH  19  20
ATOM     20  C   LIG    1        2.799   8.437  -5.137  0.00  0.00    +0.290 C 
BRANCH  20  21
ATOM     21  C   LIG    1        2.313   9.864  -5.130  0.00  0.00    -0.100 A 
ATOM     22  C   LIG    1        1.317  10.259  -6.003  0.00  0.00    +0.040 A 
ATOM     23  C   LIG    1        0.869  11.566  -5.993  0.00  0.00    +0.010 A 
ATOM     24  C   LIG    1        1.423  12.481  -5.117  0.00  0.00    +0.020 A 
ATOM     25  C   LIG    1        2.423  12.087  -4.248  0.00  0.00    +0.010 A 
ATOM     26  C   LIG    1        2.868  10.778  -4.255  0.00  0.00    +0.030 A 
ENDBRANCH  20  21
ENDBRANCH  19  20
ENDBRANCH  17  19
ENDBRANCH   1  15
BRANCH   1  28
ATOM     27  C   LIG    1        1.745   3.792  -5.574  0.00  0.00    +0.040 C 
ATOM     28  C   LIG    1        1.239   3.350  -4.199  0.00  0.00    -0.020 C 
ATOM     29  C   LIG    1        1.513   1.857  -4.011  0.00  0.00    +0.030 C 
ENDBRANCH   1  28
TORSDOF 7
