REMARK  Name = ZINCqH000000703O.0
REMARK                            x       y       z     vdW  Elec       q    Type
REMARK                         _______ _______ _______ _____ _____    ______ ____
ROOT
ATOM      1  C   LIG    1        5.788   6.350   1.392  0.00  0.00    +0.230 A 
ATOM      2  N   LIG    1        6.285   5.145   1.506  0.00  0.00    -0.370 NA
ATOM      3  O   LIG    1        5.391   4.326   1.535  0.00  0.00    +0.080 OA
ATOM      4  C   LIG    1        4.206   4.938   1.440  0.00  0.00    +0.180 A 
ATOM      5  N   LIG    1        4.442   6.222   1.343  0.00  0.00    -0.470 NA
ENDROOT
BRANCH   1   9
ATOM      6  C   LIG    1        7.990   9.983   1.193  0.00  0.00    +0.160 A 
ATOM      7  C   LIG    1        6.603  10.009   1.136  0.00  0.00    -0.080 A 
ATOM      8  C   LIG    1        5.886   8.833   1.195  0.00  0.00    +0.110 A 
ATOM      9  C   LIG    1        6.556   7.617   1.323  0.00  0.00    -0.070 A 
ATOM     10  C   LIG    1        7.948   7.593   1.380  0.00  0.00    -0.010 A 
ATOM     11  C   LIG    1        8.676   6.280   1.513  0.00  0.00    +0.110 C 
ATOM     12  C   LIG    1        8.659   8.773   1.315  0.00  0.00    -0.020 A 
BRANCH   6  14
ATOM     13  C   LIG    1        7.941  12.352   1.004  0.00  0.00    +0.240 C 
ATOM     14  O   LIG    1        8.693  11.143   1.129  0.00  0.00    -0.310 OA
ENDBRANCH   6  14
ENDBRANCH   1   9
BRANCH   4  15
ATOM     15  C   LIG    1        2.854   4.273   1.438  0.00  0.00    +0.200 C 
BRANCH  15  16
ATOM     16  C   LIG    1        2.454   3.935   0.000  0.00  0.00    +0.070 C 
ATOM     17  C   LIG    1        2.272   5.228  -0.796  0.00  0.00    +0.080 C 
ATOM     18  C   LIG    1        1.023   5.936  -0.345  0.00  0.00    +0.520 C 
ATOM     19  N   LIG    1       -0.066   5.240   0.030  0.00  0.00    -0.670 N 
ATOM     20  H   LIG    1       -0.868   5.712   0.307  0.00  0.00    +0.410 HD
ATOM     21  C   LIG    1       -0.051   3.842   0.023  0.00  0.00    +0.170 A 
ATOM     22  C   LIG    1       -1.243   3.131   0.030  0.00  0.00    -0.020 A 
ATOM     23  C   LIG    1       -1.220   1.749   0.017  0.00  0.00    +0.050 A 
ATOM     24  C   LIG    1       -0.013   1.076   0.008  0.00  0.00    -0.010 A 
ATOM     25  C   LIG    1        1.177   1.782   0.000  0.00  0.00    +0.060 A 
ATOM     26  O   LIG    1        0.997   7.149  -0.319  0.00  0.00    -0.510 OA
ATOM     27  C   LIG    1        1.160   3.163   0.008  0.00  0.00    -0.130 A 
ENDBRANCH  15  16
ENDBRANCH   4  15
TORSDOF 4
