REMARK  Name = ZINCnE000001JXtt.1
REMARK                            x       y       z     vdW  Elec       q    Type
REMARK                         _______ _______ _______ _____ _____    ______ ____
ROOT
ATOM      1  C   LIG    1        0.604  -2.054  -1.026  0.00  0.00    +0.380 A 
ATOM      2  N   LIG    1        1.134  -2.791  -1.951  0.00  0.00    -0.550 NA
ATOM      3  C   LIG    1        1.058  -4.105  -1.792  0.00  0.00    +0.130 A 
ATOM      4  C   LIG    1        0.431  -4.515  -0.674  0.00  0.00    -0.310 A 
ATOM      5  C   LIG    1        0.212  -5.947  -0.259  0.00  0.00    +0.110 C 
ATOM      6  S   LIG    1       -0.082  -3.088   0.224  0.00  0.00    -0.010 S 
ENDROOT
BRANCH   3   7
ATOM      7  C   LIG    1        1.624  -5.057  -2.778  0.00  0.00    -0.030 A 
ATOM      8  C   LIG    1        2.192  -6.255  -2.345  0.00  0.00    +0.060 A 
ATOM      9  C   LIG    1        2.714  -7.141  -3.265  0.00  0.00    -0.090 A 
ATOM     10  C   LIG    1        2.683  -6.836  -4.619  0.00  0.00    +0.110 A 
ATOM     11  C   LIG    1        2.123  -5.642  -5.052  0.00  0.00    -0.020 A 
ATOM     12  C   LIG    1        1.595  -4.755  -4.138  0.00  0.00    +0.090 A 
BRANCH  10  13
ATOM     13  O   LIG    1        3.202  -7.709  -5.522  0.00  0.00    -0.320 OA
ATOM     14  C   LIG    1        3.763  -8.918  -5.008  0.00  0.00    +0.230 C 
ENDBRANCH  10  13
ENDBRANCH   3   7
BRANCH   1  16
ATOM     15  C   LIG    1        0.002  -0.004   0.002  0.00  0.00    +0.470 C 
ATOM     16  N   LIG    1        0.585  -0.664  -1.018  0.00  0.00    -0.660 NA
ATOM     17  O   LIG    1       -0.506  -0.622   0.913  0.00  0.00    -0.590 OA
BRANCH  15  18
ATOM     18  C   LIG    1       -0.018   1.503   0.010  0.00  0.00    +0.120 C 
BRANCH  18  19
ATOM     19  S   LIG    1       -0.867   2.088   1.503  0.00  0.00    -0.190 S 
BRANCH  19  20
ATOM     20  C   LIG    1       -0.791   3.892   1.335  0.00  0.00    +0.060 C 
BRANCH  20  21
ATOM     21  C   LIG    1       -1.477   4.546   2.536  0.00  0.00    +0.200 C 
BRANCH  21  23
ATOM     22  C   LIG    1       -2.032   6.678   3.480  0.00  0.00    +0.200 C 
ATOM     23  O   LIG    1       -1.417   5.968   2.404  0.00  0.00    -0.390 OA
ENDBRANCH  21  23
ENDBRANCH  20  21
ENDBRANCH  19  20
ENDBRANCH  18  19
ENDBRANCH  15  18
ENDBRANCH   1  16
TORSDOF 8
