REMARK  Name = ZINCrD00000hQ4Zq.0
REMARK                            x       y       z     vdW  Elec       q    Type
REMARK                         _______ _______ _______ _____ _____    ______ ____
ROOT
ATOM      1  C   LIG    1       -0.017   1.428   0.010  0.00  0.00    -0.100 C 
ATOM      2  C   LIG    1       -1.206   2.091   0.019  0.00  0.00    +0.150 C 
ATOM      3  N   LIG    1       -1.239   3.470   0.031  0.00  0.00    -0.660 N 
ATOM      4  H   LIG    1       -2.046   3.929   0.312  0.00  0.00    +0.410 HD
ATOM      5  C   LIG    1       -0.164   4.185  -0.348  0.00  0.00    +0.530 C 
ATOM      6  C   LIG    1        1.096   3.491  -0.794  0.00  0.00    +0.110 C 
ATOM      7  O   LIG    1       -0.210   5.396  -0.330  0.00  0.00    -0.500 OA
ATOM      8  C   LIG    1        1.278   2.197   0.002  0.00  0.00    +0.140 C 
ENDROOT
BRANCH   8   9
ATOM      9  C   LIG    1        1.674   2.529   1.417  0.00  0.00    -0.120 A 
ATOM     10  C   LIG    1        0.837   3.293   2.208  0.00  0.00    +0.040 A 
ATOM     11  C   LIG    1        1.201   3.599   3.507  0.00  0.00    +0.010 A 
ATOM     12  C   LIG    1        2.401   3.140   4.015  0.00  0.00    +0.050 A 
ATOM     13  C   LIG    1        3.240   2.375   3.226  0.00  0.00    -0.010 A 
ATOM     14  C   LIG    1        2.874   2.064   1.928  0.00  0.00    +0.110 A 
ATOM     15  F   LIG    1        3.691   1.312   1.157  0.00  0.00    -0.130 F 
ENDBRANCH   8   9
BRANCH   1  17
ATOM     16  N   LIG    1        0.018  -1.140  -0.004  0.00  0.00    -0.390 NA
ATOM     17  C   LIG    1        0.002  -0.004   0.002  0.00  0.00    +0.250 C 
ENDBRANCH   1  17
BRANCH   2  18
ATOM     18  S   LIG    1       -2.715   1.181   0.021  0.00  0.00    +0.050 S 
BRANCH  18  19
ATOM     19  C   LIG    1       -3.905   2.545   0.035  0.00  0.00    +0.070 C 
BRANCH  19  20
ATOM     20  C   LIG    1       -5.306   1.990   0.038  0.00  0.00    +0.540 C 
ATOM     21  N   LIG    1       -6.362   2.826   0.048  0.00  0.00    -0.720 N 
ATOM     22  H   LIG    1       -6.221   3.786   0.052  0.00  0.00    +0.400 HD
ATOM     23  O   LIG    1       -5.482   0.790   0.033  0.00  0.00    -0.510 OA
BRANCH  21  24
ATOM     24  C   LIG    1       -7.724   2.286   0.051  0.00  0.00    +0.240 C 
ATOM     25  C   LIG    1       -8.159   1.989  -1.385  0.00  0.00    +0.000 C 
ATOM     26  C   LIG    1       -9.581   1.425  -1.381  0.00  0.00    +0.020 C 
ATOM     27  C   LIG    1      -10.534   2.449  -0.762  0.00  0.00    +0.010 C 
ATOM     28  C   LIG    1      -10.100   2.747   0.675  0.00  0.00    +0.020 C 
ATOM     29  C   LIG    1       -8.677   3.310   0.671  0.00  0.00    +0.010 C 
ENDBRANCH  21  24
ENDBRANCH  19  20
ENDBRANCH  18  19
ENDBRANCH   2  18
TORSDOF 6
