REMARK  Name = ZINCqH0000006LsR.0
REMARK                            x       y       z     vdW  Elec       q    Type
REMARK                         _______ _______ _______ _____ _____    ______ ____
ROOT
ATOM      1  C   LIG    1       -7.316   5.061  -0.184  0.00  0.00    +0.510 C 
ATOM      2  N   LIG    1       -7.271   3.723  -0.026  0.00  0.00    -0.680 N 
ATOM      3  H   LIG    1       -8.093   3.219   0.074  0.00  0.00    +0.410 HD
ATOM      4  O   LIG    1       -6.287   5.702  -0.226  0.00  0.00    -0.500 OA
ENDROOT
BRANCH   2   5
ATOM      5  C   LIG    1       -6.036   3.062  -0.006  0.00  0.00    +0.150 A 
ATOM      6  C   LIG    1       -4.928   3.675   0.564  0.00  0.00    +0.040 A 
ATOM      7  C   LIG    1       -3.712   3.022   0.584  0.00  0.00    +0.040 A 
ATOM      8  C   LIG    1       -3.596   1.754   0.034  0.00  0.00    +0.070 A 
ATOM      9  C   LIG    1       -4.701   1.143  -0.541  0.00  0.00    +0.040 A 
ATOM     10  C   LIG    1       -5.919   1.792  -0.556  0.00  0.00    +0.010 A 
BRANCH   8  11
ATOM     11  O   LIG    1       -2.398   1.112   0.053  0.00  0.00    -0.240 OA
BRANCH  11  12
ATOM     12  C   LIG    1       -1.978   0.584   1.229  0.00  0.00    +0.360 A 
ATOM     13  C   LIG    1       -0.809  -0.174   1.287  0.00  0.00    -0.080 A 
ATOM     14  C   LIG    1       -0.419  -0.686   2.510  0.00  0.00    +0.360 A 
ATOM     15  N   LIG    1       -1.166  -0.447   3.578  0.00  0.00    -0.540 NA
ATOM     16  C   LIG    1       -2.269   0.269   3.488  0.00  0.00    +0.530 A 
ATOM     17  N   LIG    1       -2.676   0.776   2.342  0.00  0.00    -0.560 NA
ENDBRANCH  11  12
ENDBRANCH   8  11
ENDBRANCH   2   5
BRANCH   1  18
ATOM     18  C   LIG    1       -8.645   5.760  -0.310  0.00  0.00    +0.120 C 
BRANCH  18  21
ATOM     19  C   LIG    1       -8.149   9.422   0.482  0.00  0.00    +0.130 A 
ATOM     20  C   LIG    1       -8.361   8.059   0.636  0.00  0.00    -0.060 A 
ATOM     21  C   LIG    1       -8.419   7.241  -0.476  0.00  0.00    -0.040 A 
ATOM     22  C   LIG    1       -8.277   7.780  -1.741  0.00  0.00    -0.020 A 
ATOM     23  C   LIG    1       -8.071   9.139  -1.897  0.00  0.00    +0.050 A 
ATOM     24  C   LIG    1       -8.007   9.961  -0.788  0.00  0.00    -0.110 A 
ATOM     25  C   LIG    1       -7.782  11.441  -0.959  0.00  0.00    +0.100 C 
BRANCH  19  27
ATOM     26  C   LIG    1       -8.241   9.604   2.851  0.00  0.00    +0.240 C 
ATOM     27  O   LIG    1       -8.087  10.228   1.575  0.00  0.00    -0.310 OA
ENDBRANCH  19  27
ENDBRANCH  18  21
ENDBRANCH   1  18
TORSDOF 6
