REMARK  Name = ZINCqH00000389Rc.0
REMARK                            x       y       z     vdW  Elec       q    Type
REMARK                         _______ _______ _______ _____ _____    ______ ____
ROOT
ATOM      1  N   LIG    1       -5.951   2.190   0.231  0.00  0.00    -0.670 N 
ATOM      2  H   LIG    1       -5.557   1.415  -0.199  0.00  0.00    +0.410 HD
ATOM      3  C   LIG    1       -5.161   3.106   0.824  0.00  0.00    +0.590 C 
ATOM      4  O   LIG    1       -5.648   4.120   1.290  0.00  0.00    -0.500 OA
ENDROOT
BRANCH   1   9
ATOM      5  C   LIG    1      -11.586   2.882   0.244  0.00  0.00    +0.090 C 
ATOM      6  C   LIG    1      -10.090   2.696   0.241  0.00  0.00    -0.110 A 
ATOM      7  C   LIG    1       -9.259   3.795   0.146  0.00  0.00    +0.050 A 
ATOM      8  C   LIG    1       -7.887   3.630   0.143  0.00  0.00    +0.010 A 
ATOM      9  C   LIG    1       -7.339   2.356   0.234  0.00  0.00    +0.170 A 
ATOM     10  C   LIG    1       -8.171   1.249   0.324  0.00  0.00    -0.030 A 
ATOM     11  C   LIG    1       -9.549   1.419   0.334  0.00  0.00    +0.170 A 
BRANCH  11  12
ATOM     12  N   LIG    1      -10.390   0.309   0.429  0.00  0.00    -1.050 N 
ATOM     13  H   LIG    1      -11.235   0.298  -0.045  0.00  0.00    +0.430 HD
BRANCH  12  14
ATOM     14  S   LIG    1       -9.943  -0.991   1.354  0.00  0.00    +2.610 S 
ATOM     15  O   LIG    1       -8.680  -1.375   0.831  0.00  0.00    -0.950 OA
ATOM     16  O   LIG    1      -11.060  -1.867   1.290  0.00  0.00    -0.950 OA
ATOM     17  C   LIG    1       -9.760  -0.314   3.027  0.00  0.00    -0.280 C 
ENDBRANCH  12  14
ENDBRANCH  11  12
ENDBRANCH   1   9
BRANCH   3  18
ATOM     18  C   LIG    1       -3.715   2.882   0.909  0.00  0.00    -0.260 A 
ATOM     19  C   LIG    1       -2.818   3.736   1.486  0.00  0.00    +0.120 A 
ATOM     20  C   LIG    1       -1.518   3.311   1.450  0.00  0.00    +0.030 A 
ATOM     21  C   LIG    1       -1.326   2.108   0.836  0.00  0.00    -0.130 A 
ATOM     22  S   LIG    1       -2.870   1.472   0.284  0.00  0.00    +0.190 S 
BRANCH  21  23
ATOM     23  C   LIG    1       -0.020   1.438   0.666  0.00  0.00    +0.020 A 
ATOM     24  C   LIG    1        1.159   2.029   1.137  0.00  0.00    -0.010 A 
ATOM     25  C   LIG    1        2.357   1.371   0.952  0.00  0.00    +0.270 A 
ATOM     26  N   LIG    1        2.401   0.202   0.341  0.00  0.00    -0.480 NA
ATOM     27  C   LIG    1        1.314  -0.390  -0.117  0.00  0.00    +0.270 A 
ATOM     28  C   LIG    1        0.074   0.197   0.024  0.00  0.00    -0.030 A 
ENDBRANCH  21  23
ENDBRANCH   3  18
TORSDOF 5
