REMARK  Name = ZINCvU0000000GC1.0
REMARK                            x       y       z     vdW  Elec       q    Type
REMARK                         _______ _______ _______ _____ _____    ______ ____
ROOT
ATOM      1  C   LIG    1       -0.018   1.460   0.010  0.00  0.00    +0.430 C 
ATOM      2  O   LIG    1        1.025   2.081   0.003  0.00  0.00    -0.440 OA
ENDROOT
BRANCH   1   6
ATOM      3  C   LIG    1       -1.493  -3.417  -0.002  0.00  0.00    +0.150 C 
ATOM      4  C   LIG    1       -0.668  -2.156  -0.003  0.00  0.00    +0.020 A 
ATOM      5  C   LIG    1       -1.159  -0.905   0.008  0.00  0.00    +0.010 A 
ATOM      6  C   LIG    1        0.002  -0.004   0.002  0.00  0.00    -0.260 A 
ATOM      7  C   LIG    1        1.117  -0.822  -0.019  0.00  0.00    +0.130 A 
ATOM      8  C   LIG    1        2.551  -0.361  -0.037  0.00  0.00    +0.150 C 
ATOM      9  N   LIG    1        0.698  -2.102  -0.016  0.00  0.00    -0.400 N 
BRANCH   9  10
ATOM     10  C   LIG    1        1.543  -3.220  -0.030  0.00  0.00    +0.130 A 
ATOM     11  C   LIG    1        2.381  -3.472   1.047  0.00  0.00    +0.060 A 
ATOM     12  C   LIG    1        3.209  -4.578   1.034  0.00  0.00    +0.080 A 
ATOM     13  C   LIG    1        3.211  -5.429  -0.057  0.00  0.00    -0.020 A 
ATOM     14  C   LIG    1        2.380  -5.177  -1.136  0.00  0.00    -0.020 A 
ATOM     15 CL   LIG    1        2.385  -6.246  -2.504  0.00  0.00    -0.030 Cl
ATOM     16 CL   LIG    1        4.258  -6.814  -0.074  0.00  0.00    -0.030 Cl
ATOM     17  C   LIG    1        1.546  -4.075  -1.124  0.00  0.00    +0.060 A 
ENDBRANCH   9  10
ENDBRANCH   1   6
BRANCH   1  18
ATOM     18  C   LIG    1       -1.333   2.196   0.020  0.00  0.00    +0.250 C 
BRANCH  18  19
ATOM     19  O   LIG    1       -1.087   3.627   0.027  0.00  0.00    -0.310 OA
BRANCH  19  20
ATOM     20  C   LIG    1       -2.166   4.432   0.036  0.00  0.00    +0.520 C 
ATOM     21  O   LIG    1       -3.282   3.953   0.039  0.00  0.00    -0.490 OA
BRANCH  20  22
ATOM     22  C   LIG    1       -1.992   5.904   0.044  0.00  0.00    +0.120 A 
ATOM     23  N   LIG    1       -0.773   6.409   0.046  0.00  0.00    -0.410 NA
ATOM     24  C   LIG    1       -0.569   7.725   0.047  0.00  0.00    +0.120 A 
ATOM     25  C   LIG    1        0.735   8.257   0.043  0.00  0.00    +0.060 A 
ATOM     26  C   LIG    1        0.914   9.605   0.050  0.00  0.00    +0.040 A 
ATOM     27  C   LIG    1       -0.175  10.476   0.060  0.00  0.00    +0.030 A 
ATOM     28  C   LIG    1       -1.451  10.000   0.064  0.00  0.00    +0.030 A 
ATOM     29  C   LIG    1       -1.676   8.615   0.057  0.00  0.00    -0.080 A 
ATOM     30  C   LIG    1       -2.980   8.086   0.060  0.00  0.00    +0.090 A 
ATOM     31  C   LIG    1       -3.127   6.729   0.053  0.00  0.00    +0.030 A 
ENDBRANCH  20  22
ENDBRANCH  19  20
ENDBRANCH  18  19
ENDBRANCH   1  18
TORSDOF 6
