REMARK  Name = ZINCnE00000h7ZJo.1
REMARK                            x       y       z     vdW  Elec       q    Type
REMARK                         _______ _______ _______ _____ _____    ______ ____
ROOT
ATOM      1  C   LIG    1        4.863   4.229  -0.237  0.00  0.00    +0.100 C 
ENDROOT
BRANCH   1   2
ATOM      2  C   LIG    1        3.569   3.468  -0.116  0.00  0.00    +0.530 C 
ATOM      3  N   LIG    1        3.584   2.123  -0.021  0.00  0.00    -0.670 N 
ATOM      4  H   LIG    1        4.429   1.651   0.034  0.00  0.00    +0.410 HD
ATOM      5  O   LIG    1        2.513   4.065  -0.102  0.00  0.00    -0.500 OA
BRANCH   3   6
ATOM      6  C   LIG    1        2.381   1.410  -0.003  0.00  0.00    +0.150 A 
ATOM      7  C   LIG    1        1.261   1.949   0.616  0.00  0.00    +0.020 A 
ATOM      8  C   LIG    1        0.074   1.242   0.633  0.00  0.00    +0.010 A 
ATOM      9  C   LIG    1        0.001  -0.002   0.034  0.00  0.00    -0.020 A 
ATOM     10  C   LIG    1        1.115  -0.542  -0.583  0.00  0.00    +0.020 A 
ATOM     11  C   LIG    1        2.304   0.160  -0.603  0.00  0.00    -0.110 A 
BRANCH  11  12
ATOM     12  C   LIG    1        3.516  -0.430  -1.277  0.00  0.00    +0.060 C 
ATOM     13  C   LIG    1        4.380  -1.146  -0.236  0.00  0.00    +0.020 C 
ENDBRANCH  11  12
ENDBRANCH   3   6
ENDBRANCH   1   2
BRANCH   1  14
ATOM     14  S   LIG    1        4.513   6.002  -0.344  0.00  0.00    +0.030 S 
BRANCH  14  19
ATOM     15  C   LIG    1        8.426   6.226  -0.565  0.00  0.00    +0.180 A 
ATOM     16  C   LIG    1        8.683   7.562  -0.673  0.00  0.00    -0.270 A 
ATOM     17  C   LIG    1        7.604   8.463  -0.681  0.00  0.00    +0.490 A 
ATOM     18  N   LIG    1        6.349   7.975  -0.580  0.00  0.00    -0.640 NA
ATOM     19  C   LIG    1        6.154   6.631  -0.475  0.00  0.00    +0.320 A 
ATOM     20  O   LIG    1        7.797   9.664  -0.776  0.00  0.00    -0.620 OA
ATOM     21  N   LIG    1        7.172   5.793  -0.464  0.00  0.00    -0.630 NA
BRANCH  15  22
ATOM     22  C   LIG    1        9.566   5.240  -0.555  0.00  0.00    +0.080 C 
BRANCH  22  24
ATOM     23  C   LIG    1       11.101   3.912   0.902  0.00  0.00    +0.000 C 
ATOM     24  C   LIG    1        9.944   4.913   0.891  0.00  0.00    +0.010 C 
ENDBRANCH  22  24
ENDBRANCH  15  22
ENDBRANCH  14  19
ENDBRANCH   1  14
TORSDOF 7
