REMARK  Name = ZINCrH000004v7G0.0
REMARK                            x       y       z     vdW  Elec       q    Type
REMARK                         _______ _______ _______ _____ _____    ______ ____
ROOT
ATOM      1  O   LIG    1       -1.362  -0.909  -0.104  0.00  0.00    -0.510 OA
ATOM      2  C   LIG    1       -2.418  -0.314  -0.090  0.00  0.00    +0.530 C 
ATOM      3  N   LIG    1       -2.433   1.029   0.026  0.00  0.00    -0.660 N 
ATOM      4  H   LIG    1       -3.277   1.498   0.120  0.00  0.00    +0.410 HD
ENDROOT
BRANCH   2   5
ATOM      5  C   LIG    1       -3.714  -1.075  -0.203  0.00  0.00    -0.030 C 
ATOM      6  C   LIG    1       -4.620  -0.722   0.982  0.00  0.00    +0.030 C 
ATOM      7  C   LIG    1       -3.942  -1.171   2.281  0.00  0.00    +0.210 C 
ATOM      8  O   LIG    1       -3.676  -2.574   2.219  0.00  0.00    -0.380 OA
ATOM      9  C   LIG    1       -2.797  -2.955   1.159  0.00  0.00    +0.220 C 
ATOM     10  C   LIG    1       -3.428  -2.579  -0.184  0.00  0.00    +0.040 C 
BRANCH   5  11
ATOM     11  C   LIG    1       -4.404  -0.708  -1.491  0.00  0.00    -0.080 A 
ATOM     12  C   LIG    1       -3.735  -0.838  -2.694  0.00  0.00    +0.010 A 
ATOM     13  C   LIG    1       -4.370  -0.507  -3.877  0.00  0.00    +0.020 A 
ATOM     14  C   LIG    1       -5.669  -0.036  -3.856  0.00  0.00    +0.010 A 
ATOM     15  C   LIG    1       -6.336   0.099  -2.652  0.00  0.00    +0.010 A 
ATOM     16  C   LIG    1       -5.703  -0.237  -1.470  0.00  0.00    +0.020 A 
ENDBRANCH   5  11
ENDBRANCH   2   5
BRANCH   3  17
ATOM     17  C   LIG    1       -1.230   1.748   0.009  0.00  0.00    +0.070 A 
ATOM     18  C   LIG    1       -0.109   1.232  -0.637  0.00  0.00    +0.110 A 
ATOM     19  C   LIG    1        1.059   1.973  -0.623  0.00  0.00    +0.000 A 
ATOM     20  C   LIG    1        1.074   3.200   0.027  0.00  0.00    +0.300 A 
ATOM     21  N   LIG    1       -0.010   3.662   0.626  0.00  0.00    -0.520 NA
ATOM     22  C   LIG    1       -1.141   2.983   0.633  0.00  0.00    +0.290 A 
BRANCH  20  23
ATOM     23  O   LIG    1        2.216   3.935   0.046  0.00  0.00    -0.290 OA
BRANCH  23  24
ATOM     24  C   LIG    1        2.169   5.189   0.730  0.00  0.00    +0.250 C 
BRANCH  24  25
ATOM     25  C   LIG    1        3.537   5.867   0.645  0.00  0.00    +0.460 C 
ATOM     26  F   LIG    1        4.502   5.048   1.241  0.00  0.00    -0.170 F 
ATOM     27  F   LIG    1        3.491   7.095   1.315  0.00  0.00    -0.170 F 
ATOM     28  F   LIG    1        3.870   6.080  -0.697  0.00  0.00    -0.170 F 
ENDBRANCH  24  25
ENDBRANCH  23  24
ENDBRANCH  20  23
ENDBRANCH   3  17
TORSDOF 6
