REMARK  Name = ZINCtV000002PTMC.0
REMARK                            x       y       z     vdW  Elec       q    Type
REMARK                         _______ _______ _______ _____ _____    ______ ____
ROOT
ATOM      1  S   LIG    1       -1.237   2.422  -0.087  0.00  0.00    +0.070 S 
ENDROOT
BRANCH   1   2
ATOM      2  C   LIG    1        0.245   1.469  -0.120  0.00  0.00    +0.120 A 
ATOM      3  N   LIG    1        1.469   1.938  -0.115  0.00  0.00    -0.280 NA
ATOM      4  N   LIG    1        2.304   0.960  -0.150  0.00  0.00    -0.270 NA
ATOM      5  C   LIG    1        1.645  -0.174  -0.180  0.00  0.00    +0.260 A 
ATOM      6  O   LIG    1        0.328   0.124  -0.162  0.00  0.00    -0.210 OA
BRANCH   5   7
ATOM      7  C   LIG    1        2.235  -1.526  -0.225  0.00  0.00    -0.130 A 
ATOM      8  C   LIG    1        1.561  -2.705  -0.249  0.00  0.00    +0.310 A 
ATOM      9  N   LIG    1        2.447  -3.742  -0.292  0.00  0.00    -0.580 N 
ATOM     10  H   LIG    1        2.203  -4.680  -0.318  0.00  0.00    +0.430 HD
ATOM     11  C   LIG    1        3.740  -3.263  -0.287  0.00  0.00    +0.090 A 
ATOM     12  C   LIG    1        4.985  -3.884  -0.315  0.00  0.00    +0.000 A 
ATOM     13  C   LIG    1        6.133  -3.122  -0.301  0.00  0.00    +0.040 A 
ATOM     14  C   LIG    1        6.062  -1.737  -0.259  0.00  0.00    -0.010 A 
ATOM     15  C   LIG    1        4.839  -1.103  -0.232  0.00  0.00    +0.070 A 
ATOM     16  C   LIG    1        3.670  -1.861  -0.245  0.00  0.00    -0.070 A 
ENDBRANCH   5   7
ENDBRANCH   1   2
BRANCH   1  17
ATOM     17  C   LIG    1       -0.537   4.090  -0.038  0.00  0.00    +0.160 C 
BRANCH  17  22
ATOM     18  C   LIG    1       -3.194   6.534  -1.153  0.00  0.00    +0.090 A 
ATOM     19  C   LIG    1       -3.703   6.961   0.065  0.00  0.00    +0.030 A 
ATOM     20  C   LIG    1       -3.185   6.458   1.243  0.00  0.00    +0.040 A 
ATOM     21  C   LIG    1       -2.161   5.530   1.208  0.00  0.00    +0.040 A 
ATOM     22  C   LIG    1       -1.653   5.102  -0.004  0.00  0.00    -0.070 A 
ATOM     23  C   LIG    1       -2.163   5.606  -1.185  0.00  0.00    +0.020 A 
BRANCH  18  24
ATOM     24  O   LIG    1       -3.702   7.028  -2.313  0.00  0.00    -0.260 OA
BRANCH  24  28
ATOM     25  C   LIG    1       -5.790   4.450  -4.765  0.00  0.00    -0.020 A 
ATOM     26  C   LIG    1       -5.366   4.026  -3.519  0.00  0.00    +0.050 A 
ATOM     27  C   LIG    1       -4.666   4.887  -2.696  0.00  0.00    -0.060 A 
ATOM     28  C   LIG    1       -4.390   6.179  -3.121  0.00  0.00    +0.120 A 
ATOM     29  C   LIG    1       -4.822   6.604  -4.369  0.00  0.00    -0.010 A 
ATOM     30  C   LIG    1       -5.516   5.737  -5.190  0.00  0.00    +0.050 A 
ENDBRANCH  24  28
ENDBRANCH  18  24
ENDBRANCH  17  22
ENDBRANCH   1  17
TORSDOF 6
