REMARK  Name = ZINCpe000000Uolw.0
REMARK                            x       y       z     vdW  Elec       q    Type
REMARK                         _______ _______ _______ _____ _____    ______ ____
ROOT
ATOM      1  C   LIG    1       -6.570  -3.483   1.673  0.00  0.00    +0.610 C 
ATOM      2  N   LIG    1       -5.400  -2.864   1.419  0.00  0.00    -0.710 N 
ATOM      3  H   LIG    1       -4.835  -2.574   2.153  0.00  0.00    +0.410 HD
ATOM      4  O   LIG    1       -7.278  -3.846   0.754  0.00  0.00    -0.540 OA
ENDROOT
BRANCH   1   7
ATOM      5  N   LIG    1       -8.147  -4.345   4.806  0.00  0.00    -0.360 N 
ATOM      6  C   LIG    1       -8.151  -4.328   3.458  0.00  0.00    +0.310 A 
ATOM      7  C   LIG    1       -6.992  -3.720   3.067  0.00  0.00    -0.100 A 
ATOM      8  N   LIG    1       -6.304  -3.368   4.167  0.00  0.00    -0.210 NA
ATOM      9  N   LIG    1       -6.959  -3.724   5.216  0.00  0.00    -0.030 NA
BRANCH   5  10
ATOM     10  C   LIG    1       -9.187  -4.902   5.676  0.00  0.00    +0.380 C 
BRANCH  10  13
ATOM     11  C   LIG    1       -8.743  -7.517   8.435  0.00  0.00    +0.300 C 
ATOM     12  N   LIG    1       -9.342  -6.545   7.518  0.00  0.00    -0.620 N 
ATOM     13  C   LIG    1       -8.570  -5.902   6.619  0.00  0.00    +0.500 C 
ATOM     14  O   LIG    1       -7.380  -6.127   6.571  0.00  0.00    -0.510 OA
ATOM     15  C   LIG    1      -10.780  -6.273   7.576  0.00  0.00    +0.290 C 
ENDBRANCH  10  13
ENDBRANCH   5  10
ENDBRANCH   1   7
BRANCH   2  16
ATOM     16  C   LIG    1       -4.981  -2.629   0.035  0.00  0.00    +0.330 C 
BRANCH  16  17
ATOM     17  C   LIG    1       -3.648  -1.927   0.026  0.00  0.00    -0.140 A 
ATOM     18  C   LIG    1       -2.479  -2.665   0.011  0.00  0.00    +0.080 A 
ATOM     19  C   LIG    1       -1.255  -2.024   0.003  0.00  0.00    +0.000 A 
ATOM     20  C   LIG    1       -1.200  -0.637   0.010  0.00  0.00    +0.110 A 
ATOM     21  C   LIG    1       -2.374   0.101   0.031  0.00  0.00    -0.050 A 
ATOM     22  C   LIG    1       -3.595  -0.545   0.034  0.00  0.00    +0.070 A 
BRANCH  20  23
ATOM     23  O   LIG    1        0.002  -0.004   0.002  0.00  0.00    -0.320 OA
BRANCH  23  24
ATOM     24  C   LIG    1       -0.017   1.425   0.010  0.00  0.00    +0.590 C 
ATOM     25  F   LIG    1       -0.672   1.876   1.161  0.00  0.00    -0.200 F 
ATOM     26  F   LIG    1       -0.694   1.888  -1.123  0.00  0.00    -0.200 F 
ENDBRANCH  23  24
ENDBRANCH  20  23
ENDBRANCH  16  17
ENDBRANCH   2  16
TORSDOF 7
