REMARK  Name = ZINCpe00000yUOdi.0
REMARK                            x       y       z     vdW  Elec       q    Type
REMARK                         _______ _______ _______ _____ _____    ______ ____
ROOT
ATOM      1  C   LIG    1       -5.243   0.263  -0.204  0.00  0.00    +0.610 C 
ATOM      2  N   LIG    1       -5.164   0.504  -1.527  0.00  0.00    -0.600 N 
ATOM      3  C   LIG    1       -3.913   0.992  -2.126  0.00  0.00    +0.290 C 
ATOM      4  C   LIG    1       -3.525   0.064  -3.281  0.00  0.00    +0.020 C 
ATOM      5  C   LIG    1       -4.693  -0.039  -4.263  0.00  0.00    +0.250 C 
ATOM      6  C   LIG    1       -5.909  -0.637  -3.552  0.00  0.00    +0.150 C 
ATOM      7  C   LIG    1       -6.324   0.278  -2.401  0.00  0.00    +0.270 C 
ATOM      8  O   LIG    1       -4.303   0.528   0.520  0.00  0.00    -0.530 OA
ENDROOT
BRANCH   1  16
ATOM      9  C   LIG    1      -10.479  -0.388  -0.696  0.00  0.00    +0.060 C 
ATOM     10  C   LIG    1       -9.841  -1.465   0.184  0.00  0.00    +0.250 C 
ATOM     11  C   LIG    1      -10.649  -1.617   1.476  0.00  0.00    +0.050 C 
ATOM     12  C   LIG    1       -9.892  -2.524   2.451  0.00  0.00    +0.020 C 
ATOM     13  C   LIG    1       -8.642  -1.788   2.953  0.00  0.00    +0.130 C 
ATOM     14  C   LIG    1       -7.924  -1.212   1.758  0.00  0.00    +0.020 A 
ATOM     15  C   LIG    1       -6.660  -0.750   1.705  0.00  0.00    -0.010 A 
ATOM     16  C   LIG    1       -6.472  -0.325   0.367  0.00  0.00    -0.010 A 
ATOM     17  N   LIG    1       -7.603  -0.553  -0.272  0.00  0.00    -0.260 NA
ATOM     18  N   LIG    1       -8.466  -1.073   0.522  0.00  0.00    -0.280 N 
ENDBRANCH   1  16
BRANCH   5  19
ATOM     19  N   LIG    1       -4.313  -0.899  -5.386  0.00  0.00    -0.710 N 
ATOM     20  H   LIG    1       -4.542  -1.842  -5.374  0.00  0.00    +0.400 HD
ATOM     21  C   LIG    1       -3.644  -0.382  -6.436  0.00  0.00    +0.550 C 
ATOM     22  O   LIG    1       -3.358   0.797  -6.450  0.00  0.00    -0.540 OA
BRANCH  21  23
ATOM     23  C   LIG    1       -3.253  -1.267  -7.591  0.00  0.00    -0.080 C 
ATOM     24  C   LIG    1       -1.763  -1.554  -7.787  0.00  0.00    +0.060 C 
ATOM     25  C   LIG    1       -2.496  -0.620  -8.752  0.00  0.00    +0.060 C 
ENDBRANCH  21  23
ENDBRANCH   5  19
BRANCH   6  26
ATOM     26  O   LIG    1       -6.990  -0.761  -4.478  0.00  0.00    -0.550 OA
ATOM     27  H   LIG    1       -7.796  -1.134  -4.094  0.00  0.00    +0.380 HD
ENDBRANCH   6  26
TORSDOF 4
