REMARK  Name = ZINCrH000004vDl5.0
REMARK                            x       y       z     vdW  Elec       q    Type
REMARK                         _______ _______ _______ _____ _____    ______ ____
ROOT
ATOM      1  O   LIG    1        1.086   5.858  -0.057  0.00  0.00    -0.500 OA
ATOM      2  C   LIG    1        0.020   5.280   0.028  0.00  0.00    +0.580 C 
ATOM      3  N   LIG    1       -1.123   5.985   0.142  0.00  0.00    -0.610 N 
ATOM      4  C   LIG    1       -2.410   5.308   0.364  0.00  0.00    +0.280 C 
ATOM      5  C   LIG    1       -3.100   5.966   1.569  0.00  0.00    +0.170 C 
ATOM      6  N   LIG    1       -3.192   7.415   1.342  0.00  0.00    -0.530 NA
ATOM      7  C   LIG    1       -1.859   8.026   1.254  0.00  0.00    +0.170 C 
ATOM      8  C   LIG    1       -1.117   7.453   0.042  0.00  0.00    +0.300 C 
ENDROOT
BRANCH   2   9
ATOM      9  C   LIG    1       -0.023   3.806   0.008  0.00  0.00    -0.160 A 
ATOM     10  C   LIG    1       -0.950   3.131  -0.794  0.00  0.00    +0.100 A 
ATOM     11  C   LIG    1       -0.945   1.747  -0.782  0.00  0.00    -0.040 A 
ATOM     12  C   LIG    1       -0.043   1.076   0.023  0.00  0.00    +0.290 A 
ATOM     13  N   LIG    1        0.823   1.730   0.772  0.00  0.00    -0.510 NA
ATOM     14  C   LIG    1        0.866   3.054   0.794  0.00  0.00    +0.340 A 
BRANCH  14  15
ATOM     15  N   LIG    1        1.791   3.698   1.595  0.00  0.00    -0.480 N 
ATOM     16  C   LIG    1        3.161   3.317   1.229  0.00  0.00    +0.190 C 
ATOM     17  C   LIG    1        4.158   4.155   2.033  0.00  0.00    +0.020 C 
ATOM     18  C   LIG    1        3.925   3.920   3.528  0.00  0.00    +0.010 C 
ATOM     19  C   LIG    1        2.477   4.279   3.873  0.00  0.00    +0.020 C 
ATOM     20  C   LIG    1        1.529   3.438   3.016  0.00  0.00    +0.180 C 
ENDBRANCH  14  15
ENDBRANCH   2   9
BRANCH   6  21
ATOM     21  C   LIG    1       -3.999   8.061   2.386  0.00  0.00    +0.270 C 
BRANCH  21  22
ATOM     22  C   LIG    1       -5.425   7.583   2.286  0.00  0.00    -0.170 A 
ATOM     23  C   LIG    1       -5.924   6.517   2.913  0.00  0.00    +0.010 A 
ATOM     24  C   LIG    1       -7.266   6.274   2.673  0.00  0.00    +0.030 A 
ATOM     25  C   LIG    1       -7.853   7.139   1.842  0.00  0.00    -0.150 A 
ATOM     26 CL   LIG    1       -9.518   7.082   1.351  0.00  0.00    -0.010 Cl
ATOM     27  S   LIG    1       -6.682   8.343   1.319  0.00  0.00    +0.180 S 
ENDBRANCH  21  22
ENDBRANCH   6  21
TORSDOF 4
