REMARK  Name = ZINCrD00000kZRtj.0
REMARK                            x       y       z     vdW  Elec       q    Type
REMARK                         _______ _______ _______ _____ _____    ______ ____
ROOT
ATOM      1  N   LIG    1       -0.084  -0.077  -0.276  0.00  0.00    -0.600 N 
ATOM      2  C   LIG    1       -1.319  -0.502  -0.611  0.00  0.00    +0.560 C 
ATOM      3  O   LIG    1       -1.655  -1.645  -0.368  0.00  0.00    -0.520 OA
ENDROOT
BRANCH   2   4
ATOM      4  C   LIG    1       -2.262   0.421  -1.273  0.00  0.00    -0.140 A 
ATOM      5  C   LIG    1       -2.478   1.698  -0.748  0.00  0.00    +0.080 A 
ATOM      6  C   LIG    1       -3.354   2.558  -1.371  0.00  0.00    -0.010 A 
ATOM      7  C   LIG    1       -4.033   2.153  -2.515  0.00  0.00    +0.190 A 
ATOM      8  C   LIG    1       -3.826   0.881  -3.037  0.00  0.00    +0.020 A 
ATOM      9  C   LIG    1       -2.946   0.018  -2.423  0.00  0.00    +0.100 A 
BRANCH   7  10
ATOM     10  N   LIG    1       -4.926   3.027  -3.142  0.00  0.00    -0.330 N 
ATOM     11  C   LIG    1       -5.227   4.289  -2.740  0.00  0.00    +0.230 A 
ATOM     12  C   LIG    1       -6.128   4.794  -3.614  0.00  0.00    -0.090 A 
ATOM     13  C   LIG    1       -6.393   3.812  -4.576  0.00  0.00    +0.250 A 
ATOM     14  N   LIG    1       -5.676   2.755  -4.295  0.00  0.00    -0.290 NA
ENDBRANCH   7  10
ENDBRANCH   2   4
BRANCH   1  16
ATOM     15  C   LIG    1        0.113   2.075   0.870  0.00  0.00    +0.020 C 
ATOM     16  C   LIG    1        0.281   1.330  -0.457  0.00  0.00    +0.260 C 
ENDBRANCH   1  16
BRANCH   1  17
ATOM     17  C   LIG    1        0.893  -1.023   0.269  0.00  0.00    +0.350 C 
BRANCH  17  18
ATOM     18  C   LIG    1        0.772  -1.060   1.771  0.00  0.00    -0.110 A 
ATOM     19  C   LIG    1        1.527  -0.200   2.545  0.00  0.00    +0.030 A 
ATOM     20  C   LIG    1        1.415  -0.228   3.923  0.00  0.00    +0.010 A 
ATOM     21  C   LIG    1        0.555  -1.129   4.532  0.00  0.00    +0.050 A 
ATOM     22  O   LIG    1        0.464  -1.152   5.890  0.00  0.00    -0.310 OA
ATOM     23  C   LIG    1       -0.682  -1.806   6.446  0.00  0.00    +0.220 C 
ATOM     24  C   LIG    1       -0.865  -3.148   5.725  0.00  0.00    +0.220 C 
ATOM     25  O   LIG    1       -1.055  -2.886   4.330  0.00  0.00    -0.310 OA
ATOM     26  C   LIG    1       -0.201  -1.997   3.753  0.00  0.00    +0.050 A 
ATOM     27  C   LIG    1       -0.088  -1.960   2.372  0.00  0.00    +0.050 A 
ENDBRANCH  17  18
ENDBRANCH   1  17
TORSDOF 5
