REMARK  Name = ZINCrD000000CyjF.0
REMARK                            x       y       z     vdW  Elec       q    Type
REMARK                         _______ _______ _______ _____ _____    ______ ____
ROOT
ATOM      1  C   LIG    1       -0.304   2.710   1.794  0.00  0.00    +0.590 C 
ATOM      2  N   LIG    1       -0.106   1.380   1.876  0.00  0.00    -0.600 N 
ATOM      3  C   LIG    1        0.645   0.727   0.827  0.00  0.00    +0.270 C 
ATOM      4  C   LIG    1       -0.324   0.242  -0.280  0.00  0.00    +0.060 C 
ATOM      5  C   LIG    1       -1.145  -0.873   0.229  0.00  0.00    +0.160 C 
ATOM      6  N   LIG    1       -2.003  -0.523   1.361  0.00  0.00    -0.490 N 
ATOM      7  C   LIG    1       -1.293  -0.689   2.611  0.00  0.00    +0.180 C 
ATOM      8  C   LIG    1       -0.667   0.653   3.034  0.00  0.00    +0.280 C 
ATOM      9  O   LIG    1       -1.304   3.208   2.277  0.00  0.00    -0.520 OA
ENDROOT
BRANCH   1  17
ATOM     10  O   LIG    1        0.766   2.220  -0.732  0.00  0.00    -0.480 OA
ATOM     11  C   LIG    1        1.172   3.223  -0.170  0.00  0.00    +0.510 A 
ATOM     12  N   LIG    1        2.077   4.016  -0.775  0.00  0.00    -0.590 N 
ATOM     13  H   LIG    1        2.401   3.783  -1.659  0.00  0.00    +0.430 HD
ATOM     14  C   LIG    1        2.545   5.132  -0.166  0.00  0.00    +0.420 A 
ATOM     15  C   LIG    1        2.115   5.492   1.070  0.00  0.00    -0.300 A 
ATOM     16  C   LIG    1        1.174   4.711   1.740  0.00  0.00    +0.220 A 
ATOM     17  C   LIG    1        0.688   3.561   1.120  0.00  0.00    -0.250 A 
BRANCH  15  18
ATOM     18  C   LIG    1        2.656   6.740   1.720  0.00  0.00    +0.530 C 
ATOM     19  F   LIG    1        3.289   6.404   2.921  0.00  0.00    -0.170 F 
ATOM     20  F   LIG    1        1.603   7.625   1.979  0.00  0.00    -0.170 F 
ATOM     21  F   LIG    1        3.578   7.351   0.863  0.00  0.00    -0.180 F 
ENDBRANCH  15  18
ENDBRANCH   1  17
BRANCH   6  22
ATOM     22  C   LIG    1       -3.180  -1.277   1.349  0.00  0.00    +0.100 A 
ATOM     23  C   LIG    1       -4.388  -0.676   1.023  0.00  0.00    +0.060 A 
ATOM     24  C   LIG    1       -5.550  -1.425   1.012  0.00  0.00    +0.020 A 
ATOM     25  C   LIG    1       -5.510  -2.770   1.326  0.00  0.00    +0.020 A 
ATOM     26  C   LIG    1       -4.308  -3.373   1.652  0.00  0.00    +0.030 A 
ATOM     27  C   LIG    1       -3.142  -2.632   1.659  0.00  0.00    -0.070 A 
ATOM     28 CL   LIG    1       -1.633  -3.390   2.061  0.00  0.00    -0.070 Cl
ENDBRANCH   6  22
TORSDOF 3
