REMARK  Name = ZINCqH0000004Qy7.0
REMARK                            x       y       z     vdW  Elec       q    Type
REMARK                         _______ _______ _______ _____ _____    ______ ____
ROOT
ATOM      1  N   LIG    1        1.782   3.060   0.021  0.00  0.00    -0.650 N 
ATOM      2  H   LIG    1        2.689   3.263  -0.256  0.00  0.00    +0.410 HD
ATOM      3  C   LIG    1        0.962   4.053   0.421  0.00  0.00    +0.710 C 
ATOM      4  N   LIG    1        1.366   5.336   0.337  0.00  0.00    -0.620 N 
ATOM      5  C   LIG    1        2.736   5.642  -0.087  0.00  0.00    +0.340 C 
ATOM      6  C   LIG    1        2.711   6.028  -1.558  0.00  0.00    -0.190 A 
ATOM      7  C   LIG    1        3.372   5.266  -2.495  0.00  0.00    +0.080 A 
ATOM      8  C   LIG    1        3.417   5.686  -3.813  0.00  0.00    -0.090 A 
ATOM      9  C   LIG    1        2.795   6.869  -4.184  0.00  0.00    +0.150 A 
ATOM     10  C   LIG    1        2.112   7.624  -3.243  0.00  0.00    -0.030 A 
ATOM     11  C   LIG    1        2.053   7.194  -1.925  0.00  0.00    +0.170 A 
ATOM     12  O   LIG    1        1.350   7.901  -1.006  0.00  0.00    -0.320 OA
ATOM     13  C   LIG    1        0.144   7.289  -0.537  0.00  0.00    +0.100 C 
ATOM     14  C   LIG    1       -0.859   8.377  -0.146  0.00  0.00    +0.080 C 
ATOM     15  C   LIG    1       -0.455   6.428  -1.651  0.00  0.00    +0.020 C 
ATOM     16  C   LIG    1        0.436   6.415   0.674  0.00  0.00    +0.300 C 
ATOM     17  O   LIG    1       -0.142   3.790   0.859  0.00  0.00    -0.560 OA
ENDROOT
BRANCH   1  19
ATOM     18  C   LIG    1        2.039   0.593   0.193  0.00  0.00    -0.060 A 
ATOM     19  C   LIG    1        1.321   1.730   0.005  0.00  0.00    +0.060 A 
ATOM     20  C   LIG    1       -0.001   1.266  -0.212  0.00  0.00    +0.040 A 
ATOM     21  N   LIG    1        0.049  -0.033  -0.137  0.00  0.00    -0.360 NA
ATOM     22  C   LIG    1       -1.221   2.108  -0.481  0.00  0.00    +0.180 C 
ATOM     23  O   LIG    1        1.170  -0.425   0.087  0.00  0.00    +0.110 OA
BRANCH  18  25
ATOM     24  C   LIG    1        3.760   0.532   1.977  0.00  0.00    +0.040 C 
ATOM     25  C   LIG    1        3.518   0.493   0.467  0.00  0.00    +0.140 C 
ENDBRANCH  18  25
ENDBRANCH   1  19
BRANCH   9  26
ATOM     26  O   LIG    1        2.855   7.290  -5.475  0.00  0.00    -0.310 OA
ATOM     27  C   LIG    1        3.574   6.465  -6.394  0.00  0.00    +0.250 C 
ENDBRANCH   9  26
TORSDOF 3
