REMARK  Name = ZINCrg000000nBpp.0
REMARK                            x       y       z     vdW  Elec       q    Type
REMARK                         _______ _______ _______ _____ _____    ______ ____
ROOT
ATOM      1  C   LIG    1        1.342   3.537  -1.836  0.00  0.00    +0.510 C 
ATOM      2  N   LIG    1        1.637   3.292  -0.544  0.00  0.00    -0.590 N 
ATOM      3  O   LIG    1        1.581   4.625  -2.316  0.00  0.00    -0.510 OA
ENDROOT
BRANCH   2   4
ATOM      4  C   LIG    1        2.142   4.370   0.310  0.00  0.00    +0.270 C 
ATOM      5  C   LIG    1        1.135   5.533   0.341  0.00  0.00    +0.070 C 
ATOM      6  C   LIG    1        1.828   6.769   0.950  0.00  0.00    -0.310 C 
ATOM      7  S   LIG    1        3.603   6.561   0.562  0.00  0.00    +2.390 S 
ATOM      8  O   LIG    1        3.997   7.547  -0.384  0.00  0.00    -0.930 OA
ATOM      9  O   LIG    1        4.334   6.404   1.770  0.00  0.00    -0.930 OA
ATOM     10  C   LIG    1        3.460   4.938  -0.277  0.00  0.00    -0.310 C 
ENDBRANCH   2   4
BRANCH   2  11
ATOM     11  C   LIG    1        1.451   1.947   0.007  0.00  0.00    +0.230 C 
ATOM     12  C   LIG    1        2.778   1.406   0.594  0.00  0.00    +0.020 C 
ATOM     13  C   LIG    1        2.333   0.350   1.627  0.00  0.00    +0.020 C 
ATOM     14  C   LIG    1        0.897   0.718   2.041  0.00  0.00    +0.020 C 
ATOM     15  C   LIG    1        0.520   1.985   1.245  0.00  0.00    +0.020 C 
ENDBRANCH   2  11
BRANCH   1  16
ATOM     16  C   LIG    1        0.716   2.460  -2.683  0.00  0.00    +0.350 C 
BRANCH  16  21
ATOM     17  C   LIG    1        0.977   3.417  -6.263  0.00  0.00    +0.120 C 
ATOM     18  N   LIG    1       -0.345   3.910  -5.839  0.00  0.00    -0.710 N 
ATOM     19  H   LIG    1       -0.993   4.379  -6.388  0.00  0.00    +0.440 HD
ATOM     20  C   LIG    1       -0.482   3.578  -4.542  0.00  0.00    +0.710 C 
ATOM     21  N   LIG    1        0.590   2.936  -4.063  0.00  0.00    -0.560 N 
ATOM     22  O   LIG    1       -1.467   3.835  -3.879  0.00  0.00    -0.540 OA
ATOM     23  C   LIG    1        1.537   2.776  -5.009  0.00  0.00    +0.540 C 
ATOM     24  O   LIG    1        2.614   2.233  -4.882  0.00  0.00    -0.460 OA
BRANCH  17  26
ATOM     25  C   LIG    1        1.945   5.623  -5.602  0.00  0.00    +0.030 C 
ATOM     26  C   LIG    1        1.864   4.578  -6.716  0.00  0.00    +0.060 C 
ENDBRANCH  17  26
BRANCH  17  27
ATOM     27  C   LIG    1        0.836   2.381  -7.380  0.00  0.00    +0.060 C 
ATOM     28  C   LIG    1       -0.193   1.325  -6.969  0.00  0.00    +0.020 C 
ENDBRANCH  17  27
ENDBRANCH  16  21
ENDBRANCH   1  16
TORSDOF 6
