REMARK  Name = ZINCrD000000CO5H.0
REMARK                            x       y       z     vdW  Elec       q    Type
REMARK                         _______ _______ _______ _____ _____    ______ ____
ROOT
ATOM      1  S   LIG    1       -3.394   2.503   1.704  0.00  0.00    +2.710 S 
ATOM      2  O   LIG    1       -4.313   3.119   0.812  0.00  0.00    -0.940 OA
ATOM      3  O   LIG    1       -2.772   3.194   2.778  0.00  0.00    -0.940 OA
ENDROOT
BRANCH   1  10
ATOM      4  O   LIG    1       -7.104  -3.072   5.902  0.00  0.00    -0.510 OA
ATOM      5  C   LIG    1       -6.537  -2.114   5.420  0.00  0.00    +0.520 C 
ATOM      6  C   LIG    1       -6.182  -0.942   6.294  0.00  0.00    +0.090 C 
ATOM      7  C   LIG    1       -4.853  -0.338   5.842  0.00  0.00    +0.110 C 
ATOM      8  C   LIG    1       -4.875  -0.132   4.349  0.00  0.00    -0.150 A 
ATOM      9  C   LIG    1       -4.215   0.943   3.787  0.00  0.00    +0.210 A 
ATOM     10  C   LIG    1       -4.238   1.131   2.417  0.00  0.00    -0.740 A 
ATOM     11  C   LIG    1       -4.927   0.245   1.606  0.00  0.00    +0.230 A 
ATOM     12  C   LIG    1       -5.585  -0.837   2.164  0.00  0.00    -0.060 A 
ATOM     13  F   LIG    1       -4.952   0.434   0.269  0.00  0.00    -0.120 F 
ATOM     14  C   LIG    1       -5.564  -1.026   3.539  0.00  0.00    +0.250 A 
ATOM     15  N   LIG    1       -6.232  -2.113   4.110  0.00  0.00    -0.660 N 
ATOM     16  H   LIG    1       -6.478  -2.871   3.557  0.00  0.00    +0.420 HD
ENDBRANCH   1  10
BRANCH   1  17
ATOM     17  N   LIG    1       -2.171   1.894   0.768  0.00  0.00    -1.000 NA
ATOM     18  C   LIG    1       -2.275   1.541  -0.659  0.00  0.00    +0.270 C 
ATOM     19  C   LIG    1       -0.825   1.630  -1.196  0.00  0.00    +0.040 C 
ATOM     20  C   LIG    1       -0.013   1.086   0.008  0.00  0.00    +0.050 C 
ATOM     21  C   LIG    1       -0.798   1.615   1.227  0.00  0.00    +0.290 C 
BRANCH  21  22
ATOM     22  C   LIG    1       -0.819   0.572   2.315  0.00  0.00    -0.090 A 
ATOM     23  C   LIG    1        0.035   0.684   3.396  0.00  0.00    +0.030 A 
ATOM     24  C   LIG    1        0.016  -0.272   4.395  0.00  0.00    +0.050 A 
ATOM     25  C   LIG    1       -0.856  -1.341   4.313  0.00  0.00    -0.020 A 
ATOM     26  C   LIG    1       -1.711  -1.454   3.230  0.00  0.00    +0.100 A 
ATOM     27  F   LIG    1       -2.564  -2.499   3.149  0.00  0.00    -0.140 F 
ATOM     28  C   LIG    1       -1.696  -0.494   2.233  0.00  0.00    -0.010 A 
ENDBRANCH  21  22
ENDBRANCH   1  17
TORSDOF 3
