REMARK  Name = ZINCrg00001JduRs.0
REMARK                            x       y       z     vdW  Elec       q    Type
REMARK                         _______ _______ _______ _____ _____    ______ ____
ROOT
ATOM      1  C   LIG    1       -2.255   1.544  -0.717  0.00  0.00    +0.270 C 
ATOM      2  C   LIG    1       -2.133   1.869   0.787  0.00  0.00    +0.240 C 
ATOM      3  N   LIG    1       -0.741   1.595   1.183  0.00  0.00    -0.620 N 
ATOM      4  C   LIG    1       -0.009   1.093   0.006  0.00  0.00    +0.240 C 
ATOM      5  C   LIG    1       -0.223   1.771   2.415  0.00  0.00    +0.600 C 
ATOM      6  O   LIG    1        0.921   1.430   2.648  0.00  0.00    -0.510 OA
ATOM      7  C   LIG    1       -0.789   1.644  -1.214  0.00  0.00    +0.180 C 
ENDROOT
BRANCH   5   8
ATOM      8  C   LIG    1       -1.040   2.377   3.477  0.00  0.00    +0.020 A 
ATOM      9  C   LIG    1       -0.599   2.705   4.719  0.00  0.00    +0.060 A 
ATOM     10  C   LIG    1       -1.690   3.260   5.431  0.00  0.00    -0.110 A 
ATOM     11  C   LIG    1       -1.831   3.768   6.730  0.00  0.00    +0.040 A 
ATOM     12  C   LIG    1       -3.054   4.252   7.144  0.00  0.00    +0.080 A 
ATOM     13  C   LIG    1       -4.147   4.238   6.280  0.00  0.00    +0.030 A 
ATOM     14  C   LIG    1       -4.022   3.742   5.001  0.00  0.00    +0.010 A 
ATOM     15  C   LIG    1       -2.798   3.249   4.562  0.00  0.00    +0.110 A 
ATOM     16  N   LIG    1       -2.377   2.709   3.368  0.00  0.00    -0.580 N 
ATOM     17  H   LIG    1       -2.928   2.580   2.580  0.00  0.00    +0.420 HD
BRANCH  12  18
ATOM     18  O   LIG    1       -3.195   4.745   8.404  0.00  0.00    -0.500 OA
ATOM     19  H   LIG    1       -3.455   4.083   9.059  0.00  0.00    +0.390 HD
ENDBRANCH  12  18
ENDBRANCH   5   8
BRANCH   1  22
ATOM     20  O   LIG    1       -4.867   0.934  -0.985  0.00  0.00    -0.530 OA
ATOM     21  C   LIG    1       -4.105  -0.009  -1.037  0.00  0.00    +0.520 C 
ATOM     22  N   LIG    1       -2.778   0.190  -0.914  0.00  0.00    -0.710 N 
ATOM     23  H   LIG    1       -2.169  -0.564  -0.956  0.00  0.00    +0.410 HD
BRANCH  21  24
ATOM     24  C   LIG    1       -4.643  -1.402  -1.240  0.00  0.00    +0.140 C 
BRANCH  24  25
ATOM     25  C   LIG    1       -6.146  -1.350  -1.347  0.00  0.00    -0.170 A 
ATOM     26  C   LIG    1       -6.864  -1.198  -2.474  0.00  0.00    +0.180 A 
ATOM     27  O   LIG    1       -8.167  -1.202  -2.150  0.00  0.00    -0.170 OA
ATOM     28  C   LIG    1       -8.298  -1.355  -0.822  0.00  0.00    +0.160 A 
ATOM     29  C   LIG    1       -7.070  -1.457  -0.283  0.00  0.00    -0.050 A 
ENDBRANCH  24  25
ENDBRANCH  21  24
ENDBRANCH   1  22
BRANCH   7  30
ATOM     30  O   LIG    1       -0.581   0.825  -2.366  0.00  0.00    -0.550 OA
ATOM     31  H   LIG    1        0.341   0.779  -2.655  0.00  0.00    +0.390 HD
ENDBRANCH   7  30
TORSDOF 6
