REMARK  Name = ZINCpk00000ea3ge.0
REMARK                            x       y       z     vdW  Elec       q    Type
REMARK                         _______ _______ _______ _____ _____    ______ ____
ROOT
ATOM      1  C   LIG    1        4.692  -3.596  -4.338  0.00  0.00    -0.040 C 
ATOM      2  C   LIG    1        4.964  -4.531  -5.469  0.00  0.00    +0.050 C 
ATOM      3  C   LIG    1        3.792  -5.454  -5.787  0.00  0.00    +0.020 C 
ATOM      4  C   LIG    1        3.411  -6.179  -4.489  0.00  0.00    +0.010 C 
ATOM      5  C   LIG    1        2.824  -5.168  -3.531  0.00  0.00    +0.030 C 
ATOM      6  C   LIG    1        4.214  -2.209  -4.811  0.00  0.00    +0.310 C 
ATOM      7  N   LIG    1        3.607  -1.630  -3.584  0.00  0.00    -0.600 N 
ATOM      8  C   LIG    1        3.701  -0.362  -3.137  0.00  0.00    +0.530 C 
ATOM      9  O   LIG    1        4.346   0.456  -3.760  0.00  0.00    -0.510 OA
ATOM     10  C   LIG    1        2.872  -2.757  -2.967  0.00  0.00    +0.290 C 
ATOM     11  C   LIG    1        3.754  -4.011  -3.227  0.00  0.00    +0.020 C 
ENDROOT
BRANCH   8  12
ATOM     12  C   LIG    1        3.009   0.038  -1.874  0.00  0.00    +0.510 C 
ATOM     13  N   LIG    1        3.001   1.330  -1.489  0.00  0.00    -0.580 N 
ATOM     14  C   LIG    1        3.567   2.358  -2.365  0.00  0.00    +0.310 C 
ATOM     15  O   LIG    1        2.454  -0.801  -1.194  0.00  0.00    -0.510 OA
BRANCH  13  16
ATOM     16  C   LIG    1        2.426   1.705  -0.195  0.00  0.00    +0.370 C 
BRANCH  16  17
ATOM     17  C   LIG    1        0.960   2.009  -0.366  0.00  0.00    -0.200 A 
ATOM     18  C   LIG    1        0.418   3.206  -0.652  0.00  0.00    +0.180 A 
ATOM     19  O   LIG    1       -0.916   3.062  -0.722  0.00  0.00    -0.180 OA
ATOM     20  C   LIG    1       -1.240   1.780  -0.487  0.00  0.00    +0.150 A 
ATOM     21  C   LIG    1       -0.109   1.091  -0.256  0.00  0.00    -0.040 A 
ENDBRANCH  16  17
ENDBRANCH  13  16
ENDBRANCH   8  12
BRANCH   1  22
ATOM     22  C   LIG    1        6.023  -3.353  -3.674  0.00  0.00    +0.460 C 
ATOM     23  O   LIG    1        6.140  -3.507  -2.481  0.00  0.00    -0.500 OA
BRANCH  22  25
ATOM     24  C   LIG    1        8.328  -2.751  -3.702  0.00  0.00    +0.250 C 
ATOM     25  O   LIG    1        7.078  -2.966  -4.408  0.00  0.00    -0.350 OA
ENDBRANCH  22  25
ENDBRANCH   1  22
TORSDOF 5
