REMARK  Name = ZINCc70000002y29.1
REMARK                            x       y       z     vdW  Elec       q    Type
REMARK                         _______ _______ _______ _____ _____    ______ ____
ROOT
ATOM      1  C   LIG    1        0.768  -1.854   1.505  0.00  0.00    +0.370 A 
ATOM      2  N   LIG    1        1.554  -2.304   2.476  0.00  0.00    -0.580 NA
ATOM      3  C   LIG    1        2.430  -1.508   3.054  0.00  0.00    +0.530 A 
ATOM      4  N   LIG    1        2.563  -0.247   2.698  0.00  0.00    -0.540 NA
ATOM      5  C   LIG    1        1.811   0.275   1.735  0.00  0.00    +0.210 A 
ATOM      6  C   LIG    1        1.993   1.723   1.364  0.00  0.00    +0.130 C 
ATOM      7  C   LIG    1        1.355   1.993  -0.000  0.00  0.00    +0.180 C 
ATOM      8  N   LIG    1       -0.018   1.463   0.010  0.00  0.00    -0.690 NA
ATOM      9  H   LIG    1       -0.550   1.822  -0.769  0.00  0.00    +0.350 HD
ATOM     10  C   LIG    1        0.002  -0.004   0.002  0.00  0.00    +0.260 C 
ATOM     11  C   LIG    1        0.885  -0.522   1.103  0.00  0.00    -0.200 A 
ENDROOT
BRANCH   1  13
ATOM     12  C   LIG    1       -0.188  -4.024   1.382  0.00  0.00    +0.260 C 
ATOM     13  O   LIG    1       -0.132  -2.675   0.912  0.00  0.00    -0.300 OA
ENDBRANCH   1  13
TORSDOF 1
