REMARK  Name = ZINCrH000004l2rf.0
REMARK                            x       y       z     vdW  Elec       q    Type
REMARK                         _______ _______ _______ _____ _____    ______ ____
ROOT
ATOM      1  N   LIG    1        1.157   4.339   1.595  0.00  0.00    -1.110 NA
ATOM      2  H   LIG    1        0.393   4.810   1.963  0.00  0.00    +0.420 HD
ENDROOT
BRANCH   1   3
ATOM      3  S   LIG    1        1.148   3.857   0.011  0.00  0.00    +2.690 S 
ATOM      4  O   LIG    1       -0.111   4.245  -0.519  0.00  0.00    -0.940 OA
ATOM      5  O   LIG    1        2.388   4.276  -0.543  0.00  0.00    -0.940 OA
BRANCH   3  10
ATOM      6  C   LIG    1        0.002  -0.004   0.002  0.00  0.00    -0.140 A 
ATOM      7  C   LIG    1        1.224  -0.679  -0.013  0.00  0.00    +0.140 A 
ATOM      8  C   LIG    1        2.404   0.036  -0.021  0.00  0.00    +0.000 A 
ATOM      9  C   LIG    1        2.378   1.419  -0.013  0.00  0.00    +0.160 A 
ATOM     10  C   LIG    1        1.170   2.095   0.002  0.00  0.00    -0.690 A 
ATOM     11  C   LIG    1       -0.017   1.392   0.010  0.00  0.00    +0.210 A 
BRANCH   6  12
ATOM     12  C   LIG    1       -1.265  -0.763   0.011  0.00  0.00    +0.510 C 
ATOM     13  O   LIG    1       -2.327  -0.173   0.024  0.00  0.00    -0.500 OA
BRANCH  12  15
ATOM     14  C   LIG    1       -2.526  -2.790   0.012  0.00  0.00    +0.290 C 
ATOM     15  O   LIG    1       -1.243  -2.110   0.003  0.00  0.00    -0.350 OA
ENDBRANCH  12  15
ENDBRANCH   6  12
ENDBRANCH   3  10
ENDBRANCH   1   3
BRANCH   1  16
ATOM     16  C   LIG    1        2.319   4.053   2.442  0.00  0.00    +0.390 C 
BRANCH  16  17
ATOM     17  C   LIG    1        1.858   3.767   3.848  0.00  0.00    -0.100 A 
ATOM     18  C   LIG    1        0.838   4.516   4.406  0.00  0.00    +0.060 A 
ATOM     19  C   LIG    1        0.411   4.251   5.694  0.00  0.00    -0.010 A 
ATOM     20  C   LIG    1        1.012   3.242   6.428  0.00  0.00    +0.110 A 
ATOM     21  C   LIG    1        2.036   2.496   5.869  0.00  0.00    -0.010 A 
ATOM     22  F   LIG    1        0.599   2.985   7.688  0.00  0.00    -0.140 F 
ATOM     23  C   LIG    1        2.458   2.760   4.580  0.00  0.00    +0.070 A 
ENDBRANCH  16  17
BRANCH  16  24
ATOM     24  C   LIG    1        3.240   5.245   2.448  0.00  0.00    -0.200 A 
ATOM     25  C   LIG    1        4.572   5.188   2.407  0.00  0.00    +0.030 A 
ATOM     26  C   LIG    1        5.210   6.416   2.423  0.00  0.00    +0.010 A 
ATOM     27  C   LIG    1        4.396   7.471   2.477  0.00  0.00    -0.040 A 
ATOM     28  S   LIG    1        2.724   6.926   2.504  0.00  0.00    +0.120 S 
ENDBRANCH  16  24
ENDBRANCH   1  16
TORSDOF 7
