REMARK  Name = ZINCrH000004tZTv.0
REMARK                            x       y       z     vdW  Elec       q    Type
REMARK                         _______ _______ _______ _____ _____    ______ ____
ROOT
ATOM      1  O   LIG    1        0.002  -0.004   0.002  0.00  0.00    -0.500 OA
ATOM      2  C   LIG    1       -0.015   1.215   0.009  0.00  0.00    +0.560 A 
ATOM      3  C   LIG    1       -1.253   1.925   0.018  0.00  0.00    -0.220 A 
ATOM      4  C   LIG    1       -1.205   3.314   0.032  0.00  0.00    +0.070 A 
ATOM      5  S   LIG    1       -2.837   3.970   0.051  0.00  0.00    +0.230 S 
ATOM      6  C   LIG    1       -3.557   2.371   0.048  0.00  0.00    -0.030 A 
ATOM      7  N   LIG    1       -0.007   3.939   0.024  0.00  0.00    -0.500 NA
ATOM      8  C   LIG    1        1.110   3.275   0.009  0.00  0.00    +0.600 A 
ATOM      9  C   LIG    1       -2.620   1.421   0.034  0.00  0.00    +0.030 A 
ATOM     10  N   LIG    1        1.135   1.917   0.002  0.00  0.00    -0.520 N 
ENDROOT
BRANCH   9  11
ATOM     11  C   LIG    1       -2.942  -0.022   0.028  0.00  0.00    -0.140 A 
ATOM     12  C   LIG    1       -3.790  -0.633   0.879  0.00  0.00    +0.020 A 
ATOM     13  C   LIG    1       -3.932  -1.992   0.673  0.00  0.00    +0.000 A 
ATOM     14  C   LIG    1       -3.202  -2.492  -0.327  0.00  0.00    -0.070 A 
ATOM     15  S   LIG    1       -2.272  -1.207  -1.085  0.00  0.00    +0.180 S 
ENDBRANCH   9  11
BRANCH  10  16
ATOM     16  C   LIG    1        2.420   1.212  -0.015  0.00  0.00    +0.350 C 
BRANCH  16  17
ATOM     17  C   LIG    1        2.846   0.978  -1.441  0.00  0.00    +0.510 C 
ATOM     18  N   LIG    1        4.006   0.342  -1.702  0.00  0.00    -0.550 N 
ATOM     19  C   LIG    1        4.522   0.052  -3.042  0.00  0.00    +0.290 C 
ATOM     20  C   LIG    1        5.856  -0.675  -2.812  0.00  0.00    +0.100 C 
ATOM     21  C   LIG    1        5.994  -0.751  -1.308  0.00  0.00    -0.130 A 
ATOM     22  C   LIG    1        6.986  -1.296  -0.515  0.00  0.00    +0.060 A 
ATOM     23  C   LIG    1        6.883  -1.240   0.862  0.00  0.00    -0.010 A 
ATOM     24  C   LIG    1        5.785  -0.636   1.446  0.00  0.00    +0.050 A 
ATOM     25  C   LIG    1        4.793  -0.091   0.659  0.00  0.00    -0.030 A 
ATOM     26  C   LIG    1        4.889  -0.144  -0.733  0.00  0.00    +0.140 A 
ATOM     27  O   LIG    1        2.147   1.362  -2.354  0.00  0.00    -0.500 OA
ENDBRANCH  16  17
ENDBRANCH  10  16
TORSDOF 3
