REMARK  Name = ZINCqH0000031Ez6.1
REMARK                            x       y       z     vdW  Elec       q    Type
REMARK                         _______ _______ _______ _____ _____    ______ ____
ROOT
ATOM      1  S   LIG    1       -1.460   1.756  -0.130  0.00  0.00    +2.700 S 
ATOM      2  O   LIG    1       -1.385   2.884   0.731  0.00  0.00    -0.940 OA
ATOM      3  O   LIG    1       -2.470   0.762  -0.024  0.00  0.00    -0.940 OA
ENDROOT
BRANCH   1  11
ATOM      4  C   LIG    1       -2.081   4.415  -7.998  0.00  0.00    +0.110 C 
ATOM      5  C   LIG    1       -2.158   3.582  -6.745  0.00  0.00    +0.520 C 
ATOM      6  N   LIG    1       -1.686   4.071  -5.581  0.00  0.00    -0.560 N 
ATOM      7  C   LIG    1       -1.077   5.393  -5.410  0.00  0.00    +0.280 C 
ATOM      8  C   LIG    1       -0.706   5.476  -3.921  0.00  0.00    +0.110 C 
ATOM      9  C   LIG    1       -1.148   4.151  -3.343  0.00  0.00    -0.160 A 
ATOM     10  C   LIG    1       -1.079   3.655  -2.055  0.00  0.00    +0.170 A 
ATOM     11  C   LIG    1       -1.555   2.389  -1.772  0.00  0.00    -0.700 A 
ATOM     12  C   LIG    1       -2.112   1.622  -2.779  0.00  0.00    +0.160 A 
ATOM     13  C   LIG    1       -2.189   2.115  -4.064  0.00  0.00    +0.000 A 
ATOM     14  C   LIG    1       -1.705   3.390  -4.359  0.00  0.00    +0.210 A 
ATOM     15  O   LIG    1       -2.646   2.472  -6.783  0.00  0.00    -0.510 OA
ENDBRANCH   1  11
BRANCH   1  16
ATOM     16  N   LIG    1       -0.011   0.966   0.007  0.00  0.00    -1.050 N 
ATOM     17  H   LIG    1        0.007   0.019   0.217  0.00  0.00    +0.430 HD
BRANCH  16  18
ATOM     18  C   LIG    1        1.188   1.663  -0.185  0.00  0.00    +0.190 A 
ATOM     19  C   LIG    1        1.298   2.982   0.228  0.00  0.00    +0.010 A 
ATOM     20  C   LIG    1        2.484   3.669   0.038  0.00  0.00    +0.060 A 
ATOM     21  C   LIG    1        3.560   3.045  -0.564  0.00  0.00    +0.020 A 
ATOM     22  C   LIG    1        3.459   1.730  -0.980  0.00  0.00    +0.030 A 
ATOM     23  C   LIG    1        2.276   1.031  -0.788  0.00  0.00    -0.120 A 
BRANCH  23  24
ATOM     24  S   LIG    1        2.146  -0.646  -1.310  0.00  0.00    -0.090 S 
BRANCH  24  25
ATOM     25  C   LIG    1        3.785  -0.984  -2.009  0.00  0.00    +0.430 C 
ATOM     26  F   LIG    1        4.760  -0.802  -1.023  0.00  0.00    -0.180 F 
ATOM     27  F   LIG    1        4.028  -0.108  -3.072  0.00  0.00    -0.180 F 
ENDBRANCH  24  25
ENDBRANCH  23  24
ENDBRANCH  16  18
ENDBRANCH   1  16
TORSDOF 5
