REMARK  Name = ZINCpe000000YbLc.0
REMARK                            x       y       z     vdW  Elec       q    Type
REMARK                         _______ _______ _______ _____ _____    ______ ____
ROOT
ATOM      1  C   LIG    1        3.071   3.908   5.394  0.00  0.00    +0.580 C 
ATOM      2  N   LIG    1        1.798   3.733   4.990  0.00  0.00    -0.700 N 
ATOM      3  H   LIG    1        1.372   4.399   4.427  0.00  0.00    +0.410 HD
ATOM      4  O   LIG    1        3.604   3.074   6.099  0.00  0.00    -0.520 OA
ENDROOT
BRANCH   1  11
ATOM      5  C   LIG    1        6.919   9.299   3.752  0.00  0.00    +0.190 C 
ATOM      6  C   LIG    1        5.579   8.625   3.614  0.00  0.00    +0.140 A 
ATOM      7  N   LIG    1        4.560   9.069   2.945  0.00  0.00    -0.270 NA
ATOM      8  O   LIG    1        3.483   8.161   3.052  0.00  0.00    -0.080 OA
ATOM      9  C   LIG    1        3.853   7.113   3.817  0.00  0.00    +0.290 A 
ATOM     10  N   LIG    1        3.227   6.019   4.212  0.00  0.00    -0.460 NA
ATOM     11  C   LIG    1        3.821   5.118   4.981  0.00  0.00    +0.160 A 
ATOM     12  C   LIG    1        5.138   5.288   5.412  0.00  0.00    +0.020 A 
ATOM     13  C   LIG    1        5.837   6.413   5.021  0.00  0.00    +0.170 A 
ATOM     14  C   LIG    1        5.185   7.346   4.211  0.00  0.00    -0.230 A 
ENDBRANCH   1  11
BRANCH   2  15
ATOM     15  C   LIG    1        1.056   2.538   5.399  0.00  0.00    +0.380 C 
BRANCH  15  16
ATOM     16  C   LIG    1       -0.333   2.585   4.817  0.00  0.00    -0.150 A 
ATOM     17  C   LIG    1       -0.716   2.259   3.530  0.00  0.00    -0.040 A 
ATOM     18  C   LIG    1        0.004   1.787   2.345  0.00  0.00    +0.570 A 
ATOM     19  N   LIG    1       -0.698   1.558   1.213  0.00  0.00    -0.540 N 
ATOM     20  C   LIG    1       -2.062   1.776   1.192  0.00  0.00    +0.280 A 
ATOM     21  C   LIG    1       -2.724   2.198   2.262  0.00  0.00    +0.180 A 
ATOM     22  C   LIG    1       -0.013   1.086   0.008  0.00  0.00    +0.330 C 
ATOM     23  O   LIG    1        1.208   1.605   2.379  0.00  0.00    -0.490 OA
ATOM     24  N   LIG    1       -2.071   2.453   3.458  0.00  0.00    -0.200 N 
ATOM     25  N   LIG    1       -2.494   2.865   4.601  0.00  0.00    -0.270 NA
ATOM     26  C   LIG    1       -1.509   2.966   5.462  0.00  0.00    +0.240 A 
ENDBRANCH  15  16
ENDBRANCH   2  15
TORSDOF 3
