REMARK  Name = ZINCqH0000035PQl.0
REMARK                            x       y       z     vdW  Elec       q    Type
REMARK                         _______ _______ _______ _____ _____    ______ ____
ROOT
ATOM      1  C   LIG    1       -0.062   4.524   0.021  0.00  0.00    +0.210 A 
ATOM      2  C   LIG    1        1.137   3.841   0.180  0.00  0.00    -0.030 A 
ATOM      3  C   LIG    1        1.149   2.460   0.167  0.00  0.00    +0.140 A 
ATOM      4  C   LIG    1       -0.029   1.758  -0.004  0.00  0.00    -0.690 A 
ATOM      5  C   LIG    1       -1.224   2.435  -0.169  0.00  0.00    +0.140 A 
ATOM      6  C   LIG    1       -1.244   3.816  -0.151  0.00  0.00    +0.010 A 
ENDROOT
BRANCH   1   8
ATOM      7  C   LIG    1       -1.141   6.580   0.539  0.00  0.00    +0.550 C 
ATOM      8  N   LIG    1       -0.078   5.923   0.033  0.00  0.00    -0.670 N 
ATOM      9  H   LIG    1        0.675   6.420  -0.323  0.00  0.00    +0.410 HD
ATOM     10  O   LIG    1       -2.041   5.961   1.072  0.00  0.00    -0.470 OA
BRANCH   7  15
ATOM     11  C   LIG    1       -0.251  10.146  -0.246  0.00  0.00    +0.140 A 
ATOM     12  C   LIG    1       -1.348  10.818   0.277  0.00  0.00    -0.020 A 
ATOM     13  C   LIG    1       -2.372  10.113   0.883  0.00  0.00    +0.100 A 
ATOM     14  C   LIG    1       -2.311   8.737   0.971  0.00  0.00    -0.080 A 
ATOM     15  C   LIG    1       -1.211   8.053   0.447  0.00  0.00    -0.080 A 
ATOM     16 BR   LIG    1       -3.713   7.778   1.801  0.00  0.00    -0.000 Br
ATOM     17  C   LIG    1       -0.176   8.767  -0.159  0.00  0.00    +0.030 A 
BRANCH  11  19
ATOM     18  C   LIG    1        0.612  12.266  -0.891  0.00  0.00    +0.250 C 
ATOM     19  O   LIG    1        0.752  10.845  -0.841  0.00  0.00    -0.310 OA
ENDBRANCH  11  19
ENDBRANCH   7  15
ENDBRANCH   1   8
BRANCH   4  20
ATOM     20  S   LIG    1       -0.009  -0.004  -0.021  0.00  0.00    +2.690 S 
ATOM     21  O   LIG    1        1.309  -0.386  -0.392  0.00  0.00    -0.950 OA
ATOM     22  O   LIG    1       -1.167  -0.412  -0.736  0.00  0.00    -0.950 OA
BRANCH  20  23
ATOM     23  N   LIG    1       -0.220  -0.511   1.541  0.00  0.00    -1.000 NA
ATOM     24  C   LIG    1       -1.571  -0.749   2.057  0.00  0.00    +0.300 C 
BRANCH  23  25
ATOM     25  C   LIG    1        0.943  -0.723   2.407  0.00  0.00    +0.240 C 
ATOM     26  C   LIG    1        0.975  -2.180   2.870  0.00  0.00    +0.030 C 
ATOM     27  C   LIG    1        0.845   0.198   3.625  0.00  0.00    +0.020 C 
ENDBRANCH  23  25
ENDBRANCH  20  23
ENDBRANCH   4  20
TORSDOF 6
