REMARK  Name = ZINCqH00000059bq.0
REMARK                            x       y       z     vdW  Elec       q    Type
REMARK                         _______ _______ _______ _____ _____    ______ ____
ROOT
ATOM      1  C   LIG    1       -2.594   0.030   0.087  0.00  0.00    +0.490 C 
ATOM      2  N   LIG    1       -2.369   1.256   0.600  0.00  0.00    -0.730 N 
ATOM      3  H   LIG    1       -2.892   1.570   1.354  0.00  0.00    +0.400 HD
ATOM      4  O   LIG    1       -1.879  -0.399  -0.794  0.00  0.00    -0.500 OA
ENDROOT
BRANCH   2   5
ATOM      5  C   LIG    1       -1.334   2.115   0.018  0.00  0.00    +0.230 C 
ATOM      6  C   LIG    1       -1.634   2.349  -1.466  0.00  0.00    +0.010 C 
ATOM      7  C   LIG    1       -2.965   3.093  -1.598  0.00  0.00    +0.220 C 
ATOM      8  O   LIG    1       -2.894   4.324  -0.875  0.00  0.00    -0.380 OA
ATOM      9  C   LIG    1       -2.663   4.165   0.526  0.00  0.00    +0.210 C 
ATOM     10  C   LIG    1       -1.320   3.463   0.744  0.00  0.00    +0.010 C 
BRANCH   5  11
ATOM     11  C   LIG    1        0.012   1.451   0.162  0.00  0.00    -0.070 A 
ATOM     12  C   LIG    1        0.211   0.499   1.144  0.00  0.00    +0.040 A 
ATOM     13  C   LIG    1        1.443  -0.115   1.272  0.00  0.00    +0.020 A 
ATOM     14  C   LIG    1        2.476   0.224   0.420  0.00  0.00    +0.040 A 
ATOM     15  C   LIG    1        2.278   1.177  -0.563  0.00  0.00    -0.090 A 
ATOM     16 BR   LIG    1        3.691   1.642  -1.729  0.00  0.00    -0.050 Br
ATOM     17  C   LIG    1        1.044   1.790  -0.692  0.00  0.00    +0.050 A 
ENDBRANCH   5  11
ENDBRANCH   2   5
BRANCH   1  18
ATOM     18  C   LIG    1       -3.733  -0.807   0.608  0.00  0.00    +0.320 C 
BRANCH  18  20
ATOM     19  C   LIG    1       -4.552  -2.220  -1.334  0.00  0.00    +0.290 C 
ATOM     20  N   LIG    1       -3.765  -2.086  -0.105  0.00  0.00    -0.590 N 
BRANCH  20  21
ATOM     21  C   LIG    1       -3.049  -3.174   0.383  0.00  0.00    +0.420 A 
ATOM     22  C   LIG    1       -2.389  -3.072   1.603  0.00  0.00    -0.100 A 
ATOM     23  C   LIG    1       -1.681  -4.161   2.078  0.00  0.00    +0.120 A 
ATOM     24  C   LIG    1       -1.656  -5.321   1.313  0.00  0.00    -0.150 A 
ATOM     25  C   LIG    1       -2.335  -5.351   0.110  0.00  0.00    +0.340 A 
ATOM     26 CL   LIG    1       -0.781  -6.716   1.863  0.00  0.00    -0.060 Cl
ATOM     27  N   LIG    1       -3.006  -4.298  -0.315  0.00  0.00    -0.520 NA
ENDBRANCH  20  21
ENDBRANCH  18  20
ENDBRANCH   1  18
TORSDOF 5
