REMARK  Name = ZINC9p0000002o0x.0
REMARK                            x       y       z     vdW  Elec       q    Type
REMARK                         _______ _______ _______ _____ _____    ______ ____
ROOT
ATOM      1  C   LIG    1       -2.188   1.063  -1.221  0.00  0.00    -0.010 C 
ATOM      2  C   LIG    1       -0.753   1.593  -1.232  0.00  0.00    +0.050 C 
ATOM      3  C   LIG    1       -0.013   1.086   0.008  0.00  0.00    +0.020 C 
ATOM      4  C   LIG    1       -0.729   1.579   1.267  0.00  0.00    +0.030 C 
ATOM      5  C   LIG    1       -2.164   1.050   1.278  0.00  0.00    +0.040 C 
ATOM      6  C   LIG    1       -2.904   1.556   0.038  0.00  0.00    +0.170 C 
ENDROOT
BRANCH   6   7
ATOM      7  N   LIG    1       -4.282   1.048   0.049  0.00  0.00    -0.640 N 
ATOM      8  H   LIG    1       -4.770   1.382  -0.769  0.00  0.00    +0.440 HD
ATOM      9  H   LIG    1       -4.755   1.373   0.879  0.00  0.00    +0.440 HD
ATOM     10  H   LIG    1       -4.269   0.039   0.043  0.00  0.00    +0.430 HD
ENDBRANCH   6   7
BRANCH   1  12
ATOM     11  C   LIG    1       -1.563  -0.961  -2.545  0.00  0.00    +0.040 C 
ATOM     12  C   LIG    1       -2.167  -0.467  -1.229  0.00  0.00    -0.000 C 
ENDBRANCH   1  12
TORSDOF 2
