REMARK  Name = ZINCqH0000004z8D.0
REMARK                            x       y       z     vdW  Elec       q    Type
REMARK                         _______ _______ _______ _____ _____    ______ ____
ROOT
ATOM      1  C   LIG    1        0.417  -1.677  -4.726  0.00  0.00    +0.600 C 
ATOM      2  N   LIG    1        1.318  -2.160  -5.603  0.00  0.00    -0.610 N 
ATOM      3  C   LIG    1        2.739  -2.259  -5.240  0.00  0.00    +0.290 C 
ATOM      4  C   LIG    1        3.574  -1.543  -6.300  0.00  0.00    +0.020 C 
ATOM      5  C   LIG    1        3.237  -2.110  -7.681  0.00  0.00    +0.270 C 
ATOM      6  C   LIG    1        1.757  -1.869  -7.986  0.00  0.00    +0.020 C 
ATOM      7  C   LIG    1        0.900  -2.594  -6.943  0.00  0.00    +0.280 C 
ATOM      8  O   LIG    1        0.790  -1.212  -3.664  0.00  0.00    -0.520 OA
ENDROOT
BRANCH   5   9
ATOM      9  N   LIG    1        4.059  -1.445  -8.695  0.00  0.00    -0.540 N 
ATOM     10  C   LIG    1        4.068  -0.125  -8.960  0.00  0.00    +0.680 A 
ATOM     11  N   LIG    1        4.942   0.132  -9.952  0.00  0.00    -0.650 N 
ATOM     12  H   LIG    1        5.133   1.006 -10.327  0.00  0.00    +0.430 HD
ATOM     13  C   LIG    1        5.524  -1.070 -10.346  0.00  0.00    +0.090 A 
ATOM     14  C   LIG    1        6.472  -1.399 -11.303  0.00  0.00    +0.030 A 
ATOM     15  C   LIG    1        6.869  -2.714 -11.453  0.00  0.00    +0.020 A 
ATOM     16  C   LIG    1        6.315  -3.705 -10.661  0.00  0.00    +0.020 A 
ATOM     17  C   LIG    1        5.367  -3.387  -9.708  0.00  0.00    +0.020 A 
ATOM     18  O   LIG    1        3.389   0.709  -8.391  0.00  0.00    -0.550 OA
ATOM     19  C   LIG    1        4.968  -2.070  -9.545  0.00  0.00    +0.090 A 
ENDBRANCH   5   9
BRANCH   1  23
ATOM     20  C   LIG    1       -3.212  -1.077  -5.074  0.00  0.00    -0.120 A 
ATOM     21  C   LIG    1       -3.320  -2.165  -5.845  0.00  0.00    -0.200 A 
ATOM     22  S   LIG    1       -1.803  -2.917  -6.053  0.00  0.00    +0.210 S 
ATOM     23  C   LIG    1       -1.012  -1.710  -5.049  0.00  0.00    -0.270 A 
ATOM     24  C   LIG    1       -4.609  -2.659  -6.450  0.00  0.00    +0.140 C 
ATOM     25  C   LIG    1       -1.944  -0.807  -4.620  0.00  0.00    +0.110 A 
BRANCH  20  27
ATOM     26  C   LIG    1       -5.118  -0.802  -3.511  0.00  0.00    +0.030 C 
ATOM     27  C   LIG    1       -4.397  -0.213  -4.725  0.00  0.00    +0.070 C 
ENDBRANCH  20  27
ENDBRANCH   1  23
TORSDOF 3
