REMARK  Name = ZINCrD000000fKYW.0
REMARK                            x       y       z     vdW  Elec       q    Type
REMARK                         _______ _______ _______ _____ _____    ______ ____
ROOT
ATOM      1  C   LIG    1       -2.442   1.181  -1.910  0.00  0.00    +0.550 C 
ATOM      2  N   LIG    1       -3.664   1.587  -1.204  0.00  0.00    -0.740 N 
ATOM      3  H   LIG    1       -3.806   2.513  -0.951  0.00  0.00    +0.410 HD
ATOM      4  C   LIG    1       -4.613   0.615  -0.907  0.00  0.00    +0.240 A 
ATOM      5  C   LIG    1       -5.962   0.911  -0.821  0.00  0.00    -0.050 A 
ATOM      6  C   LIG    1       -6.864  -0.095  -0.529  0.00  0.00    +0.080 A 
ATOM      7  C   LIG    1       -6.429  -1.394  -0.322  0.00  0.00    -0.040 A 
ATOM      8  C   LIG    1       -5.087  -1.704  -0.401  0.00  0.00    +0.110 A 
ATOM      9  C   LIG    1       -4.167  -0.702  -0.693  0.00  0.00    -0.200 A 
ATOM     10  C   LIG    1       -2.722  -0.978  -0.785  0.00  0.00    +0.580 C 
ATOM     11  O   LIG    1       -2.269  -2.028  -0.372  0.00  0.00    -0.540 OA
ATOM     12  N   LIG    1       -1.907  -0.051  -1.330  0.00  0.00    -0.610 N 
ENDROOT
BRANCH   1  16
ATOM     13  C   LIG    1       -3.341   0.529  -6.037  0.00  0.00    +0.150 A 
ATOM     14  C   LIG    1       -4.078   1.448  -5.301  0.00  0.00    +0.010 A 
ATOM     15  C   LIG    1       -3.785   1.656  -3.967  0.00  0.00    +0.060 A 
ATOM     16  C   LIG    1       -2.759   0.951  -3.365  0.00  0.00    -0.140 A 
ATOM     17  C   LIG    1       -2.020   0.039  -4.096  0.00  0.00    +0.050 A 
ATOM     18  C   LIG    1       -2.312  -0.177  -5.429  0.00  0.00    -0.020 A 
BRANCH  13  21
ATOM     19  C   LIG    1       -4.509   1.082  -9.572  0.00  0.00    +0.110 C 
ATOM     20  C   LIG    1       -4.080   1.336  -8.150  0.00  0.00    +0.510 C 
ATOM     21  N   LIG    1       -3.635   0.317  -7.388  0.00  0.00    -0.680 N 
ATOM     22  H   LIG    1       -3.518  -0.564  -7.777  0.00  0.00    +0.410 HD
ATOM     23  O   LIG    1       -4.135   2.457  -7.690  0.00  0.00    -0.520 OA
ENDBRANCH  13  21
ENDBRANCH   1  16
BRANCH  12  24
ATOM     24  C   LIG    1       -0.461  -0.285  -1.346  0.00  0.00    +0.280 C 
BRANCH  24  25
ATOM     25  C   LIG    1        0.163   0.288  -0.072  0.00  0.00    +0.150 C 
ATOM     26  C   LIG    1        1.689   0.055  -0.084  0.00  0.00    +0.020 C 
ATOM     27  C   LIG    1        2.229   1.380   0.521  0.00  0.00    +0.000 C 
ATOM     28  C   LIG    1        1.198   2.397  -0.031  0.00  0.00    +0.200 C 
ATOM     29  O   LIG    1       -0.059   1.702  -0.016  0.00  0.00    -0.380 OA
ENDBRANCH  24  25
ENDBRANCH  12  24
TORSDOF 4
