REMARK  Name = ZINCqH0000005f3U.0
REMARK                            x       y       z     vdW  Elec       q    Type
REMARK                         _______ _______ _______ _____ _____    ______ ____
ROOT
ATOM      1  C   LIG    1       -4.254  -2.350   0.071  0.00  0.00    +0.290 C 
ATOM      2  N   LIG    1       -4.594  -0.956  -0.226  0.00  0.00    -0.600 N 
ATOM      3  C   LIG    1       -5.016  -0.613  -1.459  0.00  0.00    +0.490 C 
ATOM      4  O   LIG    1       -5.240   0.550  -1.721  0.00  0.00    -0.510 OA
ENDROOT
BRANCH   3   5
ATOM      5  C   LIG    1       -5.209  -1.673  -2.511  0.00  0.00    +0.100 C 
ATOM      6  C   LIG    1       -6.037  -2.822  -1.932  0.00  0.00    +0.080 C 
ATOM      7  C   LIG    1       -3.845  -2.203  -2.958  0.00  0.00    +0.050 C 
BRANCH   5   8
ATOM      8  O   LIG    1       -5.893  -1.112  -3.633  0.00  0.00    -0.280 OA
BRANCH   8   9
ATOM      9  C   LIG    1       -5.274  -0.093  -4.287  0.00  0.00    +0.140 A 
ATOM     10  C   LIG    1       -4.105   0.451  -3.776  0.00  0.00    -0.020 A 
ATOM     11  C   LIG    1       -3.475   1.483  -4.444  0.00  0.00    +0.050 A 
ATOM     12  C   LIG    1       -4.016   1.982  -5.615  0.00  0.00    -0.070 A 
ATOM     13  C   LIG    1       -5.185   1.444  -6.123  0.00  0.00    +0.060 A 
ATOM     14 CL   LIG    1       -3.225   3.283  -6.449  0.00  0.00    -0.070 Cl
ATOM     15  C   LIG    1       -5.815   0.408  -5.462  0.00  0.00    +0.000 A 
ENDBRANCH   8   9
ENDBRANCH   5   8
ENDBRANCH   3   5
BRANCH   2  16
ATOM     16  C   LIG    1       -4.474   0.065   0.819  0.00  0.00    +0.340 C 
BRANCH  16  17
ATOM     17  C   LIG    1       -3.069   0.668   0.784  0.00  0.00    +0.130 C 
ATOM     18  C   LIG    1       -2.938   1.738   1.876  0.00  0.00    +0.230 C 
ATOM     19  O   LIG    1       -1.610   2.271   1.825  0.00  0.00    -0.300 OA
ATOM     20  C   LIG    1       -0.593   1.371   1.731  0.00  0.00    +0.050 A 
ATOM     21  C   LIG    1        0.700   1.771   2.034  0.00  0.00    +0.030 A 
ATOM     22  C   LIG    1        1.744   0.870   1.938  0.00  0.00    +0.020 A 
ATOM     23  C   LIG    1        1.502  -0.432   1.540  0.00  0.00    +0.010 A 
ATOM     24  C   LIG    1        0.215  -0.837   1.239  0.00  0.00    +0.020 A 
ATOM     25  C   LIG    1       -0.836   0.063   1.329  0.00  0.00    +0.050 A 
ATOM     26  O   LIG    1       -2.099  -0.354   1.039  0.00  0.00    -0.300 OA
ENDBRANCH  16  17
ENDBRANCH   2  16
TORSDOF 5
