REMARK  Name = ZINCrg000000t21V.0
REMARK                            x       y       z     vdW  Elec       q    Type
REMARK                         _______ _______ _______ _____ _____    ______ ____
ROOT
ATOM      1  C   LIG    1        1.227  -1.903  -1.708  0.00  0.00    +0.530 C 
ATOM      2  N   LIG    1        0.394  -0.871  -1.467  0.00  0.00    -0.590 N 
ATOM      3  O   LIG    1        1.385  -2.303  -2.842  0.00  0.00    -0.530 OA
ENDROOT
BRANCH   1   7
ATOM      4  N   LIG    1        4.273  -3.556   0.723  0.00  0.00    -1.000 NA
ATOM      5  C   LIG    1        3.355  -4.521   0.102  0.00  0.00    +0.300 C 
ATOM      6  C   LIG    1        2.638  -3.838  -1.067  0.00  0.00    +0.050 C 
ATOM      7  C   LIG    1        1.962  -2.560  -0.568  0.00  0.00    +0.000 C 
ATOM      8  C   LIG    1        3.021  -1.599  -0.024  0.00  0.00    +0.050 C 
ATOM      9  C   LIG    1        3.743  -2.256   1.157  0.00  0.00    +0.300 C 
BRANCH   4  10
ATOM     10  S   LIG    1        5.874  -3.926   0.929  0.00  0.00    +2.790 S 
ATOM     11  O   LIG    1        5.959  -5.344   0.947  0.00  0.00    -0.980 OA
ATOM     12  O   LIG    1        6.342  -3.105   1.990  0.00  0.00    -0.980 OA
BRANCH  10  13
ATOM     13  N   LIG    1        6.671  -3.427  -0.434  0.00  0.00    -1.260 NA
ATOM     14  H   LIG    1        6.213  -3.420  -1.289  0.00  0.00    +0.410 HD
ATOM     15  H   LIG    1        7.597  -3.143  -0.378  0.00  0.00    +0.420 HD
ENDBRANCH  10  13
ENDBRANCH   4  10
ENDBRANCH   1   7
BRANCH   2  16
ATOM     16  C   LIG    1        0.306  -0.299  -0.122  0.00  0.00    +0.250 C 
BRANCH  16  17
ATOM     17  C   LIG    1       -1.109  -0.493   0.424  0.00  0.00    -0.020 C 
ATOM     18  C   LIG    1       -2.108   0.572  -0.059  0.00  0.00    +0.010 C 
ATOM     19  C   LIG    1       -2.688   0.562   1.365  0.00  0.00    +0.010 C 
ATOM     20  C   LIG    1       -1.308   0.076   1.839  0.00  0.00    +0.010 C 
ENDBRANCH  16  17
BRANCH  16  21
ATOM     21  C   LIG    1        0.629   1.196  -0.181  0.00  0.00    +0.170 C 
BRANCH  21  22
ATOM     22  O   LIG    1        1.962   1.376  -0.665  0.00  0.00    -0.560 OA
ATOM     23  H   LIG    1        2.235   2.302  -0.729  0.00  0.00    +0.380 HD
ENDBRANCH  21  22
ENDBRANCH  16  21
ENDBRANCH   2  16
BRANCH   2  24
ATOM     24  C   LIG    1       -0.424  -0.322  -2.552  0.00  0.00    +0.330 C 
BRANCH  24  25
ATOM     25  C   LIG    1        0.341   0.769  -3.256  0.00  0.00    -0.090 A 
ATOM     26  C   LIG    1        0.121   2.092  -2.923  0.00  0.00    +0.010 A 
ATOM     27  C   LIG    1        0.827   3.093  -3.566  0.00  0.00    -0.010 A 
ATOM     28  C   LIG    1        1.745   2.770  -4.548  0.00  0.00    +0.000 A 
ATOM     29  C   LIG    1        1.961   1.446  -4.883  0.00  0.00    +0.000 A 
ATOM     30  C   LIG    1        1.259   0.446  -4.237  0.00  0.00    +0.040 A 
ENDBRANCH  24  25
ENDBRANCH   2  24
TORSDOF 9
