REMARK  Name = ZINCkj00000dDQb7.0
REMARK                            x       y       z     vdW  Elec       q    Type
REMARK                         _______ _______ _______ _____ _____    ______ ____
ROOT
ATOM      1  C   LIG    1        2.214   5.221   1.445  0.00  0.00    +0.510 C 
ATOM      2  N   LIG    1        2.330   5.888   2.610  0.00  0.00    -0.640 N 
ATOM      3  H   LIG    1        2.122   5.444   3.447  0.00  0.00    +0.430 HD
ATOM      4  O   LIG    1        2.473   5.777   0.399  0.00  0.00    -0.460 OA
ENDROOT
BRANCH   2   5
ATOM      5  C   LIG    1        2.746   7.215   2.613  0.00  0.00    +0.300 A 
ATOM      6  N   LIG    1        3.051   7.898   1.557  0.00  0.00    -0.480 NA
ATOM      7  C   LIG    1        3.428   9.156   1.729  0.00  0.00    +0.130 A 
ATOM      8  C   LIG    1        3.444   9.537   3.020  0.00  0.00    -0.360 A 
ATOM      9  C   LIG    1        3.840  10.911   3.501  0.00  0.00    +0.380 C 
ATOM     10  N   LIG    1        4.572  11.592   2.421  0.00  0.00    -0.500 N 
ATOM     11  C   LIG    1        3.787  11.537   1.180  0.00  0.00    +0.290 C 
ATOM     12  H   LIG    1        5.460  11.136   2.277  0.00  0.00    +0.430 HD
ATOM     13  H   LIG    1        4.728  12.556   2.677  0.00  0.00    +0.440 HD
ATOM     14  C   LIG    1        3.818  10.115   0.613  0.00  0.00    +0.180 C 
ATOM     15  S   LIG    1        2.936   8.178   4.012  0.00  0.00    +0.220 S 
ENDBRANCH   2   5
BRANCH   1  16
ATOM     16  C   LIG    1        1.762   3.783   1.442  0.00  0.00    +0.090 C 
BRANCH  16  17
ATOM     17  C   LIG    1        1.716   3.266   0.003  0.00  0.00    +0.150 C 
BRANCH  17  23
ATOM     18  C   LIG    1       -1.206  -0.904   0.009  0.00  0.00    +0.160 C 
ATOM     19  C   LIG    1        0.002  -0.004   0.002  0.00  0.00    +0.080 A 
ATOM     20  N   LIG    1        1.250  -0.396  -0.012  0.00  0.00    -0.290 NA
ATOM     21  N   LIG    1        2.066   0.743  -0.014  0.00  0.00    -0.470 N 
ATOM     22  H   LIG    1        3.036   0.750  -0.023  0.00  0.00    +0.440 HD
ATOM     23  C   LIG    1        1.265   1.828  -0.000  0.00  0.00    +0.080 A 
ATOM     24  C   LIG    1       -0.017   1.395   0.010  0.00  0.00    -0.110 A 
ENDBRANCH  17  23
ENDBRANCH  16  17
ENDBRANCH   1  16
TORSDOF 4
