REMARK  Name = ZINCrD00000l2WEf.0
REMARK                            x       y       z     vdW  Elec       q    Type
REMARK                         _______ _______ _______ _____ _____    ______ ____
ROOT
ATOM      1  C   LIG    1       -0.298   1.288   4.876  0.00  0.00    +0.520 C 
ATOM      2  N   LIG    1       -0.804   1.637   6.076  0.00  0.00    -0.610 N 
ATOM      3  C   LIG    1       -2.009   2.472   6.166  0.00  0.00    +0.270 C 
ATOM      4  C   LIG    1       -3.035   1.755   7.056  0.00  0.00    +0.050 C 
ATOM      5  C   LIG    1       -2.392   1.432   8.407  0.00  0.00    +0.120 C 
ATOM      6  C   LIG    1       -1.201   0.495   8.196  0.00  0.00    +0.050 C 
ATOM      7  C   LIG    1       -0.157   1.194   7.318  0.00  0.00    +0.300 C 
ATOM      8  O   LIG    1        0.700   0.602   4.815  0.00  0.00    -0.510 OA
ENDROOT
BRANCH   5   9
ATOM      9  C   LIG    1       -3.406   0.761   9.298  0.00  0.00    +0.250 A 
ATOM     10  N   LIG    1       -4.011  -0.356   9.025  0.00  0.00    -0.470 NA
ATOM     11  C   LIG    1       -4.851  -0.662  10.051  0.00  0.00    +0.020 A 
ATOM     12  C   LIG    1       -5.729  -1.718  10.298  0.00  0.00    +0.080 A 
ATOM     13  C   LIG    1       -6.465  -1.736  11.461  0.00  0.00    +0.020 A 
ATOM     14  C   LIG    1       -6.339  -0.712  12.388  0.00  0.00    +0.050 A 
ATOM     15  C   LIG    1       -5.474   0.338  12.157  0.00  0.00    +0.050 A 
ATOM     16  C   LIG    1       -4.725   0.372  10.991  0.00  0.00    +0.010 A 
ATOM     17  O   LIG    1       -3.818   1.236  10.484  0.00  0.00    -0.210 OA
ENDBRANCH   5   9
BRANCH   1  18
ATOM     18  C   LIG    1       -0.974   1.750   3.611  0.00  0.00    +0.250 C 
BRANCH  18  19
ATOM     19  O   LIG    1       -0.243   1.247   2.461  0.00  0.00    -0.330 OA
BRANCH  19  21
ATOM     20  O   LIG    1       -1.711   2.254   1.150  0.00  0.00    -0.490 OA
ATOM     21  C   LIG    1       -0.718   1.572   1.248  0.00  0.00    +0.460 C 
BRANCH  21  22
ATOM     22  C   LIG    1       -0.013   1.086   0.008  0.00  0.00    +0.210 C 
BRANCH  22  23
ATOM     23  C   LIG    1       -0.742   1.585  -1.213  0.00  0.00    -0.180 A 
ATOM     24  C   LIG    1       -0.496   2.738  -1.837  0.00  0.00    +0.030 A 
ATOM     25  C   LIG    1       -1.295   2.986  -2.940  0.00  0.00    +0.000 A 
ATOM     26  C   LIG    1       -2.188   2.033  -3.212  0.00  0.00    -0.030 A 
ATOM     27  S   LIG    1       -2.041   0.733  -2.037  0.00  0.00    +0.120 S 
ENDBRANCH  22  23
ENDBRANCH  21  22
ENDBRANCH  19  21
ENDBRANCH  18  19
ENDBRANCH   1  18
TORSDOF 6
