REMARK  Name = ZINCrg000000sxGn.0
REMARK                            x       y       z     vdW  Elec       q    Type
REMARK                         _______ _______ _______ _____ _____    ______ ____
ROOT
ATOM      1  C   LIG    1        1.444  -1.587  -0.016  0.00  0.00    +0.130 C 
ATOM      2  C   LIG    1        0.869  -2.253   1.236  0.00  0.00    +0.040 C 
ATOM      3  C   LIG    1       -0.650  -2.058   1.261  0.00  0.00    +0.300 C 
ATOM      4  N   LIG    1       -1.212  -2.559  -0.000  0.00  0.00    -0.630 N 
ATOM      5  C   LIG    1       -0.667  -2.052  -1.267  0.00  0.00    +0.280 C 
ATOM      6  C   LIG    1       -2.208  -3.466   0.004  0.00  0.00    +0.710 C 
ATOM      7  N   LIG    1       -2.786  -3.839  -1.155  0.00  0.00    -0.740 N 
ATOM      8  H   LIG    1       -2.438  -3.509  -1.998  0.00  0.00    +0.390 HD
ATOM      9  O   LIG    1       -2.586  -3.949   1.054  0.00  0.00    -0.580 OA
ATOM     10  C   LIG    1        0.853  -2.247  -1.263  0.00  0.00    +0.040 C 
ENDROOT
BRANCH   7  11
ATOM     11  C   LIG    1       -3.940  -4.741  -1.142  0.00  0.00    +0.280 C 
ATOM     12  C   LIG    1       -3.455  -6.196  -1.097  0.00  0.00    +0.030 C 
ATOM     13  C   LIG    1       -2.447  -6.405  -2.229  0.00  0.00    +0.070 C 
ATOM     14  C   LIG    1       -3.007  -5.873  -3.517  0.00  0.00    +0.520 C 
ATOM     15  N   LIG    1       -4.032  -5.022  -3.578  0.00  0.00    -0.720 N 
ATOM     16  H   LIG    1       -4.308  -4.704  -4.452  0.00  0.00    +0.400 HD
ATOM     17  O   LIG    1       -2.500  -6.236  -4.557  0.00  0.00    -0.550 OA
ATOM     18  C   LIG    1       -4.766  -4.536  -2.412  0.00  0.00    +0.230 C 
BRANCH  18  19
ATOM     19  C   LIG    1       -5.069  -3.046  -2.583  0.00  0.00    +0.140 C 
ATOM     20  C   LIG    1       -5.902  -2.824  -3.860  0.00  0.00    +0.000 C 
ATOM     21  C   LIG    1       -7.196  -2.140  -3.355  0.00  0.00    +0.010 C 
ATOM     22  C   LIG    1       -6.747  -1.565  -1.988  0.00  0.00    +0.210 C 
ATOM     23  O   LIG    1       -5.854  -2.577  -1.474  0.00  0.00    -0.360 OA
ENDBRANCH  18  19
ENDBRANCH   7  11
BRANCH   1  28
ATOM     24  C   LIG    1        6.376  -0.719  -0.046  0.00  0.00    +0.210 C 
ATOM     25  C   LIG    1        5.029  -1.395  -0.039  0.00  0.00    +0.170 A 
ATOM     26  N   LIG    1        4.812  -2.676  -0.041  0.00  0.00    -0.380 NA
ATOM     27  O   LIG    1        3.620  -2.900  -0.027  0.00  0.00    +0.080 OA
ATOM     28  C   LIG    1        2.943  -1.748  -0.026  0.00  0.00    +0.190 A 
ATOM     29  N   LIG    1        3.831  -0.783  -0.030  0.00  0.00    -0.480 NA
ENDBRANCH   1  28
TORSDOF 3
