REMARK  Name = ZINCqH0000001i9o.0
REMARK                            x       y       z     vdW  Elec       q    Type
REMARK                         _______ _______ _______ _____ _____    ______ ____
ROOT
ATOM      1  N   LIG    1        1.215  -2.098  -0.020  0.00  0.00    -0.660 N 
ATOM      2  H   LIG    1        2.056  -2.576  -0.099  0.00  0.00    +0.420 HD
ATOM      3  C   LIG    1        0.059  -2.782   0.089  0.00  0.00    +0.520 C 
ATOM      4  O   LIG    1       -0.998  -2.188   0.103  0.00  0.00    -0.520 OA
ENDROOT
BRANCH   1   8
ATOM      5  C   LIG    1        1.251   2.027   0.020  0.00  0.00    +0.310 A 
ATOM      6  C   LIG    1        0.182   1.383  -0.589  0.00  0.00    -0.020 A 
ATOM      7  C   LIG    1        0.152   0.000  -0.613  0.00  0.00    +0.120 A 
ATOM      8  C   LIG    1        1.203  -0.697  -0.020  0.00  0.00    +0.050 A 
ATOM      9  C   LIG    1        2.237   0.015   0.570  0.00  0.00    +0.280 A 
ATOM     10  N   LIG    1        2.232   1.334   0.574  0.00  0.00    -0.520 NA
BRANCH   5  11
ATOM     11  O   LIG    1        1.290   3.383   0.049  0.00  0.00    -0.300 OA
BRANCH  11  12
ATOM     12  C   LIG    1        2.415   3.987   0.690  0.00  0.00    +0.220 C 
BRANCH  12  14
ATOM     13  C   LIG    1        3.421   6.156   1.416  0.00  0.00    +0.040 C 
ATOM     14  C   LIG    1        2.284   5.510   0.623  0.00  0.00    -0.020 C 
ATOM     15  C   LIG    1        2.357   5.965  -0.837  0.00  0.00    +0.020 C 
ENDBRANCH  12  14
ENDBRANCH  11  12
ENDBRANCH   5  11
ENDBRANCH   1   8
BRANCH   3  16
ATOM     16  C   LIG    1        0.080  -4.285   0.195  0.00  0.00    +0.080 C 
BRANCH  16  17
ATOM     17  C   LIG    1       -1.354  -4.808   0.308  0.00  0.00    +0.220 C 
BRANCH  17  18
ATOM     18  C   LIG    1       -1.333  -6.311   0.413  0.00  0.00    +0.160 A 
ATOM     19  N   LIG    1       -1.267  -7.004   1.515  0.00  0.00    -0.270 NA
ATOM     20  N   LIG    1       -1.270  -8.260   1.235  0.00  0.00    -0.270 NA
ATOM     21  C   LIG    1       -1.337  -8.413  -0.068  0.00  0.00    +0.230 A 
ATOM     22  O   LIG    1       -1.384  -7.181  -0.612  0.00  0.00    -0.220 OA
BRANCH  21  23
ATOM     23  C   LIG    1       -1.362  -9.696  -0.799  0.00  0.00    -0.040 A 
ATOM     24  C   LIG    1       -1.438  -9.771  -2.142  0.00  0.00    -0.050 A 
ATOM     25  S   LIG    1       -1.442 -11.400  -2.650  0.00  0.00    +0.220 S 
ATOM     26  C   LIG    1       -1.348 -11.973  -0.991  0.00  0.00    -0.050 A 
ATOM     27  C   LIG    1       -1.315 -10.936  -0.157  0.00  0.00    +0.060 A 
ENDBRANCH  21  23
ENDBRANCH  17  18
ENDBRANCH  16  17
ENDBRANCH   3  16
TORSDOF 8
