REMARK  Name = ZINCrD0000071QwK.0
REMARK                            x       y       z     vdW  Elec       q    Type
REMARK                         _______ _______ _______ _____ _____    ______ ____
ROOT
ATOM      1  C   LIG    1        3.942   1.337  -3.532  0.00  0.00    +0.580 C 
ATOM      2  N   LIG    1        4.059   1.352  -2.190  0.00  0.00    -0.720 N 
ATOM      3  H   LIG    1        4.250   0.531  -1.710  0.00  0.00    +0.410 HD
ATOM      4  O   LIG    1        3.702   2.366  -4.133  0.00  0.00    -0.550 OA
ENDROOT
BRANCH   1  11
ATOM      5  C   LIG    1        3.869   0.027  -5.655  0.00  0.00    +0.280 A 
ATOM      6  C   LIG    1        4.025  -1.171  -6.341  0.00  0.00    -0.060 A 
ATOM      7  C   LIG    1        4.412  -2.310  -5.665  0.00  0.00    +0.110 A 
ATOM      8  C   LIG    1        4.647  -2.269  -4.299  0.00  0.00    -0.110 A 
ATOM      9  C   LIG    1        4.501  -1.088  -3.602  0.00  0.00    +0.110 A 
ATOM     10 CL   LIG    1        5.133  -3.711  -3.463  0.00  0.00    -0.070 Cl
ATOM     11  C   LIG    1        4.105   0.072  -4.272  0.00  0.00    -0.220 A 
BRANCH   5  12
ATOM     12  N   LIG    1        3.479   1.175  -6.334  0.00  0.00    -0.720 N 
ATOM     13  H   LIG    1        3.448   2.026  -5.870  0.00  0.00    +0.420 HD
BRANCH  12  15
ATOM     14  C   LIG    1        2.728   2.492  -8.253  0.00  0.00    +0.030 C 
ATOM     15  C   LIG    1        3.115   1.099  -7.751  0.00  0.00    +0.230 C 
ENDBRANCH  12  15
ENDBRANCH   5  12
ENDBRANCH   1  11
BRANCH   2  16
ATOM     16  C   LIG    1        3.897   2.609  -1.455  0.00  0.00    +0.230 C 
ATOM     17  C   LIG    1        5.228   3.362  -1.433  0.00  0.00    +0.040 C 
BRANCH  16  18
ATOM     18  C   LIG    1        3.457   2.308  -0.020  0.00  0.00    +0.340 C 
BRANCH  18  19
ATOM     19  N   LIG    1        2.246   1.484  -0.043  0.00  0.00    -0.430 N 
ATOM     20  N   LIG    1        0.999   2.111  -0.053  0.00  0.00    -0.230 NA
ATOM     21  C   LIG    1       -0.119   1.448  -0.073  0.00  0.00    +0.320 A 
ATOM     22  C   LIG    1       -0.103  -0.015  -0.087  0.00  0.00    -0.070 A 
ATOM     23  C   LIG    1       -1.281  -0.764  -0.110  0.00  0.00    +0.050 A 
ATOM     24  C   LIG    1       -1.211  -2.139  -0.123  0.00  0.00    +0.050 A 
ATOM     25  C   LIG    1        0.016  -2.788  -0.114  0.00  0.00    +0.030 A 
ATOM     26  C   LIG    1        1.192  -2.070  -0.092  0.00  0.00    +0.090 A 
ATOM     27  C   LIG    1        1.146  -0.677  -0.079  0.00  0.00    -0.130 A 
ATOM     28  C   LIG    1        2.365   0.140  -0.055  0.00  0.00    +0.530 A 
ATOM     29  O   LIG    1        3.464  -0.385  -0.047  0.00  0.00    -0.530 OA
ENDBRANCH  18  19
ENDBRANCH  16  18
ENDBRANCH   2  16
TORSDOF 6
