REMARK  Name = ZINCvU00000005sy.0
REMARK                            x       y       z     vdW  Elec       q    Type
REMARK                         _______ _______ _______ _____ _____    ______ ____
ROOT
ATOM      1  C   LIG    1        4.152   8.369  -0.175  0.00  0.00    +0.070 C 
ENDROOT
BRANCH   1   2
ATOM      2  C   LIG    1        3.511   8.570   1.174  0.00  0.00    -0.090 A 
ATOM      3  C   LIG    1        4.200   8.232   2.324  0.00  0.00    +0.040 A 
ATOM      4  C   LIG    1        3.614   8.419   3.561  0.00  0.00    +0.000 A 
ATOM      5  C   LIG    1        2.335   8.937   3.649  0.00  0.00    +0.010 A 
ATOM      6  C   LIG    1        1.644   9.270   2.499  0.00  0.00    +0.010 A 
ATOM      7  C   LIG    1        2.232   9.086   1.261  0.00  0.00    +0.060 A 
ENDBRANCH   1   2
BRANCH   1  10
ATOM      8  N   LIG    1        5.344  10.508  -0.525  0.00  0.00    -0.660 N 
ATOM      9  H   LIG    1        4.480  10.943  -0.599  0.00  0.00    +0.410 HD
ATOM     10  C   LIG    1        5.414   9.189  -0.258  0.00  0.00    +0.540 C 
ATOM     11  O   LIG    1        6.492   8.662  -0.085  0.00  0.00    -0.500 OA
BRANCH   8  17
ATOM     12  C   LIG    1        7.765  14.133  -2.799  0.00  0.00    +0.090 C 
ATOM     13  C   LIG    1        7.719  13.013  -1.791  0.00  0.00    -0.060 A 
ATOM     14  C   LIG    1        8.838  12.719  -1.034  0.00  0.00    -0.010 A 
ATOM     15  C   LIG    1        8.800  11.692  -0.109  0.00  0.00    -0.060 A 
ATOM     16  C   LIG    1        7.644  10.957   0.062  0.00  0.00    +0.020 A 
ATOM     17  C   LIG    1        6.518  11.251  -0.696  0.00  0.00    +0.150 A 
ATOM     18  C   LIG    1       10.023  11.373   0.713  0.00  0.00    +0.100 C 
ATOM     19  C   LIG    1        6.561  12.279  -1.629  0.00  0.00    -0.020 A 
ENDBRANCH   8  17
ENDBRANCH   1  10
BRANCH   1  20
ATOM     20  S   LIG    1        4.555   6.618  -0.398  0.00  0.00    +0.080 S 
BRANCH  20  21
ATOM     21  C   LIG    1        2.932   5.931  -0.408  0.00  0.00    +0.140 A 
ATOM     22  N   LIG    1        1.805   6.592  -0.281  0.00  0.00    -0.280 NA
ATOM     23  N   LIG    1        0.809   5.781  -0.333  0.00  0.00    -0.270 NA
ATOM     24  C   LIG    1        1.240   4.552  -0.496  0.00  0.00    +0.260 A 
ATOM     25  N   LIG    1        2.613   4.608  -0.544  0.00  0.00    -0.460 N 
ATOM     26  C   LIG    1        3.540   3.486  -0.710  0.00  0.00    +0.350 C 
BRANCH  24  27
ATOM     27  C   LIG    1        0.405   3.336  -0.602  0.00  0.00    -0.140 A 
ATOM     28  C   LIG    1       -0.643   2.986   0.192  0.00  0.00    +0.060 A 
ATOM     29  O   LIG    1       -1.131   1.815  -0.241  0.00  0.00    -0.170 OA
ATOM     30  C   LIG    1       -0.432   1.369  -1.296  0.00  0.00    +0.180 A 
ATOM     31  C   LIG    1       -1.170   3.784   1.357  0.00  0.00    +0.180 C 
ATOM     32  C   LIG    1        0.536   2.254  -1.587  0.00  0.00    -0.050 A 
ENDBRANCH  24  27
ENDBRANCH  20  21
ENDBRANCH   1  20
TORSDOF 6
