REMARK  Name = ZINCb70000002CsU.0
REMARK                            x       y       z     vdW  Elec       q    Type
REMARK                         _______ _______ _______ _____ _____    ______ ____
ROOT
ATOM      1  C   LIG    1       -0.017   1.396   0.010  0.00  0.00    +0.010 A 
ATOM      2  N   LIG    1        1.222   1.826   0.000  0.00  0.00    -0.250 NA
ATOM      3  N   LIG    1        2.067   0.717  -0.013  0.00  0.00    -0.380 N 
ATOM      4  C   LIG    1        3.534   0.693  -0.022  0.00  0.00    +0.330 C 
ATOM      5  C   LIG    1        3.987  -0.714   0.394  0.00  0.00    +0.030 C 
ATOM      6  C   LIG    1        3.185  -1.757  -0.391  0.00  0.00    +0.260 C 
ATOM      7  O   LIG    1        1.800  -1.661  -0.027  0.00  0.00    -0.280 OA
ATOM      8  C   LIG    1        1.295  -0.398  -0.013  0.00  0.00    +0.290 A 
ATOM      9  C   LIG    1        0.002  -0.004   0.002  0.00  0.00    -0.100 A 
ENDROOT
BRANCH   1  10
ATOM     10  C   LIG    1       -1.251   2.262   0.021  0.00  0.00    +0.410 C 
BRANCH  10  11
ATOM     11  N   LIG    1       -1.575   2.634   1.404  0.00  0.00    -0.630 N 
ATOM     12  H   LIG    1       -0.803   3.145   1.805  0.00  0.00    +0.440 HD
ATOM     13  H   LIG    1       -1.745   1.800   1.946  0.00  0.00    +0.440 HD
ATOM     14  H   LIG    1       -2.401   3.214   1.411  0.00  0.00    +0.440 HD
ENDBRANCH  10  11
ENDBRANCH   1  10
TORSDOF 2
