REMARK  Name = ZINCqH0000050Wtk.0
REMARK                            x       y       z     vdW  Elec       q    Type
REMARK                         _______ _______ _______ _____ _____    ______ ____
ROOT
ATOM      1  C   LIG    1        4.864   1.054  -0.254  0.00  0.00    +0.240 C 
ENDROOT
BRANCH   1   2
ATOM      2  C   LIG    1        5.132   0.280   1.011  0.00  0.00    -0.120 A 
ATOM      3  C   LIG    1        5.651   0.923   2.119  0.00  0.00    +0.040 A 
ATOM      4  C   LIG    1        5.892   0.213   3.280  0.00  0.00    +0.010 A 
ATOM      5  C   LIG    1        5.622  -1.142   3.330  0.00  0.00    +0.030 A 
ATOM      6  C   LIG    1        5.109  -1.786   2.221  0.00  0.00    +0.010 A 
ATOM      7  C   LIG    1        4.863  -1.075   1.061  0.00  0.00    +0.030 A 
ENDBRANCH   1   2
BRANCH   1   8
ATOM      8  C   LIG    1        3.557   1.792  -0.124  0.00  0.00    +0.530 C 
ATOM      9  N   LIG    1        2.403   1.105  -0.015  0.00  0.00    -0.660 N 
ATOM     10  H   LIG    1        2.419   0.137   0.047  0.00  0.00    +0.420 HD
ATOM     11  O   LIG    1        3.543   3.005  -0.117  0.00  0.00    -0.490 OA
BRANCH   9  12
ATOM     12  C   LIG    1        1.181   1.787   0.009  0.00  0.00    +0.130 A 
ATOM     13  C   LIG    1        0.059   1.225  -0.586  0.00  0.00    +0.030 A 
ATOM     14  C   LIG    1       -1.145   1.903  -0.567  0.00  0.00    +0.010 A 
ATOM     15  C   LIG    1       -1.235   3.137   0.054  0.00  0.00    +0.090 A 
ATOM     16  C   LIG    1       -0.118   3.700   0.647  0.00  0.00    +0.010 A 
ATOM     17  F   LIG    1       -2.414   3.796   0.076  0.00  0.00    -0.140 F 
ATOM     18  C   LIG    1        1.089   3.028   0.626  0.00  0.00    +0.060 A 
ENDBRANCH   9  12
ENDBRANCH   1   8
BRANCH   1  19
ATOM     19  O   LIG    1        5.938   2.007  -0.474  0.00  0.00    -0.330 OA
BRANCH  19  20
ATOM     20  C   LIG    1        6.993   1.584  -1.200  0.00  0.00    +0.540 C 
ATOM     21  O   LIG    1        7.015   0.449  -1.637  0.00  0.00    -0.490 OA
BRANCH  20  27
ATOM     22  C   LIG    1        7.226   4.519  -0.240  0.00  0.00    +0.340 C 
ATOM     23  N   LIG    1        8.221   3.796  -1.037  0.00  0.00    -0.420 N 
ATOM     24  C   LIG    1        9.395   4.298  -1.473  0.00  0.00    +0.210 A 
ATOM     25  C   LIG    1       10.046   3.345  -2.181  0.00  0.00    -0.060 A 
ATOM     26  C   LIG    1        9.251   2.195  -2.185  0.00  0.00    +0.060 A 
ATOM     27  C   LIG    1        8.113   2.491  -1.462  0.00  0.00    -0.050 A 
ENDBRANCH  20  27
ENDBRANCH  19  20
ENDBRANCH   1  19
TORSDOF 6
