REMARK  Name = ZINCpe00000yy8fC.0
REMARK                            x       y       z     vdW  Elec       q    Type
REMARK                         _______ _______ _______ _____ _____    ______ ____
ROOT
ATOM      1  C   LIG    1       -0.948   0.774  -2.241  0.00  0.00    +0.530 C 
ATOM      2  N   LIG    1       -0.723   1.576  -1.181  0.00  0.00    -0.610 N 
ATOM      3  C   LIG    1       -1.184   2.975  -1.167  0.00  0.00    +0.280 C 
ATOM      4  C   LIG    1       -2.190   3.130  -0.024  0.00  0.00    +0.070 C 
ATOM      5  C   LIG    1       -1.672   2.474   1.221  0.00  0.00    +0.040 C 
ATOM      6  C   LIG    1       -0.719   1.572   1.243  0.00  0.00    -0.120 C 
ATOM      7  C   LIG    1       -0.010   1.089   0.008  0.00  0.00    +0.340 C 
ATOM      8  O   LIG    1       -0.558  -0.374  -2.226  0.00  0.00    -0.530 OA
ENDROOT
BRANCH   1  11
ATOM      9  N   LIG    1       -1.621   0.985  -5.821  0.00  0.00    -0.610 N 
ATOM     10  C   LIG    1       -1.756   0.241  -4.562  0.00  0.00    +0.300 C 
ATOM     11  C   LIG    1       -1.682   1.305  -3.445  0.00  0.00    +0.000 C 
ATOM     12  C   LIG    1       -0.876   2.431  -4.133  0.00  0.00    +0.070 C 
ATOM     13  C   LIG    1       -1.125   2.216  -5.610  0.00  0.00    +0.520 C 
ATOM     14  O   LIG    1       -0.907   3.035  -6.478  0.00  0.00    -0.520 OA
BRANCH   9  18
ATOM     15  C   LIG    1       -2.107   2.314  -9.875  0.00  0.00    +0.170 C 
ATOM     16  N   LIG    1       -2.220   1.078  -9.088  0.00  0.00    -0.480 NA
ATOM     17  C   LIG    1       -3.040   1.295  -7.876  0.00  0.00    +0.160 C 
ATOM     18  C   LIG    1       -1.983   0.453  -7.137  0.00  0.00    +0.250 C 
ATOM     19  C   LIG    1       -1.012   0.862  -8.259  0.00  0.00    +0.170 C 
ENDBRANCH   9  18
ENDBRANCH   1  11
BRANCH   6  20
ATOM     20  C   LIG    1       -0.323   1.000   2.547  0.00  0.00    +0.170 A 
ATOM     21  C   LIG    1        0.608  -0.037   2.594  0.00  0.00    -0.030 A 
ATOM     22  C   LIG    1        0.968  -0.562   3.822  0.00  0.00    +0.070 A 
ATOM     23  C   LIG    1        0.386  -0.033   4.965  0.00  0.00    -0.040 A 
ATOM     24  C   LIG    1       -0.531   0.995   4.846  0.00  0.00    +0.270 A 
ATOM     25  N   LIG    1       -0.854   1.481   3.666  0.00  0.00    -0.480 NA
ENDBRANCH   6  20
TORSDOF 3
