REMARK  Name = ZINCpk00000KfKWA.0
REMARK                            x       y       z     vdW  Elec       q    Type
REMARK                         _______ _______ _______ _____ _____    ______ ____
ROOT
ATOM      1  C   LIG    1       -0.079   5.603   0.033  0.00  0.00    +0.570 C 
ATOM      2  N   LIG    1       -1.257   6.258   0.048  0.00  0.00    -0.520 N 
ATOM      3  H   LIG    1       -2.089   5.759   0.053  0.00  0.00    +0.430 HD
ATOM      4  O   LIG    1        0.964   6.228   0.027  0.00  0.00    -0.540 OA
ENDROOT
BRANCH   1   8
ATOM      5  C   LIG    1       -0.016   1.354   0.009  0.00  0.00    +0.140 A 
ATOM      6  C   LIG    1       -1.228   2.030   0.019  0.00  0.00    -0.030 A 
ATOM      7  C   LIG    1       -1.252   3.408   0.032  0.00  0.00    +0.050 A 
ATOM      8  C   LIG    1       -0.055   4.127   0.025  0.00  0.00    -0.130 A 
ATOM      9  C   LIG    1        1.165   3.447   0.009  0.00  0.00    +0.040 A 
ATOM     10  C   LIG    1        1.183   2.066   0.002  0.00  0.00    +0.090 A 
BRANCH   5  12
ATOM     11  C   LIG    1       -1.262  -0.670   0.011  0.00  0.00    +0.250 C 
ATOM     12  O   LIG    1        0.002  -0.004   0.002  0.00  0.00    -0.300 OA
ENDBRANCH   5  12
BRANCH  10  13
ATOM     13  O   LIG    1        2.369   1.401  -0.013  0.00  0.00    -0.300 OA
ATOM     14  C   LIG    1        3.557   2.194  -0.021  0.00  0.00    +0.250 C 
ENDBRANCH  10  13
ENDBRANCH   1   8
BRANCH   2  15
ATOM     15  N   LIG    1       -1.280   7.659   0.056  0.00  0.00    -0.520 N 
ATOM     16  H   LIG    1       -0.448   8.157   0.051  0.00  0.00    +0.430 HD
ATOM     17  C   LIG    1       -2.458   8.313   0.071  0.00  0.00    +0.520 C 
ATOM     18  O   LIG    1       -3.498   7.690   0.077  0.00  0.00    -0.530 OA
BRANCH  17  19
ATOM     19  C   LIG    1       -2.482   9.820   0.080  0.00  0.00    +0.100 C 
BRANCH  19  20
ATOM     20  C   LIG    1       -3.933  10.307   0.096  0.00  0.00    +0.120 C 
BRANCH  20  21
ATOM     21  S   LIG    1       -3.962  12.116   0.107  0.00  0.00    +0.010 S 
BRANCH  21  22
ATOM     22  C   LIG    1       -5.702  12.394   0.125  0.00  0.00    +0.290 A 
ATOM     23  N   LIG    1       -6.524  11.354   0.121  0.00  0.00    -0.520 NA
ATOM     24  C   LIG    1       -7.835  11.527   0.139  0.00  0.00    +0.330 A 
ATOM     25  C   LIG    1       -8.346  12.816   0.151  0.00  0.00    -0.090 A 
ATOM     26  C   LIG    1       -7.459  13.881   0.149  0.00  0.00    +0.340 A 
ATOM     27  N   LIG    1       -6.159  13.638   0.136  0.00  0.00    -0.500 NA
ENDBRANCH  21  22
ENDBRANCH  20  21
ENDBRANCH  19  20
ENDBRANCH  17  19
ENDBRANCH   2  15
TORSDOF 8
