REMARK  Name = ZINCpk00000xJU4B.0
REMARK                            x       y       z     vdW  Elec       q    Type
REMARK                         _______ _______ _______ _____ _____    ______ ____
ROOT
ATOM      1  C   LIG    1        1.165   1.793  -0.295  0.00  0.00    -0.680 A 
ATOM      2  C   LIG    1        0.012   1.077  -0.029  0.00  0.00    +0.130 A 
ATOM      3  C   LIG    1       -1.168   1.740   0.252  0.00  0.00    +0.000 A 
ATOM      4  C   LIG    1       -1.198   3.120   0.277  0.00  0.00    -0.030 A 
ATOM      5  C   LIG    1       -0.042   3.843   0.010  0.00  0.00    +0.100 A 
ATOM      6  C   LIG    1       -2.483   3.842   0.589  0.00  0.00    +0.100 C 
ATOM      7  C   LIG    1        1.141   3.174  -0.276  0.00  0.00    +0.200 A 
ENDROOT
BRANCH   1   8
ATOM      8  S   LIG    1        2.665   0.943  -0.659  0.00  0.00    +2.690 S 
ATOM      9  O   LIG    1        2.543  -0.350  -0.083  0.00  0.00    -0.960 OA
ATOM     10  O   LIG    1        3.721   1.840  -0.342  0.00  0.00    -0.940 OA
BRANCH   8  11
ATOM     11  N   LIG    1        2.717   0.721  -2.299  0.00  0.00    -1.000 NA
BRANCH  11  13
ATOM     12  C   LIG    1        4.795   1.352  -3.425  0.00  0.00    +0.010 C 
ATOM     13  C   LIG    1        3.338   1.734  -3.156  0.00  0.00    +0.280 C 
ENDBRANCH  11  13
BRANCH  11  14
ATOM     14  C   LIG    1        2.143  -0.488  -2.893  0.00  0.00    +0.290 C 
ATOM     15  C   LIG    1        0.709  -0.203  -3.345  0.00  0.00    +0.010 C 
ENDBRANCH  11  14
ENDBRANCH   8  11
ENDBRANCH   1   8
BRANCH   5  16
ATOM     16  N   LIG    1       -0.069   5.241   0.030  0.00  0.00    -0.630 N 
ATOM     17  H   LIG    1       -0.774   5.719  -0.434  0.00  0.00    +0.410 HD
BRANCH  16  18
ATOM     18  C   LIG    1        0.884   5.925   0.694  0.00  0.00    +0.550 C 
ATOM     19  S   LIG    1        2.189   5.087   1.421  0.00  0.00    -0.590 S 
BRANCH  18  20
ATOM     20  N   LIG    1        0.810   7.267   0.786  0.00  0.00    -0.680 N 
ATOM     21  H   LIG    1        0.071   7.742   0.374  0.00  0.00    +0.400 HD
BRANCH  20  22
ATOM     22  C   LIG    1        1.846   8.010   1.508  0.00  0.00    +0.310 C 
BRANCH  22  23
ATOM     23  C   LIG    1        1.526   9.506   1.463  0.00  0.00    +0.270 C 
BRANCH  23  24
ATOM     24  N   LIG    1        2.562  10.249   2.184  0.00  0.00    -0.730 N 
ATOM     25  H   LIG    1        3.302   9.774   2.596  0.00  0.00    +0.410 HD
ATOM     26  C   LIG    1        2.488  11.591   2.276  0.00  0.00    +0.510 C 
ATOM     27  O   LIG    1        1.564  12.184   1.762  0.00  0.00    -0.540 OA
ATOM     28  C   LIG    1        3.554  12.355   3.019  0.00  0.00    +0.110 C 
ENDBRANCH  23  24
ENDBRANCH  22  23
ENDBRANCH  20  22
ENDBRANCH  18  20
ENDBRANCH  16  18
ENDBRANCH   5  16
TORSDOF 10
