REMARK  Name = ZINCqH0000007NLO.0
REMARK                            x       y       z     vdW  Elec       q    Type
REMARK                         _______ _______ _______ _____ _____    ______ ____
ROOT
ATOM      1  C   LIG    1        4.372  -0.843   0.272  0.00  0.00    +0.250 C 
ENDROOT
BRANCH   1   3
ATOM      2  C   LIG    1        4.304   1.461   1.061  0.00  0.00    +0.570 C 
ATOM      3  N   LIG    1        3.885   0.187   1.193  0.00  0.00    -0.710 N 
ATOM      4  H   LIG    1        3.262  -0.048   1.898  0.00  0.00    +0.410 HD
ATOM      5  O   LIG    1        5.085   1.756   0.177  0.00  0.00    -0.510 OA
BRANCH   2  11
ATOM      6  C   LIG    1        4.247   3.825   1.854  0.00  0.00    +0.190 A 
ATOM      7  C   LIG    1        3.781   4.792   2.732  0.00  0.00    -0.080 A 
ATOM      8  C   LIG    1        2.894   4.448   3.733  0.00  0.00    +0.080 A 
ATOM      9  C   LIG    1        2.460   3.140   3.865  0.00  0.00    -0.040 A 
ATOM     10  C   LIG    1        2.917   2.165   3.005  0.00  0.00    +0.080 A 
ATOM     11  C   LIG    1        3.814   2.499   1.988  0.00  0.00    -0.180 A 
BRANCH   6  13
ATOM     12  C   LIG    1        5.516   5.532   0.796  0.00  0.00    +0.240 C 
ATOM     13  O   LIG    1        5.119   4.162   0.871  0.00  0.00    -0.280 OA
ENDBRANCH   6  13
ENDBRANCH   2  11
ENDBRANCH   1   3
BRANCH   1  14
ATOM     14  C   LIG    1        4.290  -2.192   0.939  0.00  0.00    +0.520 C 
ATOM     15  N   LIG    1        5.176  -3.156   0.619  0.00  0.00    -0.660 N 
ATOM     16  H   LIG    1        5.784  -3.029  -0.125  0.00  0.00    +0.410 HD
ATOM     17  O   LIG    1        3.427  -2.410   1.763  0.00  0.00    -0.510 OA
BRANCH  15  18
ATOM     18  C   LIG    1        5.217  -4.342   1.362  0.00  0.00    +0.150 A 
ATOM     19  C   LIG    1        4.088  -4.776   2.043  0.00  0.00    +0.020 A 
ATOM     20  C   LIG    1        4.131  -5.950   2.770  0.00  0.00    -0.060 A 
ATOM     21  C   LIG    1        5.300  -6.686   2.829  0.00  0.00    -0.020 A 
ATOM     22  C   LIG    1        6.428  -6.253   2.157  0.00  0.00    -0.060 A 
ATOM     23  C   LIG    1        7.700  -7.058   2.225  0.00  0.00    +0.090 C 
ATOM     24  C   LIG    1        2.904  -6.425   3.505  0.00  0.00    +0.100 C 
ATOM     25  C   LIG    1        6.390  -5.083   1.423  0.00  0.00    -0.040 A 
ENDBRANCH  15  18
ENDBRANCH   1  14
BRANCH   1  26
ATOM     26  C   LIG    1        3.509  -0.846  -0.992  0.00  0.00    -0.020 C 
ATOM     27  C   LIG    1        3.704   0.472  -1.745  0.00  0.00    +0.040 C 
ATOM     28  C   LIG    1        2.037  -0.998  -0.604  0.00  0.00    +0.030 C 
ENDBRANCH   1  26
TORSDOF 6
