REMARK  Name = ZINCvU00000004fC.0
REMARK                            x       y       z     vdW  Elec       q    Type
REMARK                         _______ _______ _______ _____ _____    ______ ____
ROOT
ATOM      1  C   LIG    1        0.117  -7.815  -4.611  0.00  0.00    +0.260 A 
ATOM      2  N   LIG    1       -0.103  -6.746  -5.336  0.00  0.00    -0.490 NA
ATOM      3  C   LIG    1       -0.050  -7.070  -6.655  0.00  0.00    +0.070 A 
ATOM      4  C   LIG    1       -0.206  -6.333  -7.831  0.00  0.00    +0.080 A 
ATOM      5  C   LIG    1       -0.091  -6.960  -9.052  0.00  0.00    -0.040 A 
ATOM      6  C   LIG    1        0.180  -8.319  -9.123  0.00  0.00    +0.050 A 
ATOM      7  C   LIG    1        0.337  -9.061  -7.969  0.00  0.00    +0.040 A 
ATOM      8 CL   LIG    1       -0.285  -6.043 -10.514  0.00  0.00    -0.060 Cl
ATOM      9  C   LIG    1        0.224  -8.446  -6.732  0.00  0.00    +0.060 A 
ATOM     10  N   LIG    1        0.331  -8.892  -5.425  0.00  0.00    -0.460 N 
ENDROOT
BRANCH   1  11
ATOM     11  S   LIG    1        0.140  -7.857  -2.850  0.00  0.00    +0.060 S 
BRANCH  11  12
ATOM     12  C   LIG    1       -0.205  -6.117  -2.490  0.00  0.00    +0.090 C 
BRANCH  12  13
ATOM     13  C   LIG    1       -0.234  -5.909  -0.997  0.00  0.00    +0.440 C 
ATOM     14  O   LIG    1       -0.040  -6.846  -0.250  0.00  0.00    -0.430 OA
BRANCH  13  18
ATOM     15  C   LIG    1       -0.961  -2.232  -0.001  0.00  0.00    -0.210 A 
ATOM     16  C   LIG    1       -0.802  -2.982   1.098  0.00  0.00    +0.010 A 
ATOM     17  C   LIG    1       -0.538  -4.308   0.866  0.00  0.00    +0.130 A 
ATOM     18  C   LIG    1       -0.487  -4.624  -0.468  0.00  0.00    -0.300 A 
ATOM     19  S   LIG    1       -0.792  -3.173  -1.413  0.00  0.00    +0.260 S 
BRANCH  15  20
ATOM     20  C   LIG    1       -1.256  -0.754   0.010  0.00  0.00    +0.360 C 
BRANCH  20  23
ATOM     21  C   LIG    1        1.278   2.115   0.001  0.00  0.00    +0.110 C 
ATOM     22  C   LIG    1       -0.016   1.344   0.009  0.00  0.00    +0.510 C 
ATOM     23  N   LIG    1        0.002  -0.004   0.002  0.00  0.00    -0.730 N 
ATOM     24  H   LIG    1        0.849  -0.478  -0.009  0.00  0.00    +0.400 HD
ATOM     25  O   LIG    1       -1.075   1.936   0.018  0.00  0.00    -0.540 OA
ENDBRANCH  20  23
ENDBRANCH  15  20
ENDBRANCH  13  18
ENDBRANCH  12  13
ENDBRANCH  11  12
ENDBRANCH   1  11
BRANCH  10  26
ATOM     26  C   LIG    1        0.616 -10.263  -4.995  0.00  0.00    +0.370 C 
BRANCH  26  27
ATOM     27  C   LIG    1       -0.678 -11.019  -4.836  0.00  0.00    -0.120 A 
ATOM     28  C   LIG    1       -1.330 -11.024  -3.617  0.00  0.00    +0.040 A 
ATOM     29  C   LIG    1       -2.520 -11.714  -3.472  0.00  0.00    +0.010 A 
ATOM     30  C   LIG    1       -3.051 -12.407  -4.544  0.00  0.00    +0.020 A 
ATOM     31  C   LIG    1       -2.397 -12.406  -5.761  0.00  0.00    +0.010 A 
ATOM     32  C   LIG    1       -1.210 -11.712  -5.907  0.00  0.00    +0.020 A 
ENDBRANCH  26  27
ENDBRANCH  10  26
TORSDOF 8
