REMARK  Name = ZINCpe000000ZsOl.0
REMARK                            x       y       z     vdW  Elec       q    Type
REMARK                         _______ _______ _______ _____ _____    ______ ____
ROOT
ATOM      1  C   LIG    1        2.490   1.047  -0.017  0.00  0.00    +0.190 C 
ENDROOT
BRANCH   1   2
ATOM      2  C   LIG    1        1.041   1.438  -0.152  0.00  0.00    -0.120 A 
ATOM      3  C   LIG    1        0.095   0.485  -0.479  0.00  0.00    +0.090 A 
ATOM      4  C   LIG    1       -1.233   0.844  -0.609  0.00  0.00    +0.010 A 
ATOM      5  C   LIG    1       -1.619   2.155  -0.402  0.00  0.00    +0.060 A 
ATOM      6  C   LIG    1       -0.675   3.110  -0.075  0.00  0.00    -0.010 A 
ATOM      7  C   LIG    1        0.656   2.753   0.051  0.00  0.00    +0.100 A 
ATOM      8  F   LIG    1        1.579   3.686   0.370  0.00  0.00    -0.140 F 
ENDBRANCH   1   2
BRANCH   1  10
ATOM      9  O   LIG    1        3.188   0.336  -2.156  0.00  0.00    -0.500 OA
ATOM     10  C   LIG    1        3.186   1.233  -1.340  0.00  0.00    +0.560 C 
ATOM     11  N   LIG    1        3.807   2.397  -1.617  0.00  0.00    -0.640 N 
ATOM     12  C   LIG    1        4.015   3.677  -0.924  0.00  0.00    +0.300 C 
ATOM     13  C   LIG    1        5.304   3.847  -1.746  0.00  0.00    +0.260 C 
ATOM     14  C   LIG    1        4.567   2.948  -2.749  0.00  0.00    +0.300 C 
BRANCH  13  15
ATOM     15  N   LIG    1        5.538   5.213  -2.222  0.00  0.00    -0.280 N 
ATOM     16  C   LIG    1        4.662   6.241  -2.144  0.00  0.00    +0.140 A 
ATOM     17  C   LIG    1        5.284   7.309  -2.696  0.00  0.00    +0.150 A 
ATOM     18  N   LIG    1        6.491   6.885  -3.087  0.00  0.00    -0.270 NA
ATOM     19  N   LIG    1        6.611   5.639  -2.792  0.00  0.00    -0.080 NA
ENDBRANCH  13  15
ENDBRANCH   1  10
BRANCH   1  20
ATOM     20  N   LIG    1        2.581  -0.361   0.391  0.00  0.00    -0.510 NA
ATOM     21  C   LIG    1        1.939  -0.575   1.696  0.00  0.00    +0.150 C 
ATOM     22  C   LIG    1        2.004  -2.062   2.054  0.00  0.00    +0.230 C 
ATOM     23  O   LIG    1        3.369  -2.490   2.045  0.00  0.00    -0.380 OA
ATOM     24  C   LIG    1        4.025  -2.297   0.789  0.00  0.00    +0.230 C 
ATOM     25  C   LIG    1        3.980  -0.812   0.418  0.00  0.00    +0.140 C 
ENDBRANCH   1  20
TORSDOF 4
