REMARK  Name = ZINCrg00000fRmcy.0
REMARK                            x       y       z     vdW  Elec       q    Type
REMARK                         _______ _______ _______ _____ _____    ______ ____
ROOT
ATOM      1  C   LIG    1        1.121  -2.113  -0.020  0.00  0.00    +0.270 C 
ENDROOT
BRANCH   1   8
ATOM      2  C   LIG    1        3.255  -7.764  -1.263  0.00  0.00    +0.650 C 
ATOM      3  N   LIG    1        3.060  -6.430  -1.255  0.00  0.00    -0.600 N 
ATOM      4  C   LIG    1        4.204  -5.507  -1.261  0.00  0.00    +0.300 C 
ATOM      5  C   LIG    1        4.076  -4.561  -0.061  0.00  0.00    +0.290 C 
ATOM      6  N   LIG    1        2.716  -4.003  -0.045  0.00  0.00    -0.610 N 
ATOM      7  C   LIG    1        1.573  -4.926  -0.033  0.00  0.00    +0.280 C 
ATOM      8  C   LIG    1        2.522  -2.670  -0.036  0.00  0.00    +0.520 C 
ATOM      9  O   LIG    1        3.473  -1.918  -0.041  0.00  0.00    -0.510 OA
ATOM     10  C   LIG    1        1.700  -5.873  -1.239  0.00  0.00    +0.290 C 
ATOM     11  O   LIG    1        4.384  -8.213  -1.276  0.00  0.00    -0.570 OA
BRANCH   2  12
ATOM     12  O   LIG    1        2.198  -8.598  -1.257  0.00  0.00    -0.370 OA
BRANCH  12  14
ATOM     13  C   LIG    1        1.168 -10.805  -1.257  0.00  0.00    +0.070 C 
ATOM     14  C   LIG    1        2.483 -10.022  -1.266  0.00  0.00    +0.220 C 
ENDBRANCH  12  14
ENDBRANCH   2  12
ENDBRANCH   1   8
BRANCH   1  15
ATOM     15  O   LIG    1        1.178  -0.662  -0.013  0.00  0.00    -0.320 OA
BRANCH  15  16
ATOM     16  C   LIG    1        0.002  -0.004   0.002  0.00  0.00    +0.510 C 
ATOM     17  O   LIG    1       -1.042  -0.626   0.009  0.00  0.00    -0.490 OA
BRANCH  16  18
ATOM     18  C   LIG    1       -0.018   1.473   0.010  0.00  0.00    -0.100 A 
ATOM     19  C   LIG    1       -1.229   2.144   0.019  0.00  0.00    +0.160 A 
ATOM     20  C   LIG    1       -1.242   3.549   0.032  0.00  0.00    +0.060 A 
ATOM     21  N   LIG    1       -2.395   4.226   0.044  0.00  0.00    -0.410 NA
ATOM     22  C   LIG    1       -2.380   5.539   0.050  0.00  0.00    +0.260 A 
ATOM     23  C   LIG    1       -1.169   6.237   0.042  0.00  0.00    +0.280 A 
ATOM     24  N   LIG    1       -0.024   5.595   0.030  0.00  0.00    -0.430 NA
ATOM     25  C   LIG    1       -0.013   4.257   0.024  0.00  0.00    +0.100 A 
ATOM     26  C   LIG    1        1.201   3.545   0.009  0.00  0.00    +0.060 A 
ATOM     27  C   LIG    1        1.194   2.188   0.002  0.00  0.00    +0.100 A 
ENDBRANCH  16  18
ENDBRANCH  15  16
ENDBRANCH   1  15
TORSDOF 6
