REMARK  Name = ZINC9u0000000C4x.0
REMARK                            x       y       z     vdW  Elec       q    Type
REMARK                         _______ _______ _______ _____ _____    ______ ____
ROOT
ATOM      1  C   LIG    1        0.742  -0.511   1.242  0.00  0.00    +0.030 C 
ENDROOT
BRANCH   1   2
ATOM      2  C   LIG    1        0.002  -0.004   0.002  0.00  0.00    -0.020 C 
ATOM      3  C   LIG    1       -0.019   1.526   0.010  0.00  0.00    +0.010 C 
BRANCH   2   5
ATOM      4  C   LIG    1       -2.135  -0.131  -1.286  0.00  0.00    +0.010 C 
ATOM      5  C   LIG    1       -1.433  -0.534   0.013  0.00  0.00    +0.000 C 
ENDBRANCH   2   5
ENDBRANCH   1   2
BRANCH   1   6
ATOM      6  C   LIG    1        2.210  -0.086   1.169  0.00  0.00    +0.020 C 
BRANCH   6   7
ATOM      7  C   LIG    1        2.939  -0.585   2.389  0.00  0.00    +0.350 C 
ATOM      8  O   LIG    1        2.345  -1.216   3.231  0.00  0.00    -0.460 OA
ATOM      9  C   LIG    1        4.408  -0.297   2.560  0.00  0.00    +0.050 C 
ENDBRANCH   6   7
ENDBRANCH   1   6
TORSDOF 4
