REMARK  Name = ZINCvU00000004Z7.0
REMARK                            x       y       z     vdW  Elec       q    Type
REMARK                         _______ _______ _______ _____ _____    ______ ____
ROOT
ATOM      1  C   LIG    1       -0.951  -4.844  -0.290  0.00  0.00    -0.180 A 
ATOM      2  C   LIG    1       -2.193  -4.202  -0.283  0.00  0.00    +0.100 A 
ATOM      3  C   LIG    1       -2.257  -2.831  -0.184  0.00  0.00    -0.030 A 
ATOM      4  C   LIG    1       -1.087  -2.083  -0.091  0.00  0.00    +0.180 A 
ATOM      5  C   LIG    1        0.151  -2.718  -0.104  0.00  0.00    +0.000 A 
ATOM      6  C   LIG    1        0.222  -4.089  -0.197  0.00  0.00    +0.080 A 
ENDROOT
BRANCH   4   7
ATOM      7  N   LIG    1       -1.156  -0.694   0.009  0.00  0.00    -0.670 N 
ATOM      8  H   LIG    1       -1.865  -0.209  -0.442  0.00  0.00    +0.410 HD
ATOM      9  C   LIG    1       -0.237  -0.024   0.734  0.00  0.00    +0.520 C 
ATOM     10  O   LIG    1        0.592  -0.635   1.375  0.00  0.00    -0.510 OA
BRANCH   9  11
ATOM     11  C   LIG    1       -0.240   1.483   0.746  0.00  0.00    -0.070 C 
ATOM     12  C   LIG    1       -0.040   2.005  -0.678  0.00  0.00    +0.040 C 
ATOM     13  C   LIG    1       -0.043   3.535  -0.665  0.00  0.00    +0.000 C 
ATOM     14  C   LIG    1       -1.381   4.038  -0.120  0.00  0.00    +0.020 C 
ATOM     15  C   LIG    1       -1.581   3.516   1.304  0.00  0.00    +0.000 C 
ATOM     16  C   LIG    1       -0.445   4.020   2.196  0.00  0.00    +0.020 C 
ATOM     17  C   LIG    1        0.893   3.517   1.651  0.00  0.00    -0.010 C 
ATOM     18  C   LIG    1        1.093   4.040   0.227  0.00  0.00    +0.020 C 
ATOM     19  C   LIG    1       -1.578   1.986   1.291  0.00  0.00    +0.040 C 
ATOM     20  C   LIG    1        0.896   1.987   1.639  0.00  0.00    +0.050 C 
ENDBRANCH   9  11
ENDBRANCH   4   7
BRANCH   1  21
ATOM     21  C   LIG    1       -0.878  -6.315  -0.397  0.00  0.00    +0.430 C 
ATOM     22  O   LIG    1       -1.901  -6.971  -0.478  0.00  0.00    -0.470 OA
BRANCH  21  24
ATOM     23  C   LIG    1        0.449  -8.311  -0.501  0.00  0.00    +0.150 C 
ATOM     24  C   LIG    1        0.383  -6.964  -0.404  0.00  0.00    -0.130 C 
BRANCH  23  28
ATOM     25  C   LIG    1        4.220 -10.252  -0.524  0.00  0.00    +0.150 A 
ATOM     26  C   LIG    1        3.054 -11.003  -0.617  0.00  0.00    -0.020 A 
ATOM     27  C   LIG    1        1.827 -10.378  -0.610  0.00  0.00    +0.090 A 
ATOM     28  C   LIG    1        1.756  -8.983  -0.509  0.00  0.00    -0.130 A 
ATOM     29  C   LIG    1        2.933  -8.231  -0.422  0.00  0.00    +0.080 A 
ATOM     30  C   LIG    1        4.154  -8.866  -0.424  0.00  0.00    -0.080 A 
BRANCH  25  32
ATOM     31  C   LIG    1        6.585 -10.041  -0.432  0.00  0.00    +0.240 C 
ATOM     32  O   LIG    1        5.427 -10.873  -0.531  0.00  0.00    -0.310 OA
ENDBRANCH  25  32
ENDBRANCH  23  28
ENDBRANCH  21  24
ENDBRANCH   1  21
TORSDOF 6
