REMARK  Name = ZINCpe000000W6dO.0
REMARK                            x       y       z     vdW  Elec       q    Type
REMARK                         _______ _______ _______ _____ _____    ______ ____
ROOT
ATOM      1  C   LIG    1       -7.696   6.497  -1.551  0.00  0.00    +0.600 C 
ATOM      2  N   LIG    1       -6.487   5.946  -1.324  0.00  0.00    -0.610 N 
ATOM      3  C   LIG    1       -5.587   6.497  -0.299  0.00  0.00    +0.300 C 
ATOM      4  C   LIG    1       -4.212   6.731  -0.933  0.00  0.00    +0.190 C 
ATOM      5  N   LIG    1       -3.748   5.488  -1.563  0.00  0.00    -0.490 N 
ATOM      6  C   LIG    1       -4.639   5.082  -2.659  0.00  0.00    +0.200 C 
ATOM      7  C   LIG    1       -6.031   4.780  -2.096  0.00  0.00    +0.290 C 
ATOM      8  O   LIG    1       -8.088   7.412  -0.854  0.00  0.00    -0.520 OA
ENDROOT
BRANCH   5   9
ATOM      9  C   LIG    1       -2.437   5.614  -2.008  0.00  0.00    +0.140 A 
ATOM     10  C   LIG    1       -1.810   4.541  -2.636  0.00  0.00    -0.020 A 
ATOM     11  C   LIG    1       -0.513   4.662  -3.077  0.00  0.00    +0.110 A 
ATOM     12  C   LIG    1        0.177   5.864  -2.893  0.00  0.00    -0.170 A 
ATOM     13  C   LIG    1       -0.453   6.938  -2.256  0.00  0.00    +0.080 A 
ATOM     14  C   LIG    1       -1.753   6.812  -1.823  0.00  0.00    -0.050 A 
BRANCH  12  15
ATOM     15  C   LIG    1        1.569   5.998  -3.365  0.00  0.00    +0.560 C 
ATOM     16  O   LIG    1        2.117   5.061  -3.914  0.00  0.00    -0.540 OA
ATOM     17  N   LIG    1        2.230   7.159  -3.191  0.00  0.00    -0.850 N 
ATOM     18  H   LIG    1        1.793   7.906  -2.753  0.00  0.00    +0.400 HD
ATOM     19  H   LIG    1        3.144   7.248  -3.505  0.00  0.00    +0.410 HD
ENDBRANCH  12  15
ENDBRANCH   5   9
BRANCH   1  24
ATOM     20  C   LIG    1       -9.291   6.752  -3.656  0.00  0.00    +0.060 A 
ATOM     21  N   LIG    1       -9.879   5.859  -4.395  0.00  0.00    -0.330 NA
ATOM     22  O   LIG    1       -9.637   4.734  -4.034  0.00  0.00    +0.110 OA
ATOM     23  C   LIG    1       -8.825   4.686  -2.975  0.00  0.00    +0.220 A 
ATOM     24  C   LIG    1       -8.543   5.989  -2.645  0.00  0.00    -0.240 A 
BRANCH  20  25
ATOM     25  C   LIG    1       -9.360   8.250  -3.804  0.00  0.00    +0.310 C 
BRANCH  25  27
ATOM     26  C   LIG    1       -8.286  10.107  -4.873  0.00  0.00    +0.220 C 
ATOM     27  O   LIG    1       -8.310   8.693  -4.666  0.00  0.00    -0.390 OA
ENDBRANCH  25  27
ENDBRANCH  20  25
ENDBRANCH   1  24
TORSDOF 5
