REMARK  Name = ZINCpe000000TGVr.0
REMARK                            x       y       z     vdW  Elec       q    Type
REMARK                         _______ _______ _______ _____ _____    ______ ____
ROOT
ATOM      1  C   LIG    1        7.805   5.936   1.641  0.00  0.00    +0.650 C 
ATOM      2  N   LIG    1        6.667   5.220   1.546  0.00  0.00    -0.600 N 
ATOM      3  C   LIG    1        6.712   3.756   1.427  0.00  0.00    +0.300 C 
ATOM      4  C   LIG    1        5.936   3.342   0.170  0.00  0.00    +0.310 C 
ATOM      5  N   LIG    1        4.628   4.012   0.184  0.00  0.00    -0.630 N 
ATOM      6  C   LIG    1        4.583   5.477   0.297  0.00  0.00    +0.260 C 
ATOM      7  C   LIG    1        3.490   3.297   0.089  0.00  0.00    +0.720 C 
ATOM      8  N   LIG    1        2.303   3.928  -0.005  0.00  0.00    -0.670 N 
ATOM      9  H   LIG    1        2.272   4.894  -0.080  0.00  0.00    +0.410 HD
ATOM     10  O   LIG    1        3.534   2.081   0.088  0.00  0.00    -0.560 OA
ATOM     11  C   LIG    1        5.359   5.890   1.560  0.00  0.00    +0.290 C 
ATOM     12  O   LIG    1        8.881   5.371   1.628  0.00  0.00    -0.570 OA
ENDROOT
BRANCH   8  13
ATOM     13  C   LIG    1        1.110   3.186   0.006  0.00  0.00    +0.070 A 
ATOM     14  C   LIG    1       -0.088   3.824   0.050  0.00  0.00    +0.230 A 
ATOM     15  N   LIG    1       -1.249   3.116   0.061  0.00  0.00    -0.480 N 
ATOM     16  C   LIG    1       -1.236   1.771   0.024  0.00  0.00    +0.510 A 
ATOM     17  C   LIG    1       -0.014   1.078  -0.015  0.00  0.00    -0.070 A 
ATOM     18  O   LIG    1       -2.288   1.151   0.029  0.00  0.00    -0.530 OA
ATOM     19  C   LIG    1        1.154   1.781  -0.027  0.00  0.00    +0.130 A 
BRANCH  15  20
ATOM     20  C   LIG    1       -2.530   3.827   0.107  0.00  0.00    +0.320 C 
BRANCH  20  21
ATOM     21  C   LIG    1       -3.009   4.107  -1.319  0.00  0.00    +0.160 C 
BRANCH  21  22
ATOM     22  O   LIG    1       -3.286   2.870  -1.980  0.00  0.00    -0.370 OA
ATOM     23  C   LIG    1       -3.744   3.020  -3.325  0.00  0.00    +0.200 C 
ENDBRANCH  21  22
ENDBRANCH  20  21
ENDBRANCH  15  20
ENDBRANCH   8  13
BRANCH   1  24
ATOM     24  O   LIG    1        7.750   7.277   1.749  0.00  0.00    -0.370 OA
BRANCH  24  26
ATOM     25  C   LIG    1        8.753   9.486   1.963  0.00  0.00    +0.070 C 
ATOM     26  C   LIG    1        9.015   7.983   1.847  0.00  0.00    +0.220 C 
ENDBRANCH  24  26
ENDBRANCH   1  24
TORSDOF 6
