REMARK  Name = ZINCrD000000AAZV.0
REMARK                            x       y       z     vdW  Elec       q    Type
REMARK                         _______ _______ _______ _____ _____    ______ ____
ROOT
ATOM      1  C   LIG    1        4.580   3.412  -4.491  0.00  0.00    +0.320 C 
ATOM      2  C   LIG    1        5.502   2.326  -3.924  0.00  0.00    +0.020 C 
ATOM      3  C   LIG    1        4.687   1.365  -3.055  0.00  0.00    +0.040 C 
ATOM      4  C   LIG    1        4.256   2.079  -1.768  0.00  0.00    +0.110 C 
ATOM      5  C   LIG    1        3.636   3.402  -2.141  0.00  0.00    +0.090 A 
ATOM      6  N   LIG    1        2.857   4.194  -1.385  0.00  0.00    -0.360 N 
ATOM      7  N   LIG    1        2.506   5.313  -2.155  0.00  0.00    -0.300 NA
ATOM      8  C   LIG    1        3.059   5.188  -3.337  0.00  0.00    +0.260 A 
ATOM      9  C   LIG    1        3.774   3.992  -3.356  0.00  0.00    -0.250 A 
ENDROOT
BRANCH   1  12
ATOM     10  O   LIG    1        3.693   5.079  -6.415  0.00  0.00    -0.520 OA
ATOM     11  C   LIG    1        4.844   5.248  -6.071  0.00  0.00    +0.520 C 
ATOM     12  N   LIG    1        5.383   4.466  -5.115  0.00  0.00    -0.730 N 
ATOM     13  H   LIG    1        6.303   4.602  -4.840  0.00  0.00    +0.400 HD
BRANCH  11  14
ATOM     14  C   LIG    1        5.671   6.333  -6.713  0.00  0.00    +0.100 C 
BRANCH  14  15
ATOM     15  C   LIG    1        4.840   7.056  -7.742  0.00  0.00    -0.090 A 
ATOM     16  C   LIG    1        4.906   6.683  -9.070  0.00  0.00    +0.030 A 
ATOM     17  C   LIG    1        4.141   7.343 -10.014  0.00  0.00    +0.000 A 
ATOM     18  C   LIG    1        3.314   8.384  -9.632  0.00  0.00    +0.030 A 
ATOM     19  C   LIG    1        3.248   8.764  -8.305  0.00  0.00    -0.020 A 
ATOM     20  C   LIG    1        4.011   8.100  -7.356  0.00  0.00    +0.120 A 
BRANCH  20  21
ATOM     21  O   LIG    1        3.948   8.472  -6.050  0.00  0.00    -0.490 OA
ATOM     22  H   LIG    1        4.590   9.152  -5.803  0.00  0.00    +0.390 HD
ENDBRANCH  20  21
ENDBRANCH  14  15
ENDBRANCH  11  14
ENDBRANCH   1  12
BRANCH   6  23
ATOM     23  C   LIG    1        2.451   3.937  -0.001  0.00  0.00    +0.370 C 
BRANCH  23  24
ATOM     24  C   LIG    1        1.156   3.165   0.008  0.00  0.00    -0.120 A 
ATOM     25  C   LIG    1        1.175   1.783   0.000  0.00  0.00    +0.020 A 
ATOM     26  C   LIG    1       -0.013   1.076   0.008  0.00  0.00    +0.010 A 
ATOM     27  C   LIG    1       -1.219   1.751   0.017  0.00  0.00    +0.010 A 
ATOM     28  C   LIG    1       -1.238   3.133   0.030  0.00  0.00    +0.010 A 
ATOM     29  C   LIG    1       -0.050   3.840   0.022  0.00  0.00    +0.040 A 
ENDBRANCH  23  24
ENDBRANCH   6  23
TORSDOF 6
