REMARK  Name = ZINCqH00000063fJ.0
REMARK                            x       y       z     vdW  Elec       q    Type
REMARK                         _______ _______ _______ _____ _____    ______ ____
ROOT
ATOM      1  N   LIG    1       -3.173   2.667   5.574  0.00  0.00    -0.630 N 
ATOM      2  H   LIG    1       -3.574   3.208   6.272  0.00  0.00    +0.420 HD
ATOM      3  C   LIG    1       -3.208   1.322   5.660  0.00  0.00    +0.550 C 
ATOM      4  O   LIG    1       -2.706   0.643   4.785  0.00  0.00    -0.430 OA
ENDROOT
BRANCH   3   5
ATOM      5  C   LIG    1       -3.854   0.674   6.816  0.00  0.00    -0.130 A 
ATOM      6  C   LIG    1       -4.427   1.449   7.827  0.00  0.00    +0.070 A 
ATOM      7  C   LIG    1       -5.036   0.837   8.902  0.00  0.00    +0.060 A 
ATOM      8  C   LIG    1       -5.071  -0.544   8.991  0.00  0.00    -0.140 A 
ATOM      9  C   LIG    1       -4.503  -1.323   8.002  0.00  0.00    +0.050 A 
ATOM     10  C   LIG    1       -3.893  -0.725   6.910  0.00  0.00    +0.180 A 
BRANCH   8  11
ATOM     11  C   LIG    1       -5.733  -1.202  10.175  0.00  0.00    +0.510 C 
ATOM     12  F   LIG    1       -6.258  -2.439   9.787  0.00  0.00    -0.170 F 
ATOM     13  F   LIG    1       -6.765  -0.384  10.645  0.00  0.00    -0.170 F 
ATOM     14  F   LIG    1       -4.790  -1.393  11.190  0.00  0.00    -0.170 F 
ENDBRANCH   8  11
BRANCH  10  15
ATOM     15  O   LIG    1       -3.335  -1.488   5.938  0.00  0.00    -0.470 OA
ATOM     16  H   LIG    1       -2.404  -1.702   6.091  0.00  0.00    +0.400 HD
ENDBRANCH  10  15
ENDBRANCH   3   5
BRANCH   1  20
ATOM     17  C   LIG    1       -1.473   3.435   2.550  0.00  0.00    +0.040 A 
ATOM     18  C   LIG    1       -1.607   4.761   2.762  0.00  0.00    -0.140 A 
ATOM     19  S   LIG    1       -2.440   5.014   4.234  0.00  0.00    +0.190 S 
ATOM     20  C   LIG    1       -2.565   3.277   4.486  0.00  0.00    +0.270 A 
ATOM     21  N   LIG    1       -2.006   2.655   3.496  0.00  0.00    -0.420 NA
BRANCH  18  22
ATOM     22  C   LIG    1       -1.101   5.847   1.848  0.00  0.00    +0.050 C 
ATOM     23  C   LIG    1       -1.170   7.288   2.357  0.00  0.00    +0.040 C 
ATOM     24  C   LIG    1       -2.131   6.816   1.264  0.00  0.00    +0.050 C 
ENDBRANCH  18  22
BRANCH  17  25
ATOM     25  C   LIG    1       -0.797   2.889   1.364  0.00  0.00    +0.550 C 
ATOM     26  O   LIG    1       -0.333   3.640   0.528  0.00  0.00    -0.500 OA
BRANCH  25  28
ATOM     27  C   LIG    1       -0.013   1.086   0.008  0.00  0.00    +0.270 C 
ATOM     28  O   LIG    1       -0.692   1.554   1.203  0.00  0.00    -0.330 OA
ENDBRANCH  25  28
ENDBRANCH  17  25
ENDBRANCH   1  20
TORSDOF 7
