REMARK  Name = ZINCvU0000000C7O.0
REMARK                            x       y       z     vdW  Elec       q    Type
REMARK                         _______ _______ _______ _____ _____    ______ ____
ROOT
ATOM      1  C   LIG    1        3.228   0.996  -1.535  0.00  0.00    +0.580 C 
ATOM      2  N   LIG    1        2.244   0.782  -0.639  0.00  0.00    -0.600 N 
ATOM      3  C   LIG    1        1.876   1.687   0.465  0.00  0.00    +0.240 C 
ATOM      4  C   LIG    1        0.397   1.349   0.780  0.00  0.00    +0.040 C 
ATOM      5  C   LIG    1        0.379  -0.189   0.574  0.00  0.00    +0.050 C 
ATOM      6  C   LIG    1        1.360  -0.392  -0.600  0.00  0.00    +0.270 C 
ATOM      7  O   LIG    1        3.502   0.138  -2.352  0.00  0.00    -0.520 OA
ENDROOT
BRANCH   6   8
ATOM      8  C   LIG    1        2.173  -1.642  -0.378  0.00  0.00    -0.080 A 
ATOM      9  C   LIG    1        3.242  -1.623   0.497  0.00  0.00    +0.020 A 
ATOM     10  C   LIG    1        3.990  -2.767   0.702  0.00  0.00    +0.020 A 
ATOM     11  C   LIG    1        3.670  -3.937   0.030  0.00  0.00    +0.050 A 
ATOM     12  O   LIG    1        4.421  -5.053   0.236  0.00  0.00    -0.310 OA
ATOM     13  C   LIG    1        3.845  -6.300  -0.169  0.00  0.00    +0.220 C 
ATOM     14  C   LIG    1        3.252  -6.123  -1.573  0.00  0.00    +0.220 C 
ATOM     15  O   LIG    1        2.256  -5.096  -1.513  0.00  0.00    -0.310 OA
ATOM     16  C   LIG    1        2.593  -3.956  -0.849  0.00  0.00    +0.050 A 
ATOM     17  C   LIG    1        1.844  -2.806  -1.047  0.00  0.00    +0.030 A 
ENDBRANCH   6   8
BRANCH   1  23
ATOM     18  C   LIG    1        4.155   2.988  -2.709  0.00  0.00    -0.030 A 
ATOM     19  C   LIG    1        4.847   4.181  -2.691  0.00  0.00    +0.040 A 
ATOM     20  C   LIG    1        5.370   4.663  -1.504  0.00  0.00    +0.030 A 
ATOM     21  C   LIG    1        5.198   3.956  -0.328  0.00  0.00    +0.020 A 
ATOM     22  C   LIG    1        4.503   2.764  -0.331  0.00  0.00    +0.040 A 
ATOM     23  C   LIG    1        3.973   2.272  -1.524  0.00  0.00    -0.110 A 
BRANCH  18  24
ATOM     24  C   LIG    1        3.591   2.461  -4.003  0.00  0.00    +0.120 C 
BRANCH  24  25
ATOM     25  S   LIG    1        1.960   3.191  -4.293  0.00  0.00    +0.020 S 
BRANCH  25  30
ATOM     26  C   LIG    1       -0.922   2.083  -8.483  0.00  0.00    +0.160 C 
ATOM     27  C   LIG    1        0.304   1.957  -7.617  0.00  0.00    +0.080 A 
ATOM     28  C   LIG    1        1.333   1.171  -7.934  0.00  0.00    -0.080 A 
ATOM     29  S   LIG    1        2.548   1.321  -6.667  0.00  0.00    +0.140 S 
ATOM     30  C   LIG    1        1.549   2.424  -5.825  0.00  0.00    +0.020 A 
ATOM     31  N   LIG    1        0.447   2.617  -6.481  0.00  0.00    -0.450 NA
ENDBRANCH  25  30
ENDBRANCH  24  25
ENDBRANCH  18  24
ENDBRANCH   1  23
TORSDOF 5
