REMARK  Name = ZINCqH0000007qkf.0
REMARK                            x       y       z     vdW  Elec       q    Type
REMARK                         _______ _______ _______ _____ _____    ______ ____
ROOT
ATOM      1  C   LIG    1       -0.353   3.769  -1.103  0.00  0.00    +0.190 C 
ATOM      2  C   LIG    1       -1.122   5.054  -0.708  0.00  0.00    +0.050 C 
ATOM      3  C   LIG    1       -1.237   4.930   0.829  0.00  0.00    +0.010 C 
ATOM      4  C   LIG    1       -0.107   3.968   1.240  0.00  0.00    +0.170 C 
ATOM      5  N   LIG    1        0.620   3.600   0.006  0.00  0.00    -0.490 NA
ENDROOT
BRANCH   1   9
ATOM      6  C   LIG    1        1.680   4.310  -4.827  0.00  0.00    +0.170 A 
ATOM      7  C   LIG    1        2.342   4.545  -3.630  0.00  0.00    -0.120 A 
ATOM      8  C   LIG    1        1.682   4.369  -2.428  0.00  0.00    +0.130 A 
ATOM      9  C   LIG    1        0.363   3.960  -2.415  0.00  0.00    -0.150 A 
ATOM     10  C   LIG    1       -0.302   3.718  -3.610  0.00  0.00    +0.170 A 
ATOM     11  C   LIG    1        0.356   3.899  -4.816  0.00  0.00    -0.110 A 
BRANCH   6  13
ATOM     12  C   LIG    1        3.692   4.907  -5.943  0.00  0.00    +0.250 C 
ATOM     13  O   LIG    1        2.329   4.482  -6.008  0.00  0.00    -0.320 OA
ENDBRANCH   6  13
BRANCH  10  14
ATOM     14  O   LIG    1       -1.598   3.310  -3.596  0.00  0.00    -0.310 OA
ATOM     15  C   LIG    1       -2.219   3.081  -4.862  0.00  0.00    +0.240 C 
ENDBRANCH  10  14
ENDBRANCH   1   9
BRANCH   5  16
ATOM     16  C   LIG    1        1.106   2.215   0.074  0.00  0.00    +0.210 C 
BRANCH  16  17
ATOM     17  C   LIG    1        2.152   2.103   1.153  0.00  0.00    +0.510 C 
ATOM     18  N   LIG    1        2.654   0.896   1.481  0.00  0.00    -0.680 N 
ATOM     19  H   LIG    1        2.290   0.093   1.076  0.00  0.00    +0.410 HD
ATOM     20  O   LIG    1        2.538   3.097   1.729  0.00  0.00    -0.500 OA
BRANCH  18  21
ATOM     21  C   LIG    1        3.700   0.801   2.405  0.00  0.00    +0.150 A 
ATOM     22  C   LIG    1        4.660   1.802   2.475  0.00  0.00    +0.000 A 
ATOM     23  C   LIG    1        5.688   1.709   3.393  0.00  0.00    +0.030 A 
ATOM     24  C   LIG    1        5.769   0.614   4.233  0.00  0.00    -0.020 A 
ATOM     25  C   LIG    1        4.819  -0.388   4.162  0.00  0.00    -0.070 A 
ATOM     26  C   LIG    1        4.910  -1.580   5.080  0.00  0.00    +0.090 C 
ATOM     27  C   LIG    1        3.785  -0.298   3.251  0.00  0.00    -0.030 A 
ENDBRANCH  18  21
ENDBRANCH  16  17
ENDBRANCH   5  16
TORSDOF 6
