REMARK  Name = ZINCrg000000oLAt.0
REMARK                            x       y       z     vdW  Elec       q    Type
REMARK                         _______ _______ _______ _____ _____    ______ ____
ROOT
ATOM      1  N   LIG    1       -5.305   3.123   0.612  0.00  0.00    -0.720 N 
ATOM      2  H   LIG    1       -5.165   2.692   1.469  0.00  0.00    +0.400 HD
ATOM      3  C   LIG    1       -4.296   3.192  -0.280  0.00  0.00    +0.500 C 
ATOM      4  O   LIG    1       -4.471   3.731  -1.352  0.00  0.00    -0.520 OA
ENDROOT
BRANCH   3   5
ATOM      5  C   LIG    1       -2.952   2.600   0.056  0.00  0.00    +0.220 C 
ATOM      6  C   LIG    1       -3.085   1.078   0.277  0.00  0.00    +0.070 C 
ATOM      7  C   LIG    1       -1.788   0.520  -0.366  0.00  0.00    +0.040 C 
ATOM      8  C   LIG    1       -1.596   1.480  -1.566  0.00  0.00    +0.260 C 
ATOM      9  N   LIG    1       -2.023   2.799  -1.066  0.00  0.00    -0.600 N 
ATOM     10  C   LIG    1       -1.627   3.991  -1.556  0.00  0.00    +0.590 C 
ATOM     11  O   LIG    1       -0.825   4.037  -2.467  0.00  0.00    -0.530 OA
BRANCH  10  12
ATOM     12  C   LIG    1       -2.168   5.242  -0.984  0.00  0.00    -0.110 A 
ATOM     13  C   LIG    1       -2.239   5.407   0.400  0.00  0.00    +0.010 A 
ATOM     14  C   LIG    1       -2.740   6.580   0.927  0.00  0.00    +0.010 A 
ATOM     15  C   LIG    1       -3.183   7.585   0.087  0.00  0.00    +0.030 A 
ATOM     16  C   LIG    1       -3.122   7.426  -1.286  0.00  0.00    +0.010 A 
ATOM     17  C   LIG    1       -2.617   6.261  -1.826  0.00  0.00    +0.070 A 
ENDBRANCH  10  12
ENDBRANCH   3   5
BRANCH   1  18
ATOM     18  C   LIG    1       -6.612   3.699   0.285  0.00  0.00    +0.290 C 
BRANCH  18  22
ATOM     19  C   LIG    1       -9.124   1.906   2.130  0.00  0.00    +0.160 C 
ATOM     20  C   LIG    1       -9.924   2.892   1.240  0.00  0.00    +0.020 C 
ATOM     21  C   LIG    1       -8.949   4.089   1.124  0.00  0.00    +0.030 C 
ATOM     22  C   LIG    1       -7.570   3.486   1.458  0.00  0.00    +0.140 C 
ATOM     23  O   LIG    1       -7.762   2.080   1.684  0.00  0.00    -0.340 OA
BRANCH  19  26
ATOM     24  C   LIG    1      -11.282  -1.253   2.001  0.00  0.00    +0.290 C 
ATOM     25  N   LIG    1      -10.837   0.124   2.228  0.00  0.00    -0.620 N 
ATOM     26  C   LIG    1       -9.583   0.489   1.897  0.00  0.00    +0.520 C 
ATOM     27  O   LIG    1       -8.823  -0.321   1.411  0.00  0.00    -0.510 OA
ATOM     28  C   LIG    1      -11.755   1.103   2.814  0.00  0.00    +0.280 C 
ENDBRANCH  19  26
ENDBRANCH  18  22
ENDBRANCH   1  18
TORSDOF 5
