REMARK  Name = ZINCpk00000xI9x8.0
REMARK                            x       y       z     vdW  Elec       q    Type
REMARK                         _______ _______ _______ _____ _____    ______ ____
ROOT
ATOM      1  C   LIG    1       -0.117   1.842   2.465  0.00  0.00    -0.220 A 
ATOM      2  C   LIG    1       -0.718   1.572   1.248  0.00  0.00    +0.140 A 
ATOM      3  N   LIG    1       -2.032   1.820   1.354  0.00  0.00    -0.520 N 
ATOM      4  H   LIG    1       -2.682   1.714   0.642  0.00  0.00    +0.430 HD
ATOM      5  C   LIG    1       -2.313   2.245   2.636  0.00  0.00    -0.100 A 
ATOM      6  C   LIG    1       -0.013   1.086   0.008  0.00  0.00    +0.150 C 
ATOM      7  C   LIG    1       -1.132   2.270   3.346  0.00  0.00    +0.010 A 
ATOM      8  C   LIG    1       -0.959   2.677   4.787  0.00  0.00    +0.140 C 
ENDROOT
BRANCH   1   9
ATOM      9  C   LIG    1        1.316   1.708   2.781  0.00  0.00    +0.550 C 
ATOM     10  O   LIG    1        2.066   2.649   2.612  0.00  0.00    -0.490 OA
BRANCH   9  11
ATOM     11  O   LIG    1        1.794   0.542   3.258  0.00  0.00    -0.350 OA
BRANCH  11  13
ATOM     12  C   LIG    1        3.570  -0.910   4.076  0.00  0.00    +0.070 C 
ATOM     13  C   LIG    1        3.215   0.481   3.548  0.00  0.00    +0.200 C 
ENDBRANCH  11  13
ENDBRANCH   9  11
ENDBRANCH   1   9
BRANCH   5  14
ATOM     14  C   LIG    1       -3.591   2.599   3.133  0.00  0.00    +0.420 C 
ATOM     15  O   LIG    1       -3.714   2.965   4.284  0.00  0.00    -0.420 OA
BRANCH  14  16
ATOM     16  C   LIG    1       -4.797   2.521   2.234  0.00  0.00    +0.240 C 
BRANCH  16  17
ATOM     17  O   LIG    1       -5.978   2.932   2.972  0.00  0.00    -0.320 OA
BRANCH  17  18
ATOM     18  C   LIG    1       -7.150   2.919   2.307  0.00  0.00    +0.520 C 
ATOM     19  O   LIG    1       -7.184   2.574   1.143  0.00  0.00    -0.490 OA
BRANCH  18  20
ATOM     20  C   LIG    1       -8.394   3.325   2.995  0.00  0.00    -0.090 C 
ATOM     21  C   LIG    1       -8.378   3.720   4.338  0.00  0.00    +0.120 C 
ATOM     22  C   LIG    1       -9.562   4.095   4.939  0.00  0.00    +0.260 C 
ATOM     23  N   LIG    1      -10.699   4.076   4.269  0.00  0.00    -0.100 NA
ATOM     24  C   LIG    1      -10.759   3.705   3.004  0.00  0.00    +0.260 C 
ATOM     25  O   LIG    1      -11.891   4.464   4.928  0.00  0.00    -0.520 OA
ATOM     26  C   LIG    1       -9.622   3.319   2.323  0.00  0.00    +0.120 C 
ENDBRANCH  18  20
ENDBRANCH  17  18
ENDBRANCH  16  17
ENDBRANCH  14  16
ENDBRANCH   5  14
TORSDOF 8
