REMARK  Name = ZINCrD000000Atev.0
REMARK                            x       y       z     vdW  Elec       q    Type
REMARK                         _______ _______ _______ _____ _____    ______ ____
ROOT
ATOM      1  C   LIG    1       -1.842   2.315  -6.188  0.00  0.00    +0.260 A 
ATOM      2  N   LIG    1       -2.874   3.010  -5.773  0.00  0.00    -0.480 NA
ATOM      3  C   LIG    1       -3.569   3.477  -6.843  0.00  0.00    +0.070 A 
ATOM      4  C   LIG    1       -4.723   4.254  -6.972  0.00  0.00    +0.090 A 
ATOM      5  C   LIG    1       -5.197   4.572  -8.226  0.00  0.00    -0.040 A 
ATOM      6  C   LIG    1       -4.536   4.127  -9.362  0.00  0.00    +0.050 A 
ATOM      7  C   LIG    1       -3.395   3.359  -9.250  0.00  0.00    +0.040 A 
ATOM      8 CL   LIG    1       -6.630   5.538  -8.386  0.00  0.00    -0.060 Cl
ATOM      9  C   LIG    1       -2.904   3.029  -7.997  0.00  0.00    +0.060 A 
ATOM     10  N   LIG    1       -1.811   2.301  -7.553  0.00  0.00    -0.470 N 
ENDROOT
BRANCH   1  11
ATOM     11  S   LIG    1       -0.667   1.525  -5.140  0.00  0.00    +0.060 S 
BRANCH  11  12
ATOM     12  C   LIG    1       -1.337   1.976  -3.520  0.00  0.00    +0.150 C 
BRANCH  12  14
ATOM     13  O   LIG    1        0.509   0.735  -2.731  0.00  0.00    -0.480 OA
ATOM     14  C   LIG    1       -0.467   1.391  -2.437  0.00  0.00    +0.570 C 
ATOM     15  N   LIG    1       -0.775   1.598  -1.141  0.00  0.00    -0.580 N 
ATOM     16  C   LIG    1       -0.013   1.086   0.008  0.00  0.00    +0.280 C 
ATOM     17  C   LIG    1       -0.788   1.609   1.233  0.00  0.00    +0.290 C 
ATOM     18  N   LIG    1       -1.909   2.361   0.641  0.00  0.00    -0.730 N 
ATOM     19  H   LIG    1       -2.599   2.825   1.139  0.00  0.00    +0.440 HD
ATOM     20  C   LIG    1       -1.823   2.303  -0.695  0.00  0.00    +0.700 C 
ATOM     21  O   LIG    1       -2.623   2.841  -1.435  0.00  0.00    -0.540 OA
ENDBRANCH  12  14
ENDBRANCH  11  12
ENDBRANCH   1  11
BRANCH  10  22
ATOM     22  C   LIG    1       -0.811   1.637  -8.393  0.00  0.00    +0.370 C 
BRANCH  22  23
ATOM     23  C   LIG    1       -1.258   0.228  -8.687  0.00  0.00    -0.120 A 
ATOM     24  C   LIG    1       -0.889  -0.804  -7.844  0.00  0.00    +0.040 A 
ATOM     25  C   LIG    1       -1.303  -2.095  -8.111  0.00  0.00    +0.010 A 
ATOM     26  C   LIG    1       -2.075  -2.357  -9.226  0.00  0.00    +0.020 A 
ATOM     27  C   LIG    1       -2.439  -1.326 -10.072  0.00  0.00    +0.010 A 
ATOM     28  C   LIG    1       -2.030  -0.034  -9.803  0.00  0.00    +0.020 A 
ENDBRANCH  22  23
ENDBRANCH  10  22
TORSDOF 5
