REMARK  Name = ZINCrg00000SjSrM.0
REMARK                            x       y       z     vdW  Elec       q    Type
REMARK                         _______ _______ _______ _____ _____    ______ ____
ROOT
ATOM      1  C   LIG    1       -2.239   5.839   0.885  0.00  0.00    +0.230 C 
ENDROOT
BRANCH   1   2
ATOM      2  C   LIG    1       -1.758   5.359   2.231  0.00  0.00    +0.020 A 
ATOM      3  C   LIG    1       -2.658   5.193   3.267  0.00  0.00    +0.030 A 
ATOM      4  C   LIG    1       -2.216   4.752   4.501  0.00  0.00    +0.070 A 
ATOM      5  C   LIG    1       -0.876   4.477   4.698  0.00  0.00    -0.010 A 
ATOM      6  C   LIG    1        0.022   4.638   3.660  0.00  0.00    +0.120 A 
ATOM      7  C   LIG    1       -0.418   5.084   2.428  0.00  0.00    -0.680 A 
BRANCH   7   8
ATOM      8  S   LIG    1        0.728   5.295   1.106  0.00  0.00    +2.690 S 
ATOM      9  O   LIG    1        0.449   6.564   0.532  0.00  0.00    -0.950 OA
ATOM     10  O   LIG    1        2.004   4.938   1.621  0.00  0.00    -0.950 OA
BRANCH   8  11
ATOM     11  N   LIG    1        0.358   4.167  -0.049  0.00  0.00    -1.000 NA
ATOM     12  C   LIG    1        0.864   2.789   0.049  0.00  0.00    +0.260 C 
ATOM     13  C   LIG    1        1.512   2.416  -1.289  0.00  0.00    +0.220 C 
ATOM     14  O   LIG    1        0.592   2.681  -2.350  0.00  0.00    -0.370 OA
ATOM     15  C   LIG    1        0.230   4.058  -2.480  0.00  0.00    +0.220 C 
ATOM     16  C   LIG    1       -0.485   4.515  -1.204  0.00  0.00    +0.250 C 
ENDBRANCH   8  11
ENDBRANCH   7   8
ENDBRANCH   1   2
BRANCH   1  17
ATOM     17  N   LIG    1       -3.663   6.192   0.972  0.00  0.00    -0.660 NA
ATOM     18  H   LIG    1       -3.810   6.941   1.632  0.00  0.00    +0.360 HD
BRANCH  17  19
ATOM     19  C   LIG    1       -4.199   6.542  -0.350  0.00  0.00    +0.190 C 
BRANCH  19  20
ATOM     20  C   LIG    1       -5.361   7.488  -0.186  0.00  0.00    -0.100 A 
ATOM     21  C   LIG    1       -6.326   7.239   0.771  0.00  0.00    +0.040 A 
ATOM     22  C   LIG    1       -7.389   8.109   0.924  0.00  0.00    +0.010 A 
ATOM     23  C   LIG    1       -7.491   9.224   0.114  0.00  0.00    +0.010 A 
ATOM     24  C   LIG    1       -6.529   9.471  -0.847  0.00  0.00    +0.010 A 
ATOM     25  C   LIG    1       -5.464   8.603  -0.998  0.00  0.00    +0.010 A 
ENDBRANCH  19  20
BRANCH  19  29
ATOM     26  N   LIG    1       -4.744   5.262  -2.396  0.00  0.00    -0.860 N 
ATOM     27  H   LIG    1       -5.044   4.457  -2.846  0.00  0.00    +0.400 HD
ATOM     28  H   LIG    1       -4.502   6.046  -2.913  0.00  0.00    +0.400 HD
ATOM     29  C   LIG    1       -4.665   5.292  -1.051  0.00  0.00    +0.520 C 
ATOM     30  O   LIG    1       -4.969   4.311  -0.404  0.00  0.00    -0.510 OA
ENDBRANCH  19  29
ENDBRANCH  17  19
ENDBRANCH   1  17
TORSDOF 7
