REMARK  Name = ZINCqH0000002au6.0
REMARK                            x       y       z     vdW  Elec       q    Type
REMARK                         _______ _______ _______ _____ _____    ______ ____
ROOT
ATOM      1  N   LIG    1       -2.825   6.800   4.351  0.00  0.00    -0.650 N 
ATOM      2  H   LIG    1       -3.258   7.051   5.182  0.00  0.00    +0.420 HD
ATOM      3  C   LIG    1       -2.445   7.750   3.474  0.00  0.00    +0.540 C 
ATOM      4  O   LIG    1       -1.810   7.444   2.484  0.00  0.00    -0.480 OA
ENDROOT
BRANCH   1   9
ATOM      5  C   LIG    1       -2.156   3.706   2.472  0.00  0.00    +0.180 A 
ATOM      6  C   LIG    1       -2.136   2.774   3.502  0.00  0.00    +0.020 A 
ATOM      7  C   LIG    1       -2.345   3.180   4.807  0.00  0.00    +0.070 A 
ATOM      8  C   LIG    1       -2.574   4.513   5.091  0.00  0.00    -0.080 A 
ATOM      9  C   LIG    1       -2.594   5.450   4.064  0.00  0.00    +0.180 A 
ATOM     10 CL   LIG    1       -2.834   5.018   6.731  0.00  0.00    -0.070 Cl
ATOM     11  C   LIG    1       -2.380   5.046   2.754  0.00  0.00    +0.030 A 
BRANCH   5  13
ATOM     12  C   LIG    1       -1.109   2.268   0.891  0.00  0.00    +0.510 C 
ATOM     13  N   LIG    1       -1.943   3.294   1.151  0.00  0.00    -0.670 N 
ATOM     14  H   LIG    1       -2.396   3.747   0.423  0.00  0.00    +0.420 HD
ATOM     15  O   LIG    1       -0.474   1.760   1.791  0.00  0.00    -0.520 OA
BRANCH  12  17
ATOM     16  C   LIG    1        0.034   0.593  -0.537  0.00  0.00    +0.050 C 
ATOM     17  C   LIG    1       -0.967   1.751  -0.517  0.00  0.00    +0.060 C 
ENDBRANCH  12  17
ENDBRANCH   5  13
ENDBRANCH   1   9
BRANCH   3  18
ATOM     18  C   LIG    1       -2.800   9.164   3.717  0.00  0.00    -0.050 A 
ATOM     19  C   LIG    1       -3.534   9.518   4.851  0.00  0.00    +0.040 A 
ATOM     20  C   LIG    1       -3.858  10.840   5.074  0.00  0.00    +0.070 A 
ATOM     21  C   LIG    1       -3.466  11.813   4.172  0.00  0.00    +0.030 A 
ATOM     22  C   LIG    1       -2.743  11.469   3.043  0.00  0.00    +0.130 A 
ATOM     23  C   LIG    1       -2.409  10.151   2.811  0.00  0.00    -0.610 A 
BRANCH  23  24
ATOM     24  S   LIG    1       -1.488   9.715   1.373  0.00  0.00    +2.510 S 
ATOM     25  O   LIG    1       -1.297  10.947   0.692  0.00  0.00    -0.950 OA
ATOM     26  O   LIG    1       -2.236   8.660   0.784  0.00  0.00    -0.910 OA
BRANCH  24  27
ATOM     27  C   LIG    1        0.090   9.092   2.018  0.00  0.00    -0.330 C 
ATOM     28  C   LIG    1        0.988   8.676   0.852  0.00  0.00    +0.080 C 
ENDBRANCH  24  27
ENDBRANCH  23  24
ENDBRANCH   3  18
TORSDOF 6
