REMARK  Name = ZINCpe000000WAzP.0
REMARK                            x       y       z     vdW  Elec       q    Type
REMARK                         _______ _______ _______ _____ _____    ______ ____
ROOT
ATOM      1  S   LIG    1        5.035   0.411   0.541  0.00  0.00    +2.450 S 
ATOM      2  O   LIG    1        4.932   0.537   1.953  0.00  0.00    -0.910 OA
ATOM      3  O   LIG    1        5.025   1.583  -0.263  0.00  0.00    -0.910 OA
ENDROOT
BRANCH   1   4
ATOM      4  C   LIG    1        3.721  -0.698  -0.038  0.00  0.00    -0.370 C 
ATOM      5  C   LIG    1        3.806  -0.839  -1.559  0.00  0.00    +0.100 C 
BRANCH   4  11
ATOM      6  C   LIG    1        1.278  -0.961   0.467  0.00  0.00    +0.150 A 
ATOM      7  C   LIG    1        0.044  -0.431   0.813  0.00  0.00    -0.070 A 
ATOM      8  C   LIG    1       -0.086   0.927   1.031  0.00  0.00    +0.060 A 
ATOM      9  C   LIG    1        1.011   1.757   0.904  0.00  0.00    -0.010 A 
ATOM     10  C   LIG    1        2.243   1.232   0.558  0.00  0.00    +0.030 A 
ATOM     11  C   LIG    1        2.379  -0.125   0.340  0.00  0.00    -0.100 A 
BRANCH   6  13
ATOM     12  C   LIG    1        0.234  -3.096   0.399  0.00  0.00    +0.240 C 
ATOM     13  O   LIG    1        1.410  -2.296   0.251  0.00  0.00    -0.310 OA
ENDBRANCH   6  13
ENDBRANCH   4  11
ENDBRANCH   1   4
BRANCH   1  14
ATOM     14  C   LIG    1        6.528  -0.543   0.153  0.00  0.00    -0.350 C 
BRANCH  14  15
ATOM     15  C   LIG    1        7.747   0.237   0.573  0.00  0.00    +0.550 C 
ATOM     16  N   LIG    1        8.977  -0.278   0.381  0.00  0.00    -0.600 N 
ATOM     17  C   LIG    1        9.145  -1.604  -0.231  0.00  0.00    +0.270 C 
ATOM     18  C   LIG    1       10.069  -1.461  -1.452  0.00  0.00    +0.270 C 
ATOM     19  N   LIG    1       11.267  -0.711  -1.048  0.00  0.00    -0.620 N 
ATOM     20  C   LIG    1       11.098   0.612  -0.431  0.00  0.00    +0.290 C 
ATOM     21  C   LIG    1       12.497  -1.227  -1.239  0.00  0.00    +0.510 C 
ATOM     22  O   LIG    1       13.478  -0.599  -0.901  0.00  0.00    -0.540 OA
ATOM     23  C   LIG    1       12.654  -2.586  -1.873  0.00  0.00    +0.100 C 
ATOM     24  C   LIG    1       10.174   0.472   0.785  0.00  0.00    +0.290 C 
ATOM     25  O   LIG    1        7.620   1.330   1.083  0.00  0.00    -0.520 OA
ENDBRANCH  14  15
ENDBRANCH   1  14
TORSDOF 5
