REMARK  Name = ZINCrD00000eM3OJ.0
REMARK                            x       y       z     vdW  Elec       q    Type
REMARK                         _______ _______ _______ _____ _____    ______ ____
ROOT
ATOM      1  C   LIG    1       -1.472   3.603   2.529  0.00  0.00    +0.020 C 
ATOM      2  C   LIG    1       -0.738   3.110   1.281  0.00  0.00    +0.010 C 
ATOM      3  C   LIG    1       -0.729   1.579   1.267  0.00  0.00    +0.030 C 
ATOM      4  C   LIG    1       -0.013   1.086   0.008  0.00  0.00    +0.010 C 
ATOM      5  C   LIG    1       -0.752   1.593  -1.232  0.00  0.00    +0.020 C 
ATOM      6  C   LIG    1       -0.762   3.123  -1.229  0.00  0.00    +0.040 C 
ATOM      7  C   LIG    1       -1.449   3.628   0.035  0.00  0.00    +0.130 C 
ATOM      8  N   LIG    1       -1.497   5.096   0.044  0.00  0.00    -0.720 N 
ATOM      9  H   LIG    1       -0.739   5.701   0.040  0.00  0.00    +0.440 HD
ATOM     10  C   LIG    1       -2.800   5.434   0.058  0.00  0.00    +0.700 C 
ATOM     11  N   LIG    1       -3.606   4.365   0.060  0.00  0.00    -0.570 N 
ATOM     12  O   LIG    1       -3.200   6.582   0.068  0.00  0.00    -0.540 OA
ATOM     13  C   LIG    1       -2.903   3.213   0.047  0.00  0.00    +0.540 C 
ATOM     14  O   LIG    1       -3.344   2.084   0.045  0.00  0.00    -0.450 OA
ENDROOT
BRANCH  11  15
ATOM     15  C   LIG    1       -5.069   4.437   0.074  0.00  0.00    +0.480 C 
BRANCH  15  16
ATOM     16  N   LIG    1       -5.571   4.467  -1.306  0.00  0.00    -0.550 NA
ATOM     17  C   LIG    1       -5.479   5.820  -1.870  0.00  0.00    +0.170 C 
ATOM     18  C   LIG    1       -5.872   5.786  -3.348  0.00  0.00    +0.030 C 
ATOM     19  C   LIG    1       -7.302   5.255  -3.479  0.00  0.00    -0.010 C 
ATOM     20  C   LIG    1       -7.382   3.865  -2.841  0.00  0.00    +0.030 C 
ATOM     21  C   LIG    1       -6.945   3.955  -1.377  0.00  0.00    +0.180 C 
BRANCH  19  22
ATOM     22  C   LIG    1       -7.679   5.161  -4.959  0.00  0.00    +0.060 C 
BRANCH  22  23
ATOM     23  C   LIG    1       -7.720   6.544  -5.556  0.00  0.00    -0.080 A 
ATOM     24  C   LIG    1       -8.898   7.267  -5.545  0.00  0.00    +0.000 A 
ATOM     25  C   LIG    1       -8.934   8.538  -6.088  0.00  0.00    +0.000 A 
ATOM     26  C   LIG    1       -7.794   9.082  -6.651  0.00  0.00    -0.010 A 
ATOM     27  C   LIG    1       -6.617   8.356  -6.667  0.00  0.00    +0.000 A 
ATOM     28  C   LIG    1       -6.580   7.087  -6.119  0.00  0.00    +0.000 A 
ENDBRANCH  22  23
ENDBRANCH  19  22
ENDBRANCH  15  16
ENDBRANCH  11  15
TORSDOF 4
