REMARK  Name = ZINCqH0000001OVw.0
REMARK                            x       y       z     vdW  Elec       q    Type
REMARK                         _______ _______ _______ _____ _____    ______ ____
ROOT
ATOM      1  C   LIG    1        2.379   1.402  -0.002  0.00  0.00    -0.100 A 
ATOM      2  C   LIG    1        2.390   0.019  -0.001  0.00  0.00    +0.010 A 
ATOM      3  C   LIG    1        1.199  -0.685   0.008  0.00  0.00    +0.030 A 
ATOM      4  C   LIG    1       -0.005  -0.008   0.017  0.00  0.00    +0.030 A 
ATOM      5  C   LIG    1       -0.019   1.381   0.016  0.00  0.00    +0.170 A 
ATOM      6  C   LIG    1        1.178   2.084   0.006  0.00  0.00    +0.000 A 
ENDROOT
BRANCH   5   7
ATOM      7  N   LIG    1       -1.237   2.069   0.019  0.00  0.00    -0.690 N 
ATOM      8  H   LIG    1       -1.320   2.907   0.501  0.00  0.00    +0.410 HD
ATOM      9  C   LIG    1       -2.296   1.569  -0.648  0.00  0.00    +0.700 C 
ATOM     10  N   LIG    1       -3.441   2.276  -0.723  0.00  0.00    -0.740 N 
ATOM     11  H   LIG    1       -3.503   3.145  -0.297  0.00  0.00    +0.400 HD
ATOM     12  O   LIG    1       -2.218   0.479  -1.182  0.00  0.00    -0.570 OA
BRANCH  10  13
ATOM     13  C   LIG    1       -4.591   1.732  -1.449  0.00  0.00    +0.290 C 
BRANCH  13  14
ATOM     14  C   LIG    1       -5.753   2.726  -1.382  0.00  0.00    +0.030 C 
BRANCH  14  15
ATOM     15  C   LIG    1       -6.955   2.158  -2.139  0.00  0.00    +0.150 C 
ATOM     16  C   LIG    1       -8.168   3.092  -1.973  0.00  0.00    +0.010 C 
ATOM     17  C   LIG    1       -8.544   3.488  -3.422  0.00  0.00    +0.000 C 
ATOM     18  C   LIG    1       -7.891   2.351  -4.249  0.00  0.00    +0.200 C 
ATOM     19  O   LIG    1       -6.658   2.088  -3.544  0.00  0.00    -0.370 OA
ENDBRANCH  14  15
ENDBRANCH  13  14
ENDBRANCH  10  13
ENDBRANCH   5   7
BRANCH   1  20
ATOM     20  C   LIG    1        3.678   2.165  -0.013  0.00  0.00    +0.350 C 
BRANCH  20  25
ATOM     21  C   LIG    1        3.684   3.431  -2.184  0.00  0.00    +0.220 A 
ATOM     22  N   LIG    1        4.266   3.319  -3.347  0.00  0.00    -0.490 NA
ATOM     23  C   LIG    1        5.047   2.228  -3.347  0.00  0.00    +0.140 A 
ATOM     24  C   LIG    1        4.951   1.646  -2.137  0.00  0.00    +0.110 A 
ATOM     25  N   LIG    1        4.089   2.411  -1.397  0.00  0.00    -0.450 N 
BRANCH  21  27
ATOM     26  C   LIG    1        3.417   5.879  -1.896  0.00  0.00    +0.040 C 
ATOM     27  C   LIG    1        2.723   4.521  -1.784  0.00  0.00    +0.070 C 
ATOM     28  C   LIG    1        1.506   4.492  -2.710  0.00  0.00    +0.040 C 
ENDBRANCH  21  27
ENDBRANCH  20  25
ENDBRANCH   1  20
TORSDOF 7
