REMARK  Name = ZINCrD000000Bdaw.0
REMARK                            x       y       z     vdW  Elec       q    Type
REMARK                         _______ _______ _______ _____ _____    ______ ____
ROOT
ATOM      1  O   LIG    1       -3.735   3.472   0.763  0.00  0.00    -0.580 OA
ATOM      2  C   LIG    1       -4.861   3.926   0.685  0.00  0.00    +0.710 C 
ATOM      3  N   LIG    1       -5.832   3.462   1.496  0.00  0.00    -0.630 N 
ATOM      4  C   LIG    1       -5.532   2.486   2.555  0.00  0.00    +0.280 C 
ATOM      5  C   LIG    1       -6.126   3.003   3.871  0.00  0.00    +0.220 C 
ATOM      6  O   LIG    1       -7.506   3.320   3.672  0.00  0.00    -0.370 OA
ATOM      7  C   LIG    1       -7.735   4.363   2.722  0.00  0.00    +0.200 C 
ATOM      8  C   LIG    1       -7.223   3.920   1.351  0.00  0.00    +0.260 C 
ATOM      9  N   LIG    1       -5.137   4.893  -0.213  0.00  0.00    -0.740 N 
ATOM     10  H   LIG    1       -6.049   5.202  -0.326  0.00  0.00    +0.400 HD
ENDROOT
BRANCH   7  11
ATOM     11  C   LIG    1       -9.212   4.654   2.641  0.00  0.00    -0.070 A 
ATOM     12  C   LIG    1      -10.127   3.626   2.772  0.00  0.00    +0.060 A 
ATOM     13  C   LIG    1      -11.481   3.893   2.702  0.00  0.00    +0.050 A 
ATOM     14  C   LIG    1      -11.921   5.188   2.491  0.00  0.00    -0.080 A 
ATOM     15  C   LIG    1      -11.004   6.215   2.354  0.00  0.00    +0.050 A 
ATOM     16 BR   LIG    1      -13.773   5.553   2.389  0.00  0.00    -0.050 Br
ATOM     17  C   LIG    1       -9.650   5.948   2.429  0.00  0.00    +0.030 A 
ENDBRANCH   7  11
BRANCH   9  18
ATOM     18  C   LIG    1       -4.060   5.475  -1.016  0.00  0.00    +0.330 C 
BRANCH  18  19
ATOM     19  C   LIG    1       -4.638   6.542  -1.948  0.00  0.00    +0.130 C 
ATOM     20  C   LIG    1       -3.538   7.068  -2.879  0.00  0.00    +0.240 C 
ATOM     21  O   LIG    1       -4.108   8.071  -3.726  0.00  0.00    -0.300 OA
ATOM     22  C   LIG    1       -4.892   9.007  -3.124  0.00  0.00    +0.050 A 
ATOM     23  C   LIG    1       -5.178  10.188  -3.792  0.00  0.00    +0.030 A 
ATOM     24  C   LIG    1       -5.979  11.144  -3.196  0.00  0.00    +0.020 A 
ATOM     25  C   LIG    1       -6.496  10.926  -1.933  0.00  0.00    +0.020 A 
ATOM     26  C   LIG    1       -6.213   9.752  -1.260  0.00  0.00    +0.020 A 
ATOM     27  C   LIG    1       -5.410   8.789  -1.852  0.00  0.00    +0.050 A 
ATOM     28  O   LIG    1       -5.133   7.641  -1.175  0.00  0.00    -0.300 OA
ENDBRANCH  18  19
ENDBRANCH   9  18
TORSDOF 3
