REMARK  Name = ZINCfA000000bbha.0
REMARK                            x       y       z     vdW  Elec       q    Type
REMARK                         _______ _______ _______ _____ _____    ______ ____
ROOT
ATOM      1  N   LIG    1       -0.012   1.005   0.008  0.00  0.00    -0.510 N 
ATOM      2  H   LIG    1        0.935   1.354   0.000  0.00  0.00    +0.420 HD
ATOM      3  H   LIG    1        0.002  -0.004   0.002  0.00  0.00    +0.440 HD
ENDROOT
BRANCH   1   4
ATOM      4  C   LIG    1       -0.699   1.479   1.216  0.00  0.00    +0.250 C 
ATOM      5  C   LIG    1       -0.611   3.004   1.288  0.00  0.00    +0.090 C 
BRANCH   4   6
ATOM      6  C   LIG    1       -0.044   0.880   2.434  0.00  0.00    -0.150 A 
ATOM      7  C   LIG    1        1.278   0.738   2.541  0.00  0.00    -0.060 A 
ATOM      8  S   LIG    1        1.669   0.009   4.093  0.00  0.00    +0.190 S 
ATOM      9  C   LIG    1       -0.035  -0.073   4.518  0.00  0.00    -0.020 A 
ATOM     10  C   LIG    1       -0.769   0.430   3.524  0.00  0.00    +0.020 A 
ENDBRANCH   4   6
ENDBRANCH   1   4
BRANCH   1  11
ATOM     11  C   LIG    1       -0.722   1.492  -1.183  0.00  0.00    +0.290 C 
BRANCH  11  12
ATOM     12  C   LIG    1       -0.006   0.998  -2.441  0.00  0.00    +0.200 C 
BRANCH  12  13
ATOM     13  O   LIG    1       -0.088  -0.427  -2.508  0.00  0.00    -0.400 OA
BRANCH  13  14
ATOM     14  C   LIG    1        0.553  -0.993  -3.653  0.00  0.00    +0.190 C 
BRANCH  14  16
ATOM     15  C   LIG    1       -1.075  -2.885  -3.761  0.00  0.00    +0.030 C 
ATOM     16  C   LIG    1        0.403  -2.515  -3.621  0.00  0.00    -0.010 C 
ATOM     17  C   LIG    1        1.194  -3.130  -4.778  0.00  0.00    +0.040 C 
ENDBRANCH  14  16
ENDBRANCH  13  14
ENDBRANCH  12  13
ENDBRANCH  11  12
ENDBRANCH   1  11
TORSDOF 7
