REMARK  Name = ZINCah0000003XW3.0
REMARK                            x       y       z     vdW  Elec       q    Type
REMARK                         _______ _______ _______ _____ _____    ______ ____
ROOT
ATOM      1  C   LIG    1       -0.018   1.468   0.010  0.00  0.00    +0.180 C 
ATOM      2  C   LIG    1       -0.229   2.088  -1.383  0.00  0.00    +0.100 C 
ATOM      3  C   LIG    1        1.293   2.072  -1.526  0.00  0.00    -0.110 C 
ATOM      4  C   LIG    1        2.000   0.987  -2.339  0.00  0.00    +0.040 C 
ATOM      5  C   LIG    1        2.107   2.026  -3.470  0.00  0.00    +0.010 C 
ATOM      6  C   LIG    1        2.018   3.111  -2.382  0.00  0.00    +0.040 C 
ATOM      7  C   LIG    1        1.385   2.103   0.000  0.00  0.00    +0.090 C 
ENDROOT
BRANCH   1   8
ATOM      8  N   LIG    1       -0.906   2.020   1.042  0.00  0.00    -0.810 NA
ATOM      9  H   LIG    1       -0.501   1.916   1.961  0.00  0.00    +0.350 HD
ATOM     10  H   LIG    1       -1.819   1.594   0.999  0.00  0.00    +0.350 HD
ENDBRANCH   1   8
BRANCH   1  12
ATOM     11  N   LIG    1        0.018  -1.140  -0.004  0.00  0.00    -0.420 NA
ATOM     12  C   LIG    1        0.002  -0.004   0.002  0.00  0.00    +0.190 C 
ENDBRANCH   1  12
TORSDOF 2
