REMARK  Name = ZINCkj000005m6D7.0
REMARK                            x       y       z     vdW  Elec       q    Type
REMARK                         _______ _______ _______ _____ _____    ______ ____
ROOT
ATOM      1  O   LIG    1        3.594   2.155  -3.298  0.00  0.00    -0.530 OA
ATOM      2  C   LIG    1        4.116   2.219  -2.203  0.00  0.00    +0.580 C 
ATOM      3  N   LIG    1        3.433   1.834  -1.107  0.00  0.00    -0.590 N 
ATOM      4  C   LIG    1        4.054   1.898   0.223  0.00  0.00    +0.290 C 
ATOM      5  C   LIG    1        3.142   2.701   1.155  0.00  0.00    -0.000 C 
ATOM      6  C   LIG    1        1.740   2.087   1.145  0.00  0.00    +0.020 C 
ATOM      7  C   LIG    1        1.163   2.153  -0.271  0.00  0.00    -0.020 C 
ATOM      8  C   LIG    1        2.053   1.343  -1.219  0.00  0.00    +0.280 C 
ENDROOT
BRANCH   7   9
ATOM      9  C   LIG    1       -0.251   1.568  -0.274  0.00  0.00    +0.000 C 
ATOM     10  C   LIG    1       -1.142   2.377   0.674  0.00  0.00    +0.060 C 
ATOM     11  C   LIG    1       -2.573   1.835   0.605  0.00  0.00    +0.250 C 
ATOM     12  N   LIG    1       -3.080   1.953  -0.767  0.00  0.00    -0.510 N 
ATOM     13  C   LIG    1       -2.272   1.123  -1.670  0.00  0.00    +0.250 C 
ATOM     14  H   LIG    1       -4.040   1.644  -0.797  0.00  0.00    +0.430 HD
ATOM     15  H   LIG    1       -3.028   2.916  -1.062  0.00  0.00    +0.430 HD
ATOM     16  C   LIG    1       -0.831   1.637  -1.689  0.00  0.00    +0.060 C 
ENDBRANCH   7   9
BRANCH   2  17
ATOM     17  C   LIG    1        5.504   2.721  -2.072  0.00  0.00    +0.020 A 
ATOM     18  C   LIG    1        6.059   3.519  -3.075  0.00  0.00    +0.090 A 
ATOM     19  C   LIG    1        7.362   3.967  -2.902  0.00  0.00    +0.050 A 
ATOM     20  C   LIG    1        8.035   3.587  -1.752  0.00  0.00    +0.250 A 
ATOM     21  N   LIG    1        7.434   2.824  -0.855  0.00  0.00    -0.240 NA
ATOM     22  N   LIG    1        6.229   2.410  -1.004  0.00  0.00    -0.210 NA
ENDBRANCH   2  17
TORSDOF 2
