REMARK  Name = ZINCrH00000No4xI.0
REMARK                            x       y       z     vdW  Elec       q    Type
REMARK                         _______ _______ _______ _____ _____    ______ ____
ROOT
ATOM      1  N   LIG    1        2.164   1.253  -1.212  0.00  0.00    -0.520 NA
ENDROOT
BRANCH   1   2
ATOM      2  C   LIG    1        2.339  -0.203  -1.296  0.00  0.00    +0.280 C 
BRANCH   2   4
ATOM      3  C   LIG    1        0.391  -0.851  -2.808  0.00  0.00    +0.110 A 
ATOM      4  C   LIG    1        1.014  -0.852  -1.607  0.00  0.00    -0.230 A 
ATOM      5  C   LIG    1        0.210  -1.554  -0.704  0.00  0.00    +0.240 A 
ATOM      6  N   LIG    1       -0.856  -1.966  -1.341  0.00  0.00    -0.300 NA
ATOM      7  N   LIG    1       -0.763  -1.538  -2.672  0.00  0.00    -0.370 N 
BRANCH   3   9
ATOM      8  C   LIG    1        0.386   1.237  -4.146  0.00  0.00    +0.040 C 
ATOM      9  C   LIG    1        0.896  -0.204  -4.072  0.00  0.00    +0.110 C 
ENDBRANCH   3   9
BRANCH   7  10
ATOM     10  C   LIG    1       -1.748  -1.786  -3.728  0.00  0.00    +0.310 C 
ATOM     11  C   LIG    1       -2.771  -0.648  -3.749  0.00  0.00    +0.030 C 
ENDBRANCH   7  10
ENDBRANCH   2   4
ENDBRANCH   1   2
BRANCH   1  12
ATOM     12  C   LIG    1        1.365   1.620  -0.035  0.00  0.00    +0.230 C 
BRANCH  12  13
ATOM     13  C   LIG    1        2.179   1.362   1.234  0.00  0.00    +0.110 C 
ATOM     14  O   LIG    1        2.341  -0.052   1.432  0.00  0.00    -0.360 OA
ATOM     15  C   LIG    1        2.339  -0.278   2.861  0.00  0.00    +0.200 C 
ATOM     16  C   LIG    1        1.238   0.683   3.378  0.00  0.00    +0.000 C 
ATOM     17  C   LIG    1        1.427   1.916   2.460  0.00  0.00    +0.170 C 
ATOM     18  F   LIG    1        2.192   2.895   3.103  0.00  0.00    -0.200 F 
ENDBRANCH  12  13
ENDBRANCH   1  12
BRANCH   1  19
ATOM     19  C   LIG    1        3.462   1.940  -1.202  0.00  0.00    +0.260 C 
BRANCH  19  20
ATOM     20  C   LIG    1        3.247   3.423  -1.363  0.00  0.00    +0.130 A 
ATOM     21  N   LIG    1        3.086   4.178  -0.294  0.00  0.00    -0.440 NA
ATOM     22  C   LIG    1        2.895   5.480  -0.387  0.00  0.00    +0.160 A 
ATOM     23  C   LIG    1        2.859   6.104  -1.621  0.00  0.00    +0.030 A 
ATOM     24  C   LIG    1        3.025   5.344  -2.768  0.00  0.00    +0.060 A 
ATOM     25 CL   LIG    1        2.688   6.422   1.056  0.00  0.00    -0.020 Cl
ATOM     26  C   LIG    1        3.228   3.977  -2.631  0.00  0.00    +0.070 A 
ATOM     27  F   LIG    1        3.400   3.199  -3.722  0.00  0.00    -0.120 F 
ENDBRANCH  19  20
ENDBRANCH   1  19
TORSDOF 8
