REMARK  Name = ZINCkj000005jFiF.0
REMARK                            x       y       z     vdW  Elec       q    Type
REMARK                         _______ _______ _______ _____ _____    ______ ____
ROOT
ATOM      1  N   LIG    1        3.676   0.567   2.410  0.00  0.00    -0.500 N 
ATOM      2  H   LIG    1        2.677   0.702   2.430  0.00  0.00    +0.430 HD
ATOM      3  H   LIG    1        4.139   1.460   2.486  0.00  0.00    +0.430 HD
ENDROOT
BRANCH   1   5
ATOM      4  C   LIG    1        5.583  -0.169   1.061  0.00  0.00    +0.110 C 
ATOM      5  C   LIG    1        4.058  -0.076   1.146  0.00  0.00    +0.170 C 
BRANCH   5   6
ATOM      6  C   LIG    1        3.531   0.753  -0.027  0.00  0.00    +0.370 C 
BRANCH   6   7
ATOM      7  N   LIG    1        2.066   0.743  -0.014  0.00  0.00    -0.420 N 
ATOM      8  C   LIG    1        1.265   1.828  -0.000  0.00  0.00    +0.220 A 
ATOM      9  C   LIG    1       -0.017   1.395   0.010  0.00  0.00    -0.090 A 
ATOM     10  C   LIG    1        0.002  -0.004   0.002  0.00  0.00    +0.260 A 
ATOM     11  N   LIG    1        1.250  -0.396  -0.012  0.00  0.00    -0.300 NA
ENDBRANCH   6   7
ENDBRANCH   5   6
ENDBRANCH   1   5
BRANCH   1  12
ATOM     12  C   LIG    1        4.077  -0.289   3.535  0.00  0.00    +0.300 C 
BRANCH  12  13
ATOM     13  C   LIG    1        3.680   0.380   4.852  0.00  0.00    -0.350 C 
BRANCH  13  14
ATOM     14  S   LIG    1        4.175  -0.676   6.241  0.00  0.00    +2.510 S 
ATOM     15  O   LIG    1        5.590  -0.727   6.350  0.00  0.00    -0.910 OA
ATOM     16  O   LIG    1        3.395  -1.865   6.266  0.00  0.00    -0.910 OA
BRANCH  14  17
ATOM     17  C   LIG    1        3.660   0.211   7.674  0.00  0.00    -0.670 A 
ATOM     18  C   LIG    1        4.522   1.105   8.280  0.00  0.00    +0.120 A 
ATOM     19  C   LIG    1        4.117   1.805   9.401  0.00  0.00    +0.000 A 
ATOM     20  C   LIG    1        2.852   1.602   9.922  0.00  0.00    +0.090 A 
ATOM     21  C   LIG    1        1.992   0.704   9.319  0.00  0.00    +0.000 A 
ATOM     22  C   LIG    1        2.396   0.008   8.195  0.00  0.00    +0.120 A 
ENDBRANCH  14  17
ENDBRANCH  13  14
ENDBRANCH  12  13
ENDBRANCH   1  12
TORSDOF 7
