REMARK  Name = ZINCqH00000070r4.0
REMARK                            x       y       z     vdW  Elec       q    Type
REMARK                         _______ _______ _______ _____ _____    ______ ____
ROOT
ATOM      1  S   LIG    1        2.672   0.823  -0.017  0.00  0.00    +0.090 S 
ENDROOT
BRANCH   1   6
ATOM      2  N   LIG    1        5.348   1.648  -0.020  0.00  0.00    -0.410 N 
ATOM      3  C   LIG    1        6.010   2.847  -0.015  0.00  0.00    +0.400 A 
ATOM      4  N   LIG    1        5.108   3.788   0.003  0.00  0.00    -0.280 NA
ATOM      5  N   LIG    1        3.931   3.272   0.005  0.00  0.00    -0.290 NA
ATOM      6  C   LIG    1        4.017   1.962  -0.012  0.00  0.00    +0.140 A 
BRANCH   2  10
ATOM      7  C   LIG    1        7.040  -2.165  -0.061  0.00  0.00    +0.150 A 
ATOM      8  C   LIG    1        7.461  -1.210  -0.975  0.00  0.00    +0.020 A 
ATOM      9  C   LIG    1        6.902   0.052  -0.961  0.00  0.00    +0.080 A 
ATOM     10  C   LIG    1        5.917   0.365  -0.034  0.00  0.00    +0.060 A 
ATOM     11  C   LIG    1        5.500  -0.589   0.883  0.00  0.00    +0.080 A 
ATOM     12  C   LIG    1        6.056  -1.853   0.866  0.00  0.00    -0.050 A 
BRANCH   7  14
ATOM     13  C   LIG    1        7.110  -4.342   0.894  0.00  0.00    +0.250 C 
ATOM     14  O   LIG    1        7.591  -3.408  -0.075  0.00  0.00    -0.310 OA
ENDBRANCH   7  14
ENDBRANCH   2  10
ENDBRANCH   1   6
BRANCH   1  15
ATOM     15  C   LIG    1        1.280   1.980   0.007  0.00  0.00    +0.110 C 
BRANCH  15  16
ATOM     16  C   LIG    1       -0.014   1.209   0.007  0.00  0.00    +0.540 C 
ATOM     17  N   LIG    1       -1.191   1.867   0.018  0.00  0.00    -0.660 N 
ATOM     18  H   LIG    1       -1.205   2.833   0.098  0.00  0.00    +0.420 HD
ATOM     19  O   LIG    1        0.002  -0.004  -0.008  0.00  0.00    -0.500 OA
BRANCH  17  20
ATOM     20  C   LIG    1       -2.392   1.155  -0.086  0.00  0.00    +0.150 A 
ATOM     21  C   LIG    1       -2.510  -0.099   0.499  0.00  0.00    +0.070 A 
ATOM     22  C   LIG    1       -3.696  -0.800   0.396  0.00  0.00    +0.030 A 
ATOM     23  C   LIG    1       -4.767  -0.254  -0.290  0.00  0.00    +0.100 A 
ATOM     24  C   LIG    1       -4.652   0.998  -0.875  0.00  0.00    -0.060 A 
ATOM     25 CL   LIG    1       -5.996   1.680  -1.735  0.00  0.00    -0.040 Cl
ATOM     26  F   LIG    1       -5.925  -0.941  -0.390  0.00  0.00    -0.120 F 
ATOM     27  C   LIG    1       -3.469   1.704  -0.769  0.00  0.00    +0.040 A 
ENDBRANCH  17  20
ENDBRANCH  15  16
ENDBRANCH   1  15
TORSDOF 6
