REMARK  Name = ZINCpe000000UTaV.0
REMARK                            x       y       z     vdW  Elec       q    Type
REMARK                         _______ _______ _______ _____ _____    ______ ____
ROOT
ATOM      1  N   LIG    1       -1.195  -5.556   1.198  0.00  0.00    -0.640 N 
ATOM      2  H   LIG    1       -1.749  -5.579   1.994  0.00  0.00    +0.410 HD
ATOM      3  C   LIG    1       -0.644  -6.693   0.728  0.00  0.00    +0.490 C 
ATOM      4  O   LIG    1        0.049  -6.664  -0.267  0.00  0.00    -0.500 OA
ENDROOT
BRANCH   1   7
ATOM      5  N   LIG    1       -1.005  -2.212  -0.000  0.00  0.00    -0.360 N 
ATOM      6  C   LIG    1       -1.458  -3.124   0.899  0.00  0.00    +0.200 A 
ATOM      7  C   LIG    1       -0.967  -4.336   0.535  0.00  0.00    +0.000 A 
ATOM      8  C   LIG    1       -0.192  -4.157  -0.621  0.00  0.00    +0.250 A 
ATOM      9  N   LIG    1       -0.221  -2.889  -0.943  0.00  0.00    -0.250 NA
BRANCH   5  10
ATOM     10  C   LIG    1       -1.293  -0.775   0.010  0.00  0.00    +0.370 C 
BRANCH  10  14
ATOM     11  C   LIG    1        1.242   2.093   0.001  0.00  0.00    +0.290 C 
ATOM     12  N   LIG    1       -0.016   1.344   0.009  0.00  0.00    -0.730 N 
ATOM     13  H   LIG    1       -0.863   1.817   0.016  0.00  0.00    +0.400 HD
ATOM     14  C   LIG    1        0.002  -0.004   0.002  0.00  0.00    +0.490 C 
ATOM     15  O   LIG    1        1.060  -0.596  -0.011  0.00  0.00    -0.500 OA
ENDBRANCH  10  14
ENDBRANCH   5  10
ENDBRANCH   1   7
BRANCH   3  16
ATOM     16  C   LIG    1       -0.888  -7.999   1.439  0.00  0.00    +0.370 C 
BRANCH  16  17
ATOM     17  N   LIG    1       -0.186  -9.076   0.736  0.00  0.00    -0.480 N 
ATOM     18  C   LIG    1       -0.716  -9.907  -0.202  0.00  0.00    +0.510 A 
ATOM     19  N   LIG    1        0.188 -10.744  -0.619  0.00  0.00    -0.480 NA
ATOM     20  C   LIG    1        1.359 -10.513   0.029  0.00  0.00    +0.070 A 
ATOM     21  C   LIG    1        2.624 -11.106  -0.027  0.00  0.00    +0.090 A 
ATOM     22  C   LIG    1        3.637 -10.634   0.777  0.00  0.00    +0.060 A 
ATOM     23  C   LIG    1        3.411  -9.571   1.646  0.00  0.00    +0.090 A 
ATOM     24  C   LIG    1        2.168  -8.975   1.712  0.00  0.00    +0.030 A 
ATOM     25  F   LIG    1        4.415  -9.118   2.429  0.00  0.00    -0.120 F 
ATOM     26  F   LIG    1        4.859 -11.207   0.723  0.00  0.00    -0.120 F 
ATOM     27  C   LIG    1        1.136  -9.439   0.907  0.00  0.00    +0.070 A 
ENDBRANCH  16  17
ENDBRANCH   3  16
TORSDOF 5
