REMARK  Name = ZINCrH000004jzwb.0
REMARK                            x       y       z     vdW  Elec       q    Type
REMARK                         _______ _______ _______ _____ _____    ______ ____
ROOT
ATOM      1  C   LIG    1       -0.549  -2.410   0.718  0.00  0.00    +0.300 C 
ATOM      2  N   LIG    1        0.764  -2.942   0.347  0.00  0.00    -0.600 N 
ATOM      3  C   LIG    1        1.637  -2.170  -0.331  0.00  0.00    +0.570 C 
ATOM      4  O   LIG    1        2.702  -2.631  -0.693  0.00  0.00    -0.530 OA
ENDROOT
BRANCH   2   5
ATOM      5  C   LIG    1        1.130  -4.312   0.715  0.00  0.00    +0.230 C 
ATOM      6  C   LIG    1       -0.057  -4.990   1.401  0.00  0.00    +0.050 C 
ATOM      7  C   LIG    1       -1.251  -5.019   0.444  0.00  0.00    +0.030 C 
ATOM      8  C   LIG    1       -0.875  -5.802  -0.816  0.00  0.00    -0.020 C 
ATOM      9  C   LIG    1        0.313  -5.124  -1.502  0.00  0.00    +0.040 C 
ATOM     10  C   LIG    1        1.506  -5.094  -0.545  0.00  0.00    +0.040 C 
BRANCH   8  11
ATOM     11  C   LIG    1       -2.068  -5.832  -1.773  0.00  0.00    +0.450 C 
ATOM     12  F   LIG    1       -3.154  -6.452  -1.146  0.00  0.00    -0.180 F 
ATOM     13  F   LIG    1       -1.724  -6.547  -2.925  0.00  0.00    -0.180 F 
ATOM     14  F   LIG    1       -2.417  -4.523  -2.124  0.00  0.00    -0.180 F 
ENDBRANCH   8  11
ENDBRANCH   2   5
BRANCH   3  15
ATOM     15  C   LIG    1        1.299  -0.763  -0.635  0.00  0.00    -0.120 A 
ATOM     16  C   LIG    1        0.003  -0.423  -1.025  0.00  0.00    +0.040 A 
ATOM     17  C   LIG    1       -0.311   0.891  -1.308  0.00  0.00    +0.030 A 
ATOM     18  C   LIG    1        0.656   1.874  -1.206  0.00  0.00    +0.030 A 
ATOM     19  C   LIG    1        1.949   1.546  -0.818  0.00  0.00    +0.150 A 
ATOM     20  C   LIG    1        2.274   0.229  -0.532  0.00  0.00    +0.080 A 
BRANCH  19  21
ATOM     21  N   LIG    1        2.924   2.545  -0.716  0.00  0.00    -0.580 N 
ATOM     22  C   LIG    1        3.221   3.378  -1.883  0.00  0.00    +0.270 C 
ATOM     23  C   LIG    1        4.682   3.837  -1.814  0.00  0.00    +0.030 C 
ATOM     24  C   LIG    1        4.908   4.546  -0.474  0.00  0.00    +0.270 C 
ATOM     25  N   LIG    1        4.519   3.649   0.615  0.00  0.00    -0.730 N 
ATOM     26  H   LIG    1        4.959   3.729   1.476  0.00  0.00    +0.420 HD
ATOM     27  C   LIG    1        3.563   2.723   0.449  0.00  0.00    +0.710 C 
ATOM     28  O   LIG    1        3.268   2.014   1.392  0.00  0.00    -0.580 OA
ENDBRANCH  19  21
ENDBRANCH   3  15
TORSDOF 4
