REMARK  Name = ZINCrg00000By3ln.0
REMARK                            x       y       z     vdW  Elec       q    Type
REMARK                         _______ _______ _______ _____ _____    ______ ____
ROOT
ATOM      1  C   LIG    1       -3.251   1.248  -1.400  0.00  0.00    +0.250 C 
ATOM      2  C   LIG    1       -3.434   2.742  -1.679  0.00  0.00    +0.020 C 
ATOM      3  C   LIG    1       -2.063   3.400  -1.857  0.00  0.00    +0.190 C 
ATOM      4  C   LIG    1       -1.255   3.245  -0.560  0.00  0.00    +0.280 C 
ATOM      5  N   LIG    1       -1.198   1.819  -0.212  0.00  0.00    -0.600 N 
ATOM      6  C   LIG    1       -0.014   1.213   0.009  0.00  0.00    +0.620 C 
ATOM      7  O   LIG    1        0.031   0.007   0.171  0.00  0.00    -0.530 OA
ATOM      8  F   LIG    1       -1.383   2.782  -2.912  0.00  0.00    -0.200 F 
ATOM      9  C   LIG    1       -2.456   1.068  -0.103  0.00  0.00    +0.280 C 
ENDROOT
BRANCH   6  10
ATOM     10  C   LIG    1        1.220   2.005   0.048  0.00  0.00    -0.100 A 
ATOM     11  C   LIG    1        2.525   1.499   0.135  0.00  0.00    +0.130 A 
ATOM     12  C   LIG    1        3.061   0.206   0.208  0.00  0.00    +0.080 A 
ATOM     13  C   LIG    1        4.413   0.050   0.285  0.00  0.00    +0.090 A 
ATOM     14  C   LIG    1        5.241   1.183   0.291  0.00  0.00    +0.040 A 
ATOM     15  C   LIG    1        4.704   2.421   0.220  0.00  0.00    +0.280 A 
ATOM     16  N   LIG    1        3.355   2.588   0.142  0.00  0.00    -0.270 N 
ATOM     17  N   LIG    1        2.531   3.716   0.060  0.00  0.00    -0.100 NA
ATOM     18  N   LIG    1        1.302   3.341   0.001  0.00  0.00    -0.180 NA
ENDBRANCH   6  10
BRANCH   1  21
ATOM     19  O   LIG    1       -3.742  -1.366  -1.849  0.00  0.00    -0.490 OA
ATOM     20  C   LIG    1       -4.705  -0.705  -1.509  0.00  0.00    +0.590 C 
ATOM     21  N   LIG    1       -4.564   0.612  -1.260  0.00  0.00    -0.720 N 
ATOM     22  H   LIG    1       -5.332   1.139  -0.989  0.00  0.00    +0.400 HD
BRANCH  20  23
ATOM     23  C   LIG    1       -6.022  -1.343  -1.369  0.00  0.00    -0.030 A 
ATOM     24  C   LIG    1       -6.329  -2.675  -1.592  0.00  0.00    -0.080 A 
ATOM     25  C   LIG    1       -7.697  -2.789  -1.326  0.00  0.00    +0.220 A 
ATOM     26  N   LIG    1       -8.139  -1.606  -0.984  0.00  0.00    -0.250 NA
ATOM     27 CL   LIG    1       -5.246  -3.936  -2.093  0.00  0.00    +0.000 Cl
ATOM     28  N   LIG    1       -7.191  -0.739  -0.998  0.00  0.00    -0.370 N 
ATOM     29  H   LIG    1       -7.290   0.201  -0.778  0.00  0.00    +0.450 HD
ENDBRANCH  20  23
ENDBRANCH   1  21
TORSDOF 3
