REMARK  Name = ZINCrg00000By3ln.1
REMARK                            x       y       z     vdW  Elec       q    Type
REMARK                         _______ _______ _______ _____ _____    ______ ____
ROOT
ATOM      1  C   LIG    1        7.119   4.950  -0.914  0.00  0.00    +0.230 C 
ATOM      2  C   LIG    1        8.191   3.861  -0.823  0.00  0.00    +0.020 C 
ATOM      3  C   LIG    1        7.547   2.490  -1.040  0.00  0.00    +0.180 C 
ATOM      4  C   LIG    1        6.507   2.239   0.056  0.00  0.00    +0.290 C 
ATOM      5  N   LIG    1        5.555   3.357   0.070  0.00  0.00    -0.600 N 
ATOM      6  C   LIG    1        4.229   3.131  -0.020  0.00  0.00    +0.620 C 
ATOM      7  O   LIG    1        3.459   4.066  -0.141  0.00  0.00    -0.530 OA
ATOM      8  F   LIG    1        6.922   2.460  -2.292  0.00  0.00    -0.200 F 
ATOM      9  C   LIG    1        6.075   4.727   0.178  0.00  0.00    +0.280 C 
ENDROOT
BRANCH   6  10
ATOM     10  C   LIG    1        3.714   1.758   0.027  0.00  0.00    -0.100 A 
ATOM     11  C   LIG    1        2.383   1.367  -0.182  0.00  0.00    +0.130 A 
ATOM     12  C   LIG    1        1.203   2.062  -0.476  0.00  0.00    +0.080 A 
ATOM     13  C   LIG    1        0.039   1.366  -0.621  0.00  0.00    +0.090 A 
ATOM     14  C   LIG    1        0.045  -0.029  -0.474  0.00  0.00    +0.040 A 
ATOM     15  C   LIG    1        1.195  -0.681  -0.191  0.00  0.00    +0.280 A 
ATOM     16  N   LIG    1        2.362   0.005  -0.044  0.00  0.00    -0.270 N 
ATOM     17  N   LIG    1        3.675  -0.387   0.243  0.00  0.00    -0.100 NA
ATOM     18  N   LIG    1        4.430   0.655   0.276  0.00  0.00    -0.180 NA
ENDBRANCH   6  10
BRANCH   1  21
ATOM     19  O   LIG    1        6.111   7.262  -1.870  0.00  0.00    -0.500 OA
ATOM     20  C   LIG    1        7.156   7.362  -1.256  0.00  0.00    +0.600 C 
ATOM     21  N   LIG    1        7.742   6.264  -0.738  0.00  0.00    -0.710 N 
ATOM     22  H   LIG    1        8.575   6.345  -0.249  0.00  0.00    +0.410 HD
BRANCH  20  23
ATOM     23  C   LIG    1        7.783   8.687  -1.079  0.00  0.00    +0.000 A 
ATOM     24  N   LIG    1        8.908   8.942  -0.440  0.00  0.00    -0.240 NA
ATOM     25  N   LIG    1        9.162  10.201  -0.477  0.00  0.00    -0.370 N 
ATOM     26  H   LIG    1        9.937  10.623  -0.075  0.00  0.00    +0.460 HD
ATOM     27  C   LIG    1        8.189  10.854  -1.161  0.00  0.00    +0.210 A 
ATOM     28  C   LIG    1        7.293   9.922  -1.567  0.00  0.00    -0.100 A 
ATOM     29 CL   LIG    1        5.846  10.188  -2.488  0.00  0.00    -0.000 Cl
ENDBRANCH  20  23
ENDBRANCH   1  21
TORSDOF 3
