REMARK  Name = ZINCrg00000Sjvdd.0
REMARK                            x       y       z     vdW  Elec       q    Type
REMARK                         _______ _______ _______ _____ _____    ______ ____
ROOT
ATOM      1  N   LIG    1       -2.932   1.008   1.661  0.00  0.00    -0.980 NA
ENDROOT
BRANCH   1   2
ATOM      2  C   LIG    1       -3.604   0.635   2.908  0.00  0.00    +0.280 C 
ATOM      3  C   LIG    1       -4.828   1.542   3.127  0.00  0.00    +0.070 C 
ATOM      4  C   LIG    1       -5.286   1.323   4.592  0.00  0.00    -0.300 C 
ATOM      5  S   LIG    1       -3.697   1.293   5.506  0.00  0.00    +2.390 S 
ATOM      6  O   LIG    1       -3.720   0.236   6.455  0.00  0.00    -0.930 OA
ATOM      7  O   LIG    1       -3.366   2.611   5.919  0.00  0.00    -0.930 OA
ATOM      8  C   LIG    1       -2.637   0.819   4.094  0.00  0.00    -0.320 C 
ENDBRANCH   1   2
BRANCH   1   9
ATOM      9  S   LIG    1       -2.631  -0.140   0.506  0.00  0.00    +2.700 S 
ATOM     10  O   LIG    1       -3.573  -1.182   0.722  0.00  0.00    -0.960 OA
ATOM     11  O   LIG    1       -2.509   0.554  -0.727  0.00  0.00    -0.910 OA
BRANCH   9  16
ATOM     12  C   LIG    1        0.320  -2.690   1.487  0.00  0.00    +0.080 A 
ATOM     13  C   LIG    1        1.453  -1.896   1.393  0.00  0.00    +0.030 A 
ATOM     14  C   LIG    1        1.338  -0.570   1.023  0.00  0.00    -0.050 A 
ATOM     15  C   LIG    1        0.089  -0.030   0.758  0.00  0.00    +0.190 A 
ATOM     16  C   LIG    1       -1.044  -0.824   0.852  0.00  0.00    -0.680 A 
ATOM     17  C   LIG    1       -0.929  -2.151   1.216  0.00  0.00    +0.140 A 
BRANCH  12  19
ATOM     18  C   LIG    1        1.751  -4.485   2.110  0.00  0.00    +0.250 C 
ATOM     19  O   LIG    1        0.434  -3.997   1.845  0.00  0.00    -0.310 OA
ENDBRANCH  12  19
BRANCH  15  20
ATOM     20  O   LIG    1       -0.025   1.277   0.400  0.00  0.00    -0.310 OA
ATOM     21  C   LIG    1        1.183   2.036   0.323  0.00  0.00    +0.250 C 
ENDBRANCH  15  20
ENDBRANCH   9  16
ENDBRANCH   1   9
BRANCH   1  22
ATOM     22  C   LIG    1       -2.525   2.397   1.436  0.00  0.00    +0.310 C 
BRANCH  22  23
ATOM     23  C   LIG    1       -3.685   3.174   0.811  0.00  0.00    +0.120 C 
ATOM     24  C   LIG    1       -3.304   4.660   0.667  0.00  0.00    +0.010 C 
ATOM     25  C   LIG    1       -3.440   4.941  -0.850  0.00  0.00    +0.010 C 
ATOM     26  C   LIG    1       -4.378   3.796  -1.309  0.00  0.00    +0.190 C 
ATOM     27  O   LIG    1       -3.954   2.672  -0.509  0.00  0.00    -0.350 OA
ENDBRANCH  22  23
ENDBRANCH   1  22
TORSDOF 7
