REMARK  Name = ZINCvU00000007Vp.0
REMARK                            x       y       z     vdW  Elec       q    Type
REMARK                         _______ _______ _______ _____ _____    ______ ____
ROOT
ATOM      1  C   LIG    1       -2.502   5.636   0.193  0.00  0.00    +0.300 C 
ENDROOT
BRANCH   1   2
ATOM      2  C   LIG    1       -2.254   6.282   1.531  0.00  0.00    -0.120 A 
ATOM      3  C   LIG    1       -2.913   5.819   2.655  0.00  0.00    +0.030 A 
ATOM      4  C   LIG    1       -2.681   6.409   3.884  0.00  0.00    +0.000 A 
ATOM      5  C   LIG    1       -1.799   7.468   3.987  0.00  0.00    +0.010 A 
ATOM      6  C   LIG    1       -1.144   7.934   2.862  0.00  0.00    +0.020 A 
ATOM      7  C   LIG    1       -1.371   7.341   1.635  0.00  0.00    +0.020 A 
ENDBRANCH   1   2
BRANCH   1  10
ATOM      8  N   LIG    1       -3.935   7.478  -0.629  0.00  0.00    -0.660 N 
ATOM      9  H   LIG    1       -3.239   8.098  -0.361  0.00  0.00    +0.410 HD
ATOM     10  C   LIG    1       -3.792   6.160  -0.386  0.00  0.00    +0.520 C 
ATOM     11  O   LIG    1       -4.700   5.395  -0.634  0.00  0.00    -0.510 OA
BRANCH   8  16
ATOM     12  C   LIG    1       -8.605   9.392  -3.221  0.00  0.00    +0.100 C 
ATOM     13  C   LIG    1       -7.364   8.884  -2.532  0.00  0.00    -0.090 A 
ATOM     14  C   LIG    1       -6.857   7.639  -2.855  0.00  0.00    +0.050 A 
ATOM     15  C   LIG    1       -5.718   7.172  -2.229  0.00  0.00    +0.030 A 
ATOM     16  C   LIG    1       -5.087   7.950  -1.268  0.00  0.00    +0.150 A 
ATOM     17  C   LIG    1       -5.598   9.200  -0.945  0.00  0.00    +0.010 A 
ATOM     18  C   LIG    1       -6.735   9.664  -1.578  0.00  0.00    -0.020 A 
ATOM     19 CL   LIG    1       -7.375  11.227  -1.176  0.00  0.00    -0.060 Cl
ENDBRANCH   8  16
ENDBRANCH   1  10
BRANCH   1  20
ATOM     20  N   LIG    1       -2.597   4.184   0.361  0.00  0.00    -0.720 N 
ATOM     21  H   LIG    1       -3.465   3.763   0.466  0.00  0.00    +0.410 HD
BRANCH  20  22
ATOM     22  C   LIG    1       -1.436   3.403   0.372  0.00  0.00    +0.230 A 
ATOM     23  C   LIG    1       -0.194   4.006   0.223  0.00  0.00    -0.060 A 
ATOM     24  C   LIG    1        0.957   3.238   0.232  0.00  0.00    +0.080 A 
ATOM     25  C   LIG    1        0.871   1.867   0.391  0.00  0.00    +0.020 A 
ATOM     26  O   LIG    1        1.996   1.099   0.402  0.00  0.00    -0.300 OA
ATOM     27  C   LIG    1        1.971  -0.064   1.233  0.00  0.00    +0.180 C 
ATOM     28  C   LIG    1        0.680  -0.812   1.018  0.00  0.00    +0.490 C 
ATOM     29  N   LIG    1       -0.444  -0.133   0.700  0.00  0.00    -0.660 N 
ATOM     30  H   LIG    1       -1.285  -0.601   0.583  0.00  0.00    +0.420 HD
ATOM     31  O   LIG    1        0.649  -2.020   1.131  0.00  0.00    -0.500 OA
ATOM     32  C   LIG    1        3.150  -0.971   0.874  0.00  0.00    +0.100 C 
ATOM     33  C   LIG    1       -0.374   1.259   0.541  0.00  0.00    +0.140 A 
ATOM     34  C   LIG    1       -1.527   2.026   0.526  0.00  0.00    -0.060 A 
ENDBRANCH  20  22
ENDBRANCH   1  20
TORSDOF 5
