REMARK  Name = ZINCrH000004sYAU.0
REMARK                            x       y       z     vdW  Elec       q    Type
REMARK                         _______ _______ _______ _____ _____    ______ ____
ROOT
ATOM      1  C   LIG    1       -2.447   1.145   0.023  0.00  0.00    +0.340 C 
ATOM      2  N   LIG    1       -1.183   1.885   0.031  0.00  0.00    -0.520 N 
ATOM      3  C   LIG    1       -0.013   1.215   0.030  0.00  0.00    +0.560 A 
ATOM      4  C   LIG    1        1.206   1.959   0.032  0.00  0.00    -0.230 A 
ATOM      5  C   LIG    1        1.126   3.345   0.039  0.00  0.00    +0.090 A 
ATOM      6  S   LIG    1        2.745   4.028   0.040  0.00  0.00    +0.190 S 
ATOM      7  C   LIG    1        3.496   2.441   0.030  0.00  0.00    -0.200 A 
ATOM      8  C   LIG    1        4.996   2.203   0.024  0.00  0.00    +0.120 C 
ATOM      9  C   LIG    1        5.267   0.753   0.432  0.00  0.00    +0.020 C 
ATOM     10  C   LIG    1        4.387  -0.174  -0.413  0.00  0.00    +0.020 C 
ATOM     11  C   LIG    1        2.929  -0.011   0.021  0.00  0.00    +0.110 C 
ATOM     12  N   LIG    1       -0.082   3.946   0.046  0.00  0.00    -0.510 NA
ATOM     13  C   LIG    1        2.580   1.472   0.027  0.00  0.00    -0.030 A 
ATOM     14  O   LIG    1        0.003  -0.004   0.023  0.00  0.00    -0.510 OA
ATOM     15  C   LIG    1       -1.193   3.250   0.044  0.00  0.00    +0.360 A 
ENDROOT
BRANCH  15  16
ATOM     16  S   LIG    1       -2.738   4.097   0.053  0.00  0.00    +0.100 S 
BRANCH  16  17
ATOM     17  C   LIG    1       -2.157   5.811   0.062  0.00  0.00    +0.120 C 
BRANCH  17  18
ATOM     18  C   LIG    1       -3.341   6.743   0.070  0.00  0.00    +0.530 C 
ATOM     19  N   LIG    1       -3.148   8.077   0.077  0.00  0.00    -0.660 N 
ATOM     20  H   LIG    1       -2.250   8.437   0.145  0.00  0.00    +0.420 HD
ATOM     21  O   LIG    1       -4.467   6.293   0.070  0.00  0.00    -0.500 OA
BRANCH  19  22
ATOM     22  C   LIG    1       -4.244   8.943  -0.013  0.00  0.00    +0.170 A 
ATOM     23  C   LIG    1       -4.126  10.144  -0.699  0.00  0.00    -0.010 A 
ATOM     24  C   LIG    1       -5.211  10.995  -0.792  0.00  0.00    +0.070 A 
ATOM     25  C   LIG    1       -6.410  10.657  -0.192  0.00  0.00    -0.030 A 
ATOM     26  C   LIG    1       -6.529   9.462   0.498  0.00  0.00    +0.120 A 
ATOM     27  F   LIG    1       -7.703   9.134   1.082  0.00  0.00    -0.130 F 
ATOM     28  C   LIG    1       -5.449   8.604   0.589  0.00  0.00    -0.010 A 
ENDBRANCH  19  22
ENDBRANCH  17  18
ENDBRANCH  16  17
ENDBRANCH  15  16
TORSDOF 4
