REMARK  Name = ZINCpe00000gMVaB.0
REMARK                            x       y       z     vdW  Elec       q    Type
REMARK                         _______ _______ _______ _____ _____    ______ ____
ROOT
ATOM      1  C   LIG    1       -6.062   3.186   0.074  0.00  0.00    +0.520 C 
ATOM      2  N   LIG    1       -4.902   3.872   0.066  0.00  0.00    -0.520 N 
ATOM      3  H   LIG    1       -4.912   4.842   0.070  0.00  0.00    +0.440 HD
ATOM      4  O   LIG    1       -6.050   1.974   0.069  0.00  0.00    -0.510 OA
ENDROOT
BRANCH   2   5
ATOM      5  N   LIG    1       -3.682   3.184   0.052  0.00  0.00    -0.520 N 
ATOM      6  H   LIG    1       -3.672   2.214   0.048  0.00  0.00    +0.430 HD
ATOM      7  C   LIG    1       -2.521   3.869   0.044  0.00  0.00    +0.570 C 
ATOM      8  O   LIG    1       -2.534   5.085   0.049  0.00  0.00    -0.530 OA
BRANCH   7   9
ATOM      9  C   LIG    1       -1.234   3.144   0.029  0.00  0.00    -0.130 A 
ATOM     10  C   LIG    1       -1.217   1.748   0.017  0.00  0.00    +0.070 A 
ATOM     11  C   LIG    1       -0.013   1.076   0.008  0.00  0.00    +0.030 A 
ATOM     12  C   LIG    1        1.178   1.783   0.000  0.00  0.00    -0.010 A 
ATOM     13  C   LIG    1        1.167   3.168   0.007  0.00  0.00    +0.030 A 
ATOM     14 CL   LIG    1        2.690   0.931  -0.018  0.00  0.00    -0.050 Cl
ATOM     15  C   LIG    1       -0.030   3.851   0.021  0.00  0.00    +0.110 A 
ENDBRANCH   7   9
ENDBRANCH   2   5
BRANCH   1  16
ATOM     16  C   LIG    1       -7.375   3.926   0.089  0.00  0.00    +0.280 C 
BRANCH  16  17
ATOM     17  O   LIG    1       -8.469   2.972   0.095  0.00  0.00    -0.330 OA
BRANCH  17  18
ATOM     18  C   LIG    1       -9.714   3.472   0.108  0.00  0.00    +0.450 C 
ATOM     19  O   LIG    1       -9.884   4.668   0.115  0.00  0.00    -0.490 OA
BRANCH  18  20
ATOM     20  C   LIG    1      -10.900   2.542   0.116  0.00  0.00    +0.390 C 
BRANCH  20  27
ATOM     21  C   LIG    1      -12.141   3.322   2.637  0.00  0.00    +0.170 C 
ATOM     22  C   LIG    1      -12.728   3.699   1.301  0.00  0.00    +0.100 A 
ATOM     23  C   LIG    1      -13.841   4.412   1.206  0.00  0.00    -0.030 A 
ATOM     24  S   LIG    1      -14.134   4.594  -0.532  0.00  0.00    +0.030 S 
ATOM     25  C   LIG    1      -12.737   3.707  -1.009  0.00  0.00    +0.480 A 
ATOM     26  O   LIG    1      -12.369   3.471  -2.146  0.00  0.00    -0.470 OA
ATOM     27  N   LIG    1      -12.136   3.328   0.130  0.00  0.00    -0.520 N 
ENDBRANCH  20  27
ENDBRANCH  18  20
ENDBRANCH  17  18
ENDBRANCH  16  17
ENDBRANCH   1  16
TORSDOF 7
