REMARK  Name = ZINCrH000004rv52.0
REMARK                            x       y       z     vdW  Elec       q    Type
REMARK                         _______ _______ _______ _____ _____    ______ ____
ROOT
ATOM      1  C   LIG    1       -3.121   3.064   4.907  0.00  0.00    +0.100 C 
ATOM      2  C   LIG    1       -2.343   2.644   3.687  0.00  0.00    -0.060 A 
ATOM      3  C   LIG    1       -1.422   3.505   3.124  0.00  0.00    +0.020 A 
ATOM      4  C   LIG    1       -0.705   3.118   2.006  0.00  0.00    +0.110 A 
ATOM      5  C   LIG    1       -0.915   1.873   1.443  0.00  0.00    -0.670 A 
ATOM      6  C   LIG    1       -1.835   1.007   2.002  0.00  0.00    +0.140 A 
ATOM      7  C   LIG    1       -2.553   1.390   3.127  0.00  0.00    +0.120 A 
ENDROOT
BRANCH   7   8
ATOM      8  N   LIG    1       -3.485   0.515   3.695  0.00  0.00    -0.670 N 
ATOM      9  H   LIG    1       -3.613   0.500   4.657  0.00  0.00    +0.410 HD
ATOM     10  C   LIG    1       -4.206  -0.306   2.907  0.00  0.00    +0.510 C 
ATOM     11  O   LIG    1       -3.990  -0.346   1.714  0.00  0.00    -0.510 OA
BRANCH  10  12
ATOM     12  C   LIG    1       -5.281  -1.175   3.508  0.00  0.00    +0.070 C 
BRANCH  12  13
ATOM     13  C   LIG    1       -5.942  -2.005   2.405  0.00  0.00    +0.090 C 
BRANCH  13  14
ATOM     14  C   LIG    1       -7.016  -2.874   3.005  0.00  0.00    -0.090 A 
ATOM     15  C   LIG    1       -6.708  -4.146   3.450  0.00  0.00    +0.000 A 
ATOM     16  C   LIG    1       -7.693  -4.941   4.006  0.00  0.00    +0.000 A 
ATOM     17  C   LIG    1       -8.988  -4.468   4.107  0.00  0.00    +0.000 A 
ATOM     18  C   LIG    1       -9.297  -3.198   3.657  0.00  0.00    +0.000 A 
ATOM     19  C   LIG    1       -8.312  -2.401   3.106  0.00  0.00    +0.000 A 
ENDBRANCH  13  14
ENDBRANCH  12  13
ENDBRANCH  10  12
ENDBRANCH   7   8
BRANCH   5  20
ATOM     20  S   LIG    1       -0.003   1.387   0.016  0.00  0.00    +2.690 S 
ATOM     21  O   LIG    1        1.182   2.171   0.011  0.00  0.00    -0.950 OA
ATOM     22  O   LIG    1        0.006  -0.034   0.010  0.00  0.00    -0.950 OA
BRANCH  20  23
ATOM     23  N   LIG    1       -0.879   1.854  -1.308  0.00  0.00    -0.990 NA
ATOM     24  C   LIG    1       -1.866   0.948  -1.911  0.00  0.00    +0.290 C 
ATOM     25  C   LIG    1       -3.213   1.681  -2.001  0.00  0.00    +0.010 C 
ATOM     26  C   LIG    1       -3.021   2.996  -2.761  0.00  0.00    +0.010 C 
ATOM     27  C   LIG    1       -2.037   3.888  -2.001  0.00  0.00    +0.010 C 
ATOM     28  C   LIG    1       -0.681   3.181  -1.907  0.00  0.00    +0.290 C 
ENDBRANCH  20  23
ENDBRANCH   5  20
TORSDOF 6
