REMARK  Name = ZINCpk00000e9aLV.0
REMARK                            x       y       z     vdW  Elec       q    Type
REMARK                         _______ _______ _______ _____ _____    ______ ____
ROOT
ATOM      1  C   LIG    1        2.971  -2.355  -0.039  0.00  0.00    +0.290 C 
ENDROOT
BRANCH   1   2
ATOM      2  C   LIG    1        1.571  -1.798  -0.023  0.00  0.00    +0.470 C 
ATOM      3  O   LIG    1        0.623  -2.547  -0.018  0.00  0.00    -0.470 OA
BRANCH   2   4
ATOM      4  O   LIG    1        1.377  -0.469  -0.014  0.00  0.00    -0.340 OA
BRANCH   4   5
ATOM      5  C   LIG    1        0.002  -0.004   0.002  0.00  0.00    +0.300 C 
BRANCH   5   6
ATOM      6  C   LIG    1       -0.018   1.503   0.010  0.00  0.00    +0.530 C 
ATOM      7  N   LIG    1       -1.195   2.161   0.019  0.00  0.00    -0.580 N 
ATOM      8  C   LIG    1       -1.326   3.622   0.034  0.00  0.00    +0.280 C 
ATOM      9  C   LIG    1       -2.783   3.908  -0.400  0.00  0.00    +0.060 C 
ATOM     10  C   LIG    1       -3.497   2.603   0.023  0.00  0.00    +0.090 C 
ATOM     11  C   LIG    1       -2.398   1.562   0.022  0.00  0.00    +0.520 C 
ATOM     12  O   LIG    1       -2.578   0.363   0.025  0.00  0.00    -0.480 OA
ATOM     13  O   LIG    1        1.023   2.123   0.004  0.00  0.00    -0.470 OA
ENDBRANCH   5   6
ENDBRANCH   4   5
ENDBRANCH   2   4
ENDBRANCH   1   2
BRANCH   1  14
ATOM     14  O   LIG    1        2.916  -3.783  -0.046  0.00  0.00    -0.290 OA
BRANCH  14  22
ATOM     15  C   LIG    1        3.382  -8.141  -2.018  0.00  0.00    +0.050 C 
ATOM     16  C   LIG    1        3.552  -8.011  -0.503  0.00  0.00    +0.100 C 
ATOM     17  C   LIG    1        5.051  -7.986  -0.119  0.00  0.00    +0.100 C 
ATOM     18  C   LIG    1        5.343  -6.498  -0.092  0.00  0.00    -0.140 A 
ATOM     19  C   LIG    1        6.524  -5.787  -0.096  0.00  0.00    +0.030 A 
ATOM     20  C   LIG    1        6.501  -4.404  -0.085  0.00  0.00    +0.020 A 
ATOM     21  C   LIG    1        5.291  -3.737  -0.074  0.00  0.00    -0.040 A 
ATOM     22  C   LIG    1        4.103  -4.446  -0.061  0.00  0.00    +0.110 A 
ATOM     23  C   LIG    1        4.120  -5.843  -0.069  0.00  0.00    +0.090 A 
ATOM     24  C   LIG    1        2.826  -9.146   0.222  0.00  0.00    +0.080 C 
ATOM     25  O   LIG    1        3.086  -6.730  -0.046  0.00  0.00    -0.290 OA
ENDBRANCH  14  22
ENDBRANCH   1  14
TORSDOF 6
