REMARK  Name = ZINCrD00000F5LAJ.0
REMARK                            x       y       z     vdW  Elec       q    Type
REMARK                         _______ _______ _______ _____ _____    ______ ____
ROOT
ATOM      1  N   LIG    1        2.130   1.576  -3.968  0.00  0.00    -0.990 NA
ENDROOT
BRANCH   1   2
ATOM      2  S   LIG    1        1.840   0.277  -4.955  0.00  0.00    +2.670 S 
ATOM      3  O   LIG    1        1.266  -0.730  -4.133  0.00  0.00    -0.950 OA
ATOM      4  O   LIG    1        3.023   0.079  -5.715  0.00  0.00    -0.940 OA
BRANCH   2   6
ATOM      5  C   LIG    1       -0.535   0.089  -6.160  0.00  0.00    +0.240 C 
ATOM      6  C   LIG    1        0.589   0.760  -6.098  0.00  0.00    -0.590 C 
ENDBRANCH   2   6
ENDBRANCH   1   2
BRANCH   1   7
ATOM      7  C   LIG    1        3.046   2.634  -4.401  0.00  0.00    +0.390 C 
BRANCH   7   8
ATOM      8  C   LIG    1        4.421   2.365  -3.846  0.00  0.00    +0.060 A 
ATOM      9  C   LIG    1        4.926   1.153  -3.516  0.00  0.00    -0.090 A 
ATOM     10  C   LIG    1        6.228   1.344  -3.044  0.00  0.00    +0.110 A 
ATOM     11  N   LIG    1        6.494   2.624  -3.081  0.00  0.00    -0.280 NA
ATOM     12  N   LIG    1        5.368   3.290  -3.584  0.00  0.00    -0.360 N 
BRANCH  10  13
ATOM     13  C   LIG    1        7.163   0.261  -2.569  0.00  0.00    +0.040 C 
ATOM     14  C   LIG    1        6.555  -1.105  -2.245  0.00  0.00    +0.040 C 
ATOM     15  C   LIG    1        7.036  -0.193  -1.113  0.00  0.00    +0.030 C 
ENDBRANCH  10  13
BRANCH  12  16
ATOM     16  C   LIG    1        5.242   4.735  -3.789  0.00  0.00    +0.320 C 
ATOM     17  C   LIG    1        4.808   5.399  -2.481  0.00  0.00    +0.040 C 
ENDBRANCH  12  16
ENDBRANCH   7   8
ENDBRANCH   1   7
BRANCH   1  18
ATOM     18  C   LIG    1        1.470   1.666  -2.663  0.00  0.00    +0.310 C 
BRANCH  18  19
ATOM     19  C   LIG    1        2.401   1.115  -1.582  0.00  0.00    -0.010 C 
BRANCH  19  20
ATOM     20  C   LIG    1        1.666   1.091  -0.240  0.00  0.00    +0.210 C 
BRANCH  20  21
ATOM     21  C   LIG    1        2.629   0.640   0.861  0.00  0.00    -0.040 C 
ATOM     22  C   LIG    1        3.052  -0.809   0.606  0.00  0.00    +0.010 C 
ATOM     23  C   LIG    1        4.014  -1.260   1.707  0.00  0.00    +0.000 C 
ATOM     24  C   LIG    1        3.317  -1.163   3.065  0.00  0.00    +0.000 C 
ATOM     25  C   LIG    1        2.894   0.285   3.320  0.00  0.00    +0.000 C 
ATOM     26  C   LIG    1        1.931   0.736   2.219  0.00  0.00    +0.020 C 
ENDBRANCH  20  21
BRANCH  20  27
ATOM     27  O   LIG    1        0.568   0.179  -0.315  0.00  0.00    -0.560 OA
ATOM     28  H   LIG    1        0.826  -0.731  -0.517  0.00  0.00    +0.380 HD
ENDBRANCH  20  27
ENDBRANCH  19  20
ENDBRANCH  18  19
ENDBRANCH   1  18
TORSDOF 11
