REMARK  Name = ZINCqH0000003pGO.0
REMARK                            x       y       z     vdW  Elec       q    Type
REMARK                         _______ _______ _______ _____ _____    ______ ____
ROOT
ATOM      1  C   LIG    1        3.091  -6.975  -0.065  0.00  0.00    -0.190 A 
ATOM      2  C   LIG    1        3.669  -5.735  -0.064  0.00  0.00    +0.050 A 
ATOM      3  S   LIG    1        5.367  -5.862  -0.088  0.00  0.00    +0.310 S 
ATOM      4  C   LIG    1        5.320  -7.617  -0.090  0.00  0.00    -0.240 A 
ATOM      5  C   LIG    1        6.540  -8.517  -0.106  0.00  0.00    +0.120 C 
ATOM      6  C   LIG    1        6.116  -9.929   0.306  0.00  0.00    +0.020 C 
ATOM      7  C   LIG    1        4.900 -10.348  -0.525  0.00  0.00    +0.020 C 
ATOM      8  C   LIG    1        3.683  -9.533  -0.083  0.00  0.00    +0.090 C 
ATOM      9  C   LIG    1        4.057  -8.059  -0.080  0.00  0.00    -0.040 A 
ENDROOT
BRANCH   2  10
ATOM     10  N   LIG    1        2.969  -4.540  -0.051  0.00  0.00    -0.620 N 
ATOM     11  H   LIG    1        1.999  -4.546  -0.041  0.00  0.00    +0.430 HD
ATOM     12  C   LIG    1        3.635  -3.368  -0.051  0.00  0.00    +0.600 C 
ATOM     13  O   LIG    1        4.851  -3.360  -0.062  0.00  0.00    -0.500 OA
BRANCH  12  14
ATOM     14  C   LIG    1        2.889  -2.095  -0.037  0.00  0.00    -0.000 A 
ATOM     15  C   LIG    1        3.439  -0.845  -0.035  0.00  0.00    +0.200 A 
ATOM     16  N   LIG    1        2.408   0.045  -0.021  0.00  0.00    -0.360 N 
ATOM     17  C   LIG    1        2.372   1.412  -0.013  0.00  0.00    +0.220 A 
ATOM     18  C   LIG    1        1.195   2.068   0.002  0.00  0.00    +0.030 A 
ATOM     19  C   LIG    1       -0.016   1.355   0.009  0.00  0.00    +0.060 A 
ATOM     20  C   LIG    1        0.002  -0.004   0.002  0.00  0.00    +0.080 A 
ATOM     21  C   LIG    1        1.242  -0.679  -0.013  0.00  0.00    +0.240 A 
ATOM     22  N   LIG    1        1.550  -1.965  -0.023  0.00  0.00    -0.470 NA
ENDBRANCH  12  14
ENDBRANCH   2  10
BRANCH   1  23
ATOM     23  C   LIG    1        1.643  -7.188  -0.052  0.00  0.00    +0.540 C 
ATOM     24  O   LIG    1        1.031  -7.271  -1.101  0.00  0.00    -0.490 OA
BRANCH  23  25
ATOM     25  O   LIG    1        0.987  -7.291   1.121  0.00  0.00    -0.350 OA
BRANCH  25  27
ATOM     26  C   LIG    1       -1.014  -7.594   2.477  0.00  0.00    +0.070 C 
ATOM     27  C   LIG    1       -0.449  -7.502   1.058  0.00  0.00    +0.200 C 
ENDBRANCH  25  27
ENDBRANCH  23  25
ENDBRANCH   1  23
TORSDOF 5
