REMARK  Name = ZINCrH00000tj1qv.0
REMARK                            x       y       z     vdW  Elec       q    Type
REMARK                         _______ _______ _______ _____ _____    ______ ____
ROOT
ATOM      1  C   LIG    1       -1.202  -0.910   0.009  0.00  0.00    +0.090 C 
ATOM      2  C   LIG    1       -2.060  -0.632  -1.229  0.00  0.00    +0.040 C 
ATOM      3  C   LIG    1       -2.577   0.809  -1.167  0.00  0.00    +0.230 C 
ATOM      4  O   LIG    1       -3.318   0.997   0.041  0.00  0.00    -0.370 OA
ATOM      5  C   LIG    1       -2.553   0.796   1.232  0.00  0.00    +0.230 C 
ATOM      6  C   LIG    1       -2.036  -0.645   1.266  0.00  0.00    +0.030 C 
ENDROOT
BRANCH   1   7
ATOM      7  C   LIG    1       -0.751  -2.348  -0.003  0.00  0.00    -0.080 A 
ATOM      8  C   LIG    1       -1.101  -3.189   1.037  0.00  0.00    +0.060 A 
ATOM      9  C   LIG    1       -0.694  -4.511   1.028  0.00  0.00    +0.040 A 
ATOM     10  C   LIG    1        0.076  -4.992  -0.018  0.00  0.00    +0.040 A 
ATOM     11  O   LIG    1        0.602  -6.228  -0.261  0.00  0.00    -0.310 OA
ATOM     12  C   LIG    1        1.624  -6.022  -1.254  0.00  0.00    +0.440 C 
ATOM     13  O   LIG    1        1.184  -4.847  -1.960  0.00  0.00    -0.310 OA
ATOM     14  C   LIG    1        0.433  -4.143  -1.063  0.00  0.00    +0.040 A 
ATOM     15  C   LIG    1        0.017  -2.822  -1.050  0.00  0.00    +0.050 A 
ENDBRANCH   1   7
BRANCH   1  19
ATOM     16  C   LIG    1        2.027   0.734  -0.013  0.00  0.00    +0.210 A 
ATOM     17  N   LIG    1        1.191   1.746   0.000  0.00  0.00    -0.270 NA
ATOM     18  N   LIG    1       -0.016   1.299   0.009  0.00  0.00    -0.270 NA
ATOM     19  C   LIG    1        0.002  -0.004   0.002  0.00  0.00    +0.180 A 
ATOM     20  O   LIG    1        1.289  -0.394  -0.012  0.00  0.00    -0.200 OA
BRANCH  16  27
ATOM     21  F   LIG    1        3.667  -1.560  -0.029  0.00  0.00    -0.120 F 
ATOM     22  C   LIG    1        4.271  -0.352  -0.034  0.00  0.00    +0.130 A 
ATOM     23  C   LIG    1        5.650  -0.266  -0.053  0.00  0.00    -0.010 A 
ATOM     24  C   LIG    1        6.269   0.971  -0.052  0.00  0.00    +0.080 A 
ATOM     25  C   LIG    1        5.513   2.130  -0.038  0.00  0.00    +0.010 A 
ATOM     26  C   LIG    1        4.136   2.060  -0.026  0.00  0.00    +0.110 A 
ATOM     27  C   LIG    1        3.502   0.816  -0.027  0.00  0.00    -0.060 A 
ENDBRANCH  16  27
ENDBRANCH   1  19
TORSDOF 3
