REMARK  Name = ZINCqH0000034n6Z.0
REMARK                            x       y       z     vdW  Elec       q    Type
REMARK                         _______ _______ _______ _____ _____    ______ ____
ROOT
ATOM      1  C   LIG    1        4.603  -0.372   1.652  0.00  0.00    +0.530 C 
ATOM      2  N   LIG    1        3.280  -0.214   1.854  0.00  0.00    -0.710 N 
ATOM      3  H   LIG    1        2.922  -0.226   2.756  0.00  0.00    +0.410 HD
ATOM      4  O   LIG    1        5.051  -0.357   0.525  0.00  0.00    -0.520 OA
ENDROOT
BRANCH   2   5
ATOM      5  C   LIG    1        2.382  -0.023   0.712  0.00  0.00    +0.290 C 
ATOM      6  C   LIG    1        0.972  -0.481   1.091  0.00  0.00    +0.020 C 
ATOM      7  C   LIG    1        0.002  -0.004   0.002  0.00  0.00    +0.260 C 
ATOM      8  O   LIG    1       -0.017   1.424   0.010  0.00  0.00    -0.310 OA
ATOM      9  C   LIG    1        1.175   2.075   0.002  0.00  0.00    +0.140 A 
ATOM     10  C   LIG    1        1.194   3.421  -0.348  0.00  0.00    -0.020 A 
ATOM     11  C   LIG    1        2.385   4.118  -0.364  0.00  0.00    +0.050 A 
ATOM     12  C   LIG    1        3.564   3.478  -0.031  0.00  0.00    -0.040 A 
ATOM     13  C   LIG    1        3.549   2.141   0.316  0.00  0.00    +0.060 A 
ATOM     14  C   LIG    1        2.357   1.436   0.332  0.00  0.00    -0.180 A 
ENDBRANCH   2   5
BRANCH   1  15
ATOM     15  C   LIG    1        5.526  -0.569   2.827  0.00  0.00    +0.110 C 
BRANCH  15  16
ATOM     16  S   LIG    1        7.227  -0.751   2.234  0.00  0.00    +0.080 S 
BRANCH  16  25
ATOM     17  N   LIG    1        9.411  -1.149   3.910  0.00  0.00    -0.470 N 
ATOM     18  C   LIG    1        9.671  -1.266   5.266  0.00  0.00    +0.060 A 
ATOM     19  C   LIG    1       10.823  -1.464   6.010  0.00  0.00    +0.010 A 
ATOM     20  C   LIG    1       10.747  -1.544   7.386  0.00  0.00    +0.030 A 
ATOM     21  C   LIG    1        9.524  -1.428   8.029  0.00  0.00    +0.000 A 
ATOM     22  C   LIG    1        8.369  -1.231   7.306  0.00  0.00    +0.060 A 
ATOM     23  C   LIG    1        8.429  -1.147   5.912  0.00  0.00    +0.060 A 
ATOM     24  N   LIG    1        7.491  -0.962   4.947  0.00  0.00    -0.500 NA
ATOM     25  C   LIG    1        8.066  -0.960   3.769  0.00  0.00    +0.250 A 
BRANCH  17  27
ATOM     26  C   LIG    1       10.932   0.192   2.542  0.00  0.00    +0.040 C 
ATOM     27  C   LIG    1       10.397  -1.213   2.828  0.00  0.00    +0.300 C 
ENDBRANCH  17  27
ENDBRANCH  16  25
ENDBRANCH  15  16
ENDBRANCH   1  15
TORSDOF 5
