REMARK  Name = ZINCvU0000000Eki.0
REMARK                            x       y       z     vdW  Elec       q    Type
REMARK                         _______ _______ _______ _____ _____    ______ ____
ROOT
ATOM      1  C   LIG    1        2.331  -4.833   0.060  0.00  0.00    +0.020 C 
ATOM      2  C   LIG    1        1.405  -4.731   1.273  0.00  0.00    +0.090 C 
ENDROOT
BRANCH   1   5
ATOM      3  N   LIG    1        2.090  -7.167  -0.723  0.00  0.00    -0.660 N 
ATOM      4  H   LIG    1        1.203  -6.937  -1.042  0.00  0.00    +0.410 HD
ATOM      5  C   LIG    1        2.831  -6.249  -0.072  0.00  0.00    +0.540 C 
ATOM      6  O   LIG    1        3.901  -6.561   0.406  0.00  0.00    -0.500 OA
BRANCH   3  10
ATOM      7  C   LIG    1        3.608 -10.997  -1.367  0.00  0.00    +0.130 A 
ATOM      8  C   LIG    1        2.248 -10.816  -1.155  0.00  0.00    +0.010 A 
ATOM      9  C   LIG    1        1.745  -9.548  -0.941  0.00  0.00    +0.010 A 
ATOM     10  C   LIG    1        2.600  -8.454  -0.939  0.00  0.00    +0.130 A 
ATOM     11  C   LIG    1        3.959  -8.634  -1.157  0.00  0.00    +0.040 A 
ATOM     12  C   LIG    1        4.463  -9.902  -1.365  0.00  0.00    +0.040 A 
BRANCH   7  15
ATOM     13  C   LIG    1        5.838 -14.029  -1.248  0.00  0.00    +0.110 C 
ATOM     14  C   LIG    1        5.333 -12.616  -1.105  0.00  0.00    +0.510 C 
ATOM     15  N   LIG    1        4.118 -12.283  -1.584  0.00  0.00    -0.670 N 
ATOM     16  H   LIG    1        3.597 -12.935  -2.079  0.00  0.00    +0.410 HD
ATOM     17  O   LIG    1        6.019 -11.779  -0.559  0.00  0.00    -0.520 OA
ENDBRANCH   7  15
ENDBRANCH   3  10
ENDBRANCH   1   5
BRANCH   1  18
ATOM     18  S   LIG    1        3.737  -3.715   0.278  0.00  0.00    +0.080 S 
BRANCH  18  19
ATOM     19  C   LIG    1        2.902  -2.164   0.252  0.00  0.00    +0.260 A 
ATOM     20  N   LIG    1        1.609  -2.007   0.108  0.00  0.00    -0.490 NA
ATOM     21  C   LIG    1        1.302  -0.683   0.134  0.00  0.00    +0.060 A 
ATOM     22  C   LIG    1        0.104   0.026   0.027  0.00  0.00    +0.060 A 
ATOM     23  C   LIG    1        0.115   1.402   0.094  0.00  0.00    +0.010 A 
ATOM     24  C   LIG    1        1.307   2.088   0.266  0.00  0.00    +0.030 A 
ATOM     25  C   LIG    1        2.500   1.402   0.373  0.00  0.00    +0.010 A 
ATOM     26  C   LIG    1        2.507   0.018   0.309  0.00  0.00    +0.060 A 
ATOM     27  N   LIG    1        3.506  -0.942   0.381  0.00  0.00    -0.430 N 
BRANCH  27  28
ATOM     28  C   LIG    1        4.876  -0.706   0.552  0.00  0.00    +0.110 A 
ATOM     29  C   LIG    1        5.341  -0.134   1.729  0.00  0.00    +0.030 A 
ATOM     30  C   LIG    1        6.693   0.093   1.897  0.00  0.00    +0.020 A 
ATOM     31  C   LIG    1        7.582  -0.239   0.891  0.00  0.00    +0.030 A 
ATOM     32  C   LIG    1        7.121  -0.804  -0.284  0.00  0.00    +0.040 A 
ATOM     33  C   LIG    1        5.771  -1.038  -0.456  0.00  0.00    +0.030 A 
ENDBRANCH  27  28
ENDBRANCH  18  19
ENDBRANCH   1  18
TORSDOF 6
