REMARK  Name = ZINCtV00001bB3kR.0
REMARK                            x       y       z     vdW  Elec       q    Type
REMARK                         _______ _______ _______ _____ _____    ______ ____
ROOT
ATOM      1  O   LIG    1        1.445   4.067   2.433  0.00  0.00    -0.510 OA
ATOM      2  C   LIG    1        1.106   3.069   1.825  0.00  0.00    +0.580 C 
ATOM      3  N   LIG    1       -0.199   2.845   1.572  0.00  0.00    -0.580 N 
ATOM      4  C   LIG    1       -1.266   3.592   2.037  0.00  0.00    +0.400 C 
ATOM      5  N   LIG    1       -2.411   3.212   1.572  0.00  0.00    -0.520 NA
ATOM      6  C   LIG    1       -2.221   2.090   0.623  0.00  0.00    +0.170 C 
ATOM      7  C   LIG    1       -2.686   2.553  -0.743  0.00  0.00    +0.030 C 
ATOM      8  C   LIG    1       -1.932   1.883  -1.883  0.00  0.00    +0.020 C 
ATOM      9  C   LIG    1       -0.439   2.194  -1.712  0.00  0.00    +0.010 C 
ATOM     10  C   LIG    1        0.047   1.453  -0.470  0.00  0.00    +0.040 C 
ATOM     11  C   LIG    1       -0.754   1.765   0.752  0.00  0.00    +0.180 C 
ENDROOT
BRANCH   4  12
ATOM     12  C   LIG    1       -1.114   4.709   2.976  0.00  0.00    +0.030 C 
ATOM     13  C   LIG    1       -2.203   5.330   3.465  0.00  0.00    +0.100 C 
BRANCH  13  14
ATOM     14  C   LIG    1       -2.050   6.526   4.311  0.00  0.00    -0.060 A 
ATOM     15  C   LIG    1       -0.785   7.083   4.519  0.00  0.00    +0.050 A 
ATOM     16  C   LIG    1       -0.650   8.205   5.308  0.00  0.00    +0.030 A 
ATOM     17  C   LIG    1       -1.764   8.775   5.904  0.00  0.00    -0.030 A 
ATOM     18  C   LIG    1       -3.020   8.225   5.707  0.00  0.00    +0.030 A 
ATOM     19 CL   LIG    1       -1.585  10.183   6.903  0.00  0.00    -0.070 Cl
ATOM     20  C   LIG    1       -3.170   7.106   4.916  0.00  0.00    +0.050 A 
ENDBRANCH  13  14
ENDBRANCH   4  12
BRANCH   2  21
ATOM     21  C   LIG    1        2.114   2.112   1.369  0.00  0.00    -0.090 C 
ATOM     22  C   LIG    1        3.425   2.395   1.511  0.00  0.00    +0.140 C 
BRANCH  22  23
ATOM     23  C   LIG    1        4.439   1.486   0.953  0.00  0.00    -0.080 A 
ATOM     24  C   LIG    1        4.053   0.269   0.382  0.00  0.00    +0.050 A 
ATOM     25  C   LIG    1        5.007  -0.576  -0.143  0.00  0.00    +0.030 A 
ATOM     26  C   LIG    1        6.347  -0.228  -0.096  0.00  0.00    -0.020 A 
ATOM     27  C   LIG    1        6.737   0.974   0.473  0.00  0.00    +0.030 A 
ATOM     28 CL   LIG    1        7.543  -1.301  -0.752  0.00  0.00    -0.060 Cl
ATOM     29  C   LIG    1        5.794   1.831   0.997  0.00  0.00    +0.060 A 
ENDBRANCH  22  23
ENDBRANCH   2  21
TORSDOF 4
