REMARK  Name = ZINCvU0000000BjW.0
REMARK                            x       y       z     vdW  Elec       q    Type
REMARK                         _______ _______ _______ _____ _____    ______ ____
ROOT
ATOM      1  O   LIG    1        2.537  -1.938  -4.919  0.00  0.00    -0.430 OA
ATOM      2  C   LIG    1        3.236  -0.953  -4.764  0.00  0.00    +0.460 A 
ATOM      3  C   LIG    1        4.193  -0.466  -5.790  0.00  0.00    -0.210 A 
ATOM      4  C   LIG    1        4.481  -1.242  -6.912  0.00  0.00    +0.160 A 
ATOM      5  C   LIG    1        5.381  -0.780  -7.847  0.00  0.00    -0.120 A 
ATOM      6  C   LIG    1        5.997   0.452  -7.670  0.00  0.00    +0.120 A 
ATOM      7  C   LIG    1        5.718   1.228  -6.568  0.00  0.00    +0.030 A 
ATOM      8 BR   LIG    1        5.779  -1.825  -9.372  0.00  0.00    -0.020 Br
ATOM      9  C   LIG    1        4.808   0.784  -5.609  0.00  0.00    +0.160 A 
ATOM     10  O   LIG    1        4.546   1.571  -4.540  0.00  0.00    -0.180 OA
ATOM     11  C   LIG    1        3.862   1.067  -3.494  0.00  0.00    +0.090 A 
ATOM     12  C   LIG    1        3.660   1.642  -2.152  0.00  0.00    +0.570 C 
ATOM     13  O   LIG    1        4.110   2.706  -1.776  0.00  0.00    -0.480 OA
ATOM     14  N   LIG    1        2.903   0.815  -1.403  0.00  0.00    -0.590 N 
ATOM     15  C   LIG    1        2.569  -0.363  -2.219  0.00  0.00    +0.350 C 
ATOM     16  C   LIG    1        3.212  -0.134  -3.547  0.00  0.00    -0.240 A 
ENDROOT
BRANCH  15  17
ATOM     17  C   LIG    1        3.120  -1.612  -1.580  0.00  0.00    -0.090 A 
ATOM     18  C   LIG    1        4.375  -1.595  -1.001  0.00  0.00    +0.010 A 
ATOM     19  C   LIG    1        4.882  -2.737  -0.408  0.00  0.00    +0.030 A 
ATOM     20  C   LIG    1        4.139  -3.901  -0.404  0.00  0.00    +0.000 A 
ATOM     21  C   LIG    1        2.881  -3.923  -0.990  0.00  0.00    +0.110 A 
ATOM     22  C   LIG    1        2.373  -2.774  -1.578  0.00  0.00    +0.010 A 
BRANCH  21  23
ATOM     23  O   LIG    1        2.148  -5.067  -0.986  0.00  0.00    -0.500 OA
ATOM     24  H   LIG    1        2.298  -5.633  -1.756  0.00  0.00    +0.390 HD
ENDBRANCH  21  23
ENDBRANCH  15  17
BRANCH  14  25
ATOM     25  C   LIG    1        2.490   1.046  -0.016  0.00  0.00    +0.390 C 
BRANCH  25  26
ATOM     26  C   LIG    1        1.175   1.783   0.000  0.00  0.00    -0.130 A 
ATOM     27  C   LIG    1       -0.013   1.076   0.008  0.00  0.00    +0.060 A 
ATOM     28  C   LIG    1       -1.219   1.750   0.017  0.00  0.00    -0.020 A 
ATOM     29  C   LIG    1       -1.237   3.135   0.030  0.00  0.00    +0.110 A 
ATOM     30  C   LIG    1       -0.047   3.842   0.022  0.00  0.00    -0.020 A 
ATOM     31  F   LIG    1       -2.416   3.795   0.045  0.00  0.00    -0.140 F 
ATOM     32  C   LIG    1        1.158   3.165   0.007  0.00  0.00    +0.080 A 
ENDBRANCH  25  26
ENDBRANCH  14  25
TORSDOF 4
