REMARK  Name = ZINC9u0000000C7B.0
REMARK                            x       y       z     vdW  Elec       q    Type
REMARK                         _______ _______ _______ _____ _____    ______ ____
ROOT
ATOM      1  C   LIG    1       -0.017   1.385   0.010  0.00  0.00    +0.230 A 
ATOM      2  C   LIG    1        1.178   2.093   0.002  0.00  0.00    -0.020 A 
ATOM      3  C   LIG    1        2.382   1.414  -0.014  0.00  0.00    -0.050 A 
ATOM      4  C   LIG    1        2.397   0.031  -0.021  0.00  0.00    +0.020 A 
ATOM      5  C   LIG    1        1.209  -0.677  -0.013  0.00  0.00    -0.050 A 
ATOM      6  I   LIG    1        1.238  -2.772  -0.025  0.00  0.00    -0.030 I 
ATOM      7  I   LIG    1        4.185   2.481  -0.027  0.00  0.00    -0.030 I 
ATOM      8  C   LIG    1        0.002  -0.004   0.002  0.00  0.00    -0.020 A 
ENDROOT
BRANCH   1   9
ATOM      9  N   LIG    1       -1.235   2.068   0.019  0.00  0.00    -0.870 N 
ATOM     10  H   LIG    1       -1.247   3.038   0.025  0.00  0.00    +0.400 HD
ATOM     11  H   LIG    1       -2.069   1.573   0.020  0.00  0.00    +0.400 HD
ENDBRANCH   1   9
TORSDOF 1
