REMARK  Name = ZINCrH000004jkeg.0
REMARK                            x       y       z     vdW  Elec       q    Type
REMARK                         _______ _______ _______ _____ _____    ______ ____
ROOT
ATOM      1  N   LIG    1       -1.746   6.855   6.802  0.00  0.00    -0.690 N 
ATOM      2  H   LIG    1       -2.446   6.820   7.473  0.00  0.00    +0.410 HD
ATOM      3  C   LIG    1       -0.878   7.885   6.788  0.00  0.00    +0.700 C 
ATOM      4  N   LIG    1       -0.913   8.810   7.767  0.00  0.00    -0.730 N 
ATOM      5  H   LIG    1       -1.564   8.735   8.482  0.00  0.00    +0.400 HD
ATOM      6  O   LIG    1       -0.062   7.980   5.891  0.00  0.00    -0.560 OA
ENDROOT
BRANCH   1  10
ATOM      7  C   LIG    1       -1.426   3.818   3.965  0.00  0.00    -0.050 A 
ATOM      8  C   LIG    1       -2.682   4.202   4.440  0.00  0.00    +0.080 A 
ATOM      9  C   LIG    1       -2.784   5.202   5.382  0.00  0.00    -0.010 A 
ATOM     10  C   LIG    1       -1.639   5.837   5.851  0.00  0.00    +0.200 A 
ATOM     11  C   LIG    1       -0.388   5.460   5.377  0.00  0.00    +0.030 A 
ATOM     12  C   LIG    1       -0.278   4.457   4.439  0.00  0.00    +0.100 A 
BRANCH   7  16
ATOM     13  C   LIG    1       -1.775   1.173   1.554  0.00  0.00    +0.170 A 
ATOM     14  N   LIG    1       -0.484   1.352   1.589  0.00  0.00    -0.280 NA
ATOM     15  N   LIG    1       -0.202   2.288   2.426  0.00  0.00    -0.280 NA
ATOM     16  C   LIG    1       -1.312   2.742   2.958  0.00  0.00    +0.210 A 
ATOM     17  O   LIG    1       -2.330   2.048   2.411  0.00  0.00    -0.220 OA
BRANCH  13  19
ATOM     18  C   LIG    1       -2.655  -1.143   1.471  0.00  0.00    +0.060 C 
ATOM     19  C   LIG    1       -2.512   0.172   0.703  0.00  0.00    +0.180 C 
ENDBRANCH  13  19
ENDBRANCH   7  16
ENDBRANCH   1  10
BRANCH   4  20
ATOM     20  C   LIG    1        0.031   9.931   7.751  0.00  0.00    +0.260 C 
BRANCH  20  21
ATOM     21  C   LIG    1        0.230  10.450   9.176  0.00  0.00    -0.010 C 
ATOM     22  C   LIG    1        1.216  11.620   9.159  0.00  0.00    +0.020 C 
ATOM     23  C   LIG    1        1.415  12.139  10.585  0.00  0.00    +0.000 C 
ATOM     24  C   LIG    1        1.970  11.017  11.464  0.00  0.00    +0.000 C 
ATOM     25  C   LIG    1        0.984   9.847  11.481  0.00  0.00    +0.000 C 
ATOM     26  C   LIG    1        0.785   9.328  10.056  0.00  0.00    +0.010 C 
ENDBRANCH  20  21
BRANCH  20  27
ATOM     27  C   LIG    1       -0.523  11.053   6.872  0.00  0.00    +0.010 C 
BRANCH  27  28
ATOM     28  C   LIG    1       -0.605  10.572   5.422  0.00  0.00    +0.180 C 
BRANCH  28  29
ATOM     29  O   LIG    1       -1.124  11.620   4.600  0.00  0.00    -0.580 OA
ATOM     30  H   LIG    1       -1.203  11.385   3.666  0.00  0.00    +0.380 HD
ENDBRANCH  28  29
ENDBRANCH  27  28
ENDBRANCH  20  27
ENDBRANCH   4  20
TORSDOF 8
