REMARK  Name = ZINCrg00000BkFnm.0
REMARK                            x       y       z     vdW  Elec       q    Type
REMARK                         _______ _______ _______ _____ _____    ______ ____
ROOT
ATOM      1  O   LIG    1        6.397  -1.170  -0.372  0.00  0.00    -0.500 OA
ATOM      2  C   LIG    1        5.660  -1.506  -1.274  0.00  0.00    +0.510 C 
ATOM      3  N   LIG    1        6.100  -2.356  -2.223  0.00  0.00    -0.720 N 
ATOM      4  H   LIG    1        5.510  -2.625  -2.944  0.00  0.00    +0.400 HD
ENDROOT
BRANCH   3   5
ATOM      5  C   LIG    1        7.469  -2.874  -2.164  0.00  0.00    +0.220 C 
ATOM      6  C   LIG    1        7.795  -3.881  -3.280  0.00  0.00    +0.040 C 
ATOM      7  C   LIG    1        8.230  -2.677  -4.132  0.00  0.00    +0.230 C 
ATOM      8  C   LIG    1        8.508  -1.942  -2.810  0.00  0.00    +0.040 C 
BRANCH   7   9
ATOM      9  N   LIG    1        7.142  -2.086  -4.914  0.00  0.00    -0.710 N 
ATOM     10  H   LIG    1        6.476  -1.531  -4.478  0.00  0.00    +0.390 HD
ATOM     11  C   LIG    1        7.064  -2.313  -6.240  0.00  0.00    +0.590 C 
ATOM     12  O   LIG    1        7.899  -3.008  -6.788  0.00  0.00    -0.500 OA
BRANCH  11  13
ATOM     13  C   LIG    1        5.971  -1.719  -7.026  0.00  0.00    +0.050 A 
ATOM     14  C   LIG    1        5.765  -1.862  -8.383  0.00  0.00    -0.020 A 
ATOM     15  C   LIG    1        4.620  -1.138  -8.716  0.00  0.00    +0.260 A 
ATOM     16  N   LIG    1        4.146  -0.579  -7.630  0.00  0.00    -0.270 NA
ATOM     17  F   LIG    1        4.089  -1.031  -9.954  0.00  0.00    -0.080 F 
ATOM     18  N   LIG    1        4.965  -0.926  -6.549  0.00  0.00    -0.440 N 
ATOM     19  H   LIG    1        4.843  -0.651  -5.627  0.00  0.00    +0.450 HD
ENDBRANCH  11  13
ENDBRANCH   7   9
ENDBRANCH   3   5
BRANCH   2  20
ATOM     20  C   LIG    1        4.251  -0.974  -1.334  0.00  0.00    +0.090 C 
BRANCH  20  21
ATOM     21  C   LIG    1        4.009  -0.037  -0.148  0.00  0.00    +0.070 C 
ATOM     22  C   LIG    1        4.794   1.247  -0.314  0.00  0.00    +0.530 C 
ATOM     23  N   LIG    1        3.903   2.251  -0.365  0.00  0.00    -0.670 N 
ATOM     24  H   LIG    1        4.146   3.185  -0.468  0.00  0.00    +0.410 HD
ATOM     25  C   LIG    1        2.588   1.797  -0.252  0.00  0.00    +0.150 A 
ATOM     26  C   LIG    1        1.381   2.493  -0.255  0.00  0.00    -0.010 A 
ATOM     27  C   LIG    1        0.188   1.811  -0.126  0.00  0.00    +0.050 A 
ATOM     28  C   LIG    1        0.181   0.435   0.007  0.00  0.00    -0.010 A 
ATOM     29  C   LIG    1        1.377  -0.263   0.012  0.00  0.00    +0.070 A 
ATOM     30  O   LIG    1        6.000   1.350  -0.388  0.00  0.00    -0.470 OA
ATOM     31  C   LIG    1        2.567   0.415  -0.117  0.00  0.00    -0.150 A 
ENDBRANCH  20  21
ENDBRANCH   2  20
TORSDOF 5
