REMARK  Name = ZINCnE000001LfUt.1
REMARK                            x       y       z     vdW  Elec       q    Type
REMARK                         _______ _______ _______ _____ _____    ______ ____
ROOT
ATOM      1  C   LIG    1       -0.009   1.464   0.132  0.00  0.00    -0.260 A 
ATOM      2  C   LIG    1       -1.126   2.278   0.150  0.00  0.00    +0.290 A 
ATOM      3  N   LIG    1       -0.697   3.545   0.288  0.00  0.00    -0.330 N 
ATOM      4  N   LIG    1        0.702   3.536   0.348  0.00  0.00    -0.300 NA
ATOM      5  C   LIG    1        1.121   2.304   0.256  0.00  0.00    +0.330 A 
ENDROOT
BRANCH   3   6
ATOM      6  C   LIG    1       -1.512   4.683   0.355  0.00  0.00    +0.190 A 
ATOM      7  C   LIG    1       -0.940   5.941   0.491  0.00  0.00    +0.030 A 
ATOM      8  C   LIG    1       -1.746   7.061   0.557  0.00  0.00    +0.060 A 
ATOM      9  C   LIG    1       -3.120   6.932   0.486  0.00  0.00    +0.010 A 
ATOM     10  C   LIG    1       -3.693   5.679   0.349  0.00  0.00    -0.010 A 
ATOM     11 CL   LIG    1       -5.420   5.521   0.261  0.00  0.00    -0.060 Cl
ATOM     12  C   LIG    1       -2.892   4.555   0.278  0.00  0.00    +0.000 A 
ENDBRANCH   3   6
BRANCH   1  13
ATOM     13  C   LIG    1        0.002  -0.004   0.002  0.00  0.00    +0.520 C 
ATOM     14  O   LIG    1       -1.046  -0.622  -0.001  0.00  0.00    -0.490 OA
BRANCH  13  19
ATOM     15  C   LIG    1        3.003  -2.104   0.836  0.00  0.00    -0.030 A 
ATOM     16  C   LIG    1        3.696  -2.078  -0.369  0.00  0.00    -0.030 A 
ATOM     17  C   LIG    1        3.191  -1.380  -1.448  0.00  0.00    -0.130 A 
ATOM     18  C   LIG    1        1.985  -0.706  -1.339  0.00  0.00    +0.280 A 
ATOM     19  C   LIG    1        1.284  -0.724  -0.125  0.00  0.00    -0.290 A 
ATOM     20  O   LIG    1        1.487  -0.025  -2.402  0.00  0.00    -0.720 OA
ATOM     21  C   LIG    1        1.802  -1.432   0.963  0.00  0.00    +0.050 A 
BRANCH  15  23
ATOM     22  C   LIG    1        4.754  -3.466   1.694  0.00  0.00    +0.200 C 
ATOM     23  O   LIG    1        3.509  -2.794   1.893  0.00  0.00    -0.330 OA
ENDBRANCH  15  23
ENDBRANCH  13  19
ENDBRANCH   1  13
TORSDOF 4
