REMARK  Name = ZINCkj000018RBLc.1
REMARK                            x       y       z     vdW  Elec       q    Type
REMARK                         _______ _______ _______ _____ _____    ______ ____
ROOT
ATOM      1  C   LIG    1        4.150   1.758  -3.236  0.00  0.00    +0.020 C 
ATOM      2  C   LIG    1        3.226   2.167  -2.062  0.00  0.00    +0.300 C 
ATOM      3  N   LIG    1        2.918   0.871  -1.405  0.00  0.00    -0.390 N 
ATOM      4  C   LIG    1        4.175   0.091  -1.439  0.00  0.00    +0.310 C 
ATOM      5  H   LIG    1        2.194   0.386  -1.914  0.00  0.00    +0.430 HD
ATOM      6  C   LIG    1        5.001   0.621  -2.627  0.00  0.00    +0.030 C 
ENDROOT
BRANCH   1  10
ATOM      7  N   LIG    1        4.464   4.049  -4.115  0.00  0.00    -0.840 N 
ATOM      8  H   LIG    1        5.026   4.793  -4.384  0.00  0.00    +0.420 HD
ATOM      9  H   LIG    1        3.499   4.123  -4.179  0.00  0.00    +0.410 HD
ATOM     10  C   LIG    1        5.024   2.913  -3.654  0.00  0.00    +0.530 C 
ATOM     11  O   LIG    1        6.230   2.821  -3.574  0.00  0.00    -0.500 OA
ENDBRANCH   1  10
BRANCH   6  12
ATOM     12  C   LIG    1        5.220  -0.489  -3.657  0.00  0.00    +0.460 C 
ATOM     13  F   LIG    1        3.982  -1.007  -4.054  0.00  0.00    -0.180 F 
ATOM     14  F   LIG    1        5.991  -1.508  -3.088  0.00  0.00    -0.160 F 
ATOM     15  F   LIG    1        5.886   0.033  -4.771  0.00  0.00    -0.160 F 
ENDBRANCH   6  12
BRANCH   3  16
ATOM     16  C   LIG    1        2.499   1.094  -0.015  0.00  0.00    +0.350 C 
BRANCH  16  17
ATOM     17  C   LIG    1        1.168   1.802   0.001  0.00  0.00    -0.190 A 
ATOM     18  C   LIG    1        1.111   3.183   0.008  0.00  0.00    +0.290 A 
ATOM     19  N   LIG    1       -0.049   3.810   0.022  0.00  0.00    -0.440 NA
ATOM     20  C   LIG    1       -1.193   3.155   0.029  0.00  0.00    +0.290 A 
ATOM     21  C   LIG    1       -1.215   1.770   0.017  0.00  0.00    +0.060 A 
ATOM     22  F   LIG    1       -2.390   1.105   0.020  0.00  0.00    -0.110 F 
ATOM     23  C   LIG    1       -0.013   1.076   0.008  0.00  0.00    +0.080 A 
ENDBRANCH  16  17
ENDBRANCH   3  16
TORSDOF 4
