REMARK  Name = ZINCkj000018RBLc.2
REMARK                            x       y       z     vdW  Elec       q    Type
REMARK                         _______ _______ _______ _____ _____    ______ ____
ROOT
ATOM      1  C   LIG    1        0.002  -0.004   0.002  0.00  0.00    +0.030 C 
ATOM      2  C   LIG    1        1.498  -0.385  -0.014  0.00  0.00    +0.300 C 
ATOM      3  N   LIG    1        2.191   0.794   0.567  0.00  0.00    -0.390 N 
ATOM      4  C   LIG    1        1.466   1.960  -0.001  0.00  0.00    +0.310 C 
ATOM      5  H   LIG    1        2.115   0.787   1.573  0.00  0.00    +0.430 HD
ATOM      6  C   LIG    1       -0.019   1.538   0.011  0.00  0.00    +0.020 C 
ENDROOT
BRANCH   1  10
ATOM      7  N   LIG    1       -0.751  -1.874   1.435  0.00  0.00    -0.840 N 
ATOM      8  H   LIG    1       -1.179  -2.221   2.233  0.00  0.00    +0.420 HD
ATOM      9  H   LIG    1       -0.389  -2.485   0.774  0.00  0.00    +0.410 HD
ATOM     10  C   LIG    1       -0.662  -0.543   1.243  0.00  0.00    +0.520 C 
ATOM     11  O   LIG    1       -1.115   0.220   2.068  0.00  0.00    -0.510 OA
ENDBRANCH   1  10
BRANCH   6  12
ATOM     12  C   LIG    1       -0.731   2.067  -1.236  0.00  0.00    +0.470 C 
ATOM     13  F   LIG    1       -0.058   1.626  -2.380  0.00  0.00    -0.180 F 
ATOM     14  F   LIG    1       -0.740   3.466  -1.210  0.00  0.00    -0.160 F 
ATOM     15  F   LIG    1       -2.047   1.593  -1.258  0.00  0.00    -0.160 F 
ENDBRANCH   6  12
BRANCH   3  16
ATOM     16  C   LIG    1        3.602   0.814   0.158  0.00  0.00    +0.350 C 
BRANCH  16  17
ATOM     17  C   LIG    1        4.319  -0.360   0.773  0.00  0.00    -0.190 A 
ATOM     18  C   LIG    1        4.385  -1.568   0.104  0.00  0.00    +0.290 A 
ATOM     19  N   LIG    1        5.011  -2.601   0.634  0.00  0.00    -0.440 NA
ATOM     20  C   LIG    1        5.595  -2.527   1.813  0.00  0.00    +0.290 A 
ATOM     21  C   LIG    1        5.571  -1.351   2.543  0.00  0.00    +0.060 A 
ATOM     22  F   LIG    1        6.172  -1.282   3.751  0.00  0.00    -0.110 F 
ATOM     23  C   LIG    1        4.926  -0.241   2.014  0.00  0.00    +0.080 A 
ENDBRANCH  16  17
ENDBRANCH   3  16
TORSDOF 4
