REMARK  Name = ZINCrD000000C8xY.0
REMARK                            x       y       z     vdW  Elec       q    Type
REMARK                         _______ _______ _______ _____ _____    ______ ____
ROOT
ATOM      1  O   LIG    1       -1.564   1.144   3.215  0.00  0.00    -0.560 OA
ATOM      2  C   LIG    1       -1.066   0.715   2.192  0.00  0.00    +0.710 C 
ATOM      3  N   LIG    1       -0.742   1.560   1.194  0.00  0.00    -0.630 N 
ATOM      4  C   LIG    1       -0.040   1.081  -0.007  0.00  0.00    +0.250 C 
ATOM      5  C   LIG    1       -0.802   1.575  -1.242  0.00  0.00    +0.220 C 
ATOM      6  O   LIG    1       -0.996   2.988  -1.142  0.00  0.00    -0.370 OA
ATOM      7  C   LIG    1       -1.792   3.391  -0.025  0.00  0.00    +0.200 C 
ATOM      8  C   LIG    1       -1.081   2.990   1.273  0.00  0.00    +0.300 C 
ATOM      9  N   LIG    1       -0.839  -0.607   2.057  0.00  0.00    -0.680 N 
ATOM     10  H   LIG    1       -0.366  -0.940   1.278  0.00  0.00    +0.410 HD
ENDROOT
BRANCH   9  11
ATOM     11  C   LIG    1       -1.284  -1.500   3.041  0.00  0.00    +0.170 A 
ATOM     12  C   LIG    1       -2.467  -1.248   3.722  0.00  0.00    +0.020 A 
ATOM     13  C   LIG    1       -2.906  -2.128   4.693  0.00  0.00    +0.050 A 
ATOM     14  C   LIG    1       -2.170  -3.259   4.989  0.00  0.00    +0.010 A 
ATOM     15  C   LIG    1       -0.986  -3.519   4.313  0.00  0.00    +0.070 A 
ATOM     16  O   LIG    1       -0.272  -4.636   4.622  0.00  0.00    -0.300 OA
ATOM     17  C   LIG    1        0.709  -5.058   3.668  0.00  0.00    +0.220 C 
ATOM     18  C   LIG    1        1.517  -3.827   3.234  0.00  0.00    +0.220 C 
ATOM     19  O   LIG    1        0.614  -2.880   2.655  0.00  0.00    -0.310 OA
ATOM     20  C   LIG    1       -0.544  -2.643   3.332  0.00  0.00    +0.020 A 
ENDBRANCH   9  11
BRANCH   7  21
ATOM     21  C   LIG    1       -1.980   4.886  -0.055  0.00  0.00    -0.070 A 
ATOM     22  C   LIG    1       -3.171   5.441   0.374  0.00  0.00    +0.060 A 
ATOM     23  C   LIG    1       -3.345   6.812   0.348  0.00  0.00    +0.030 A 
ATOM     24  C   LIG    1       -2.327   7.631  -0.108  0.00  0.00    +0.070 A 
ATOM     25  C   LIG    1       -1.132   7.074  -0.539  0.00  0.00    +0.070 A 
ATOM     26  F   LIG    1       -0.137   7.871  -0.985  0.00  0.00    -0.130 F 
ATOM     27  F   LIG    1       -2.497   8.971  -0.134  0.00  0.00    -0.130 F 
ATOM     28  C   LIG    1       -0.959   5.702  -0.506  0.00  0.00    +0.050 A 
ENDBRANCH   7  21
TORSDOF 2
