REMARK  Name = ZINCrH000004rnFO.0
REMARK                            x       y       z     vdW  Elec       q    Type
REMARK                         _______ _______ _______ _____ _____    ______ ____
ROOT
ATOM      1  N   LIG    1       -3.535   7.339   0.386  0.00  0.00    -0.560 N 
ATOM      2  C   LIG    1       -3.466   8.166  -0.663  0.00  0.00    +0.710 C 
ATOM      3  N   LIG    1       -3.228   9.439  -0.299  0.00  0.00    -0.710 N 
ATOM      4  H   LIG    1       -3.138  10.204  -0.889  0.00  0.00    +0.440 HD
ATOM      5  C   LIG    1       -3.127   9.445   1.171  0.00  0.00    +0.170 C 
ATOM      6  C   LIG    1       -4.216  10.330   1.781  0.00  0.00    +0.110 C 
ATOM      7  O   LIG    1       -3.604   7.808  -1.816  0.00  0.00    -0.530 OA
ATOM      8  C   LIG    1       -3.351   7.994   1.549  0.00  0.00    +0.540 C 
ATOM      9  O   LIG    1       -3.361   7.521   2.666  0.00  0.00    -0.450 OA
ENDROOT
BRANCH   5  10
ATOM     10  C   LIG    1       -1.761   9.906   1.607  0.00  0.00    -0.090 A 
ATOM     11  C   LIG    1       -1.207   9.418   2.776  0.00  0.00    +0.060 A 
ATOM     12  C   LIG    1        0.048   9.837   3.174  0.00  0.00    +0.040 A 
ATOM     13  C   LIG    1        0.747  10.753   2.408  0.00  0.00    -0.020 A 
ATOM     14  C   LIG    1        0.190  11.245   1.241  0.00  0.00    +0.030 A 
ATOM     15 CL   LIG    1        2.321  11.284   2.910  0.00  0.00    -0.060 Cl
ATOM     16  C   LIG    1       -1.063  10.822   0.841  0.00  0.00    +0.050 A 
ENDBRANCH   5  10
BRANCH   1  17
ATOM     17  C   LIG    1       -3.785   5.899   0.283  0.00  0.00    +0.380 C 
BRANCH  17  20
ATOM     18  N   LIG    1       -2.456   3.826   0.045  0.00  0.00    -0.660 N 
ATOM     19  H   LIG    1       -3.289   3.335  -0.031  0.00  0.00    +0.420 HD
ATOM     20  C   LIG    1       -2.472   5.169   0.154  0.00  0.00    +0.500 C 
ATOM     21  O   LIG    1       -1.431   5.791   0.148  0.00  0.00    -0.500 OA
BRANCH  18  26
ATOM     22  C   LIG    1        2.488   1.041   0.030  0.00  0.00    +0.100 C 
ATOM     23  C   LIG    1        1.175   1.780   0.034  0.00  0.00    -0.090 A 
ATOM     24  C   LIG    1        1.083   3.021   0.636  0.00  0.00    +0.040 A 
ATOM     25  C   LIG    1       -0.119   3.702   0.641  0.00  0.00    +0.040 A 
ATOM     26  C   LIG    1       -1.237   3.139   0.041  0.00  0.00    +0.150 A 
ATOM     27  C   LIG    1       -1.141   1.893  -0.568  0.00  0.00    -0.060 A 
ATOM     28 CL   LIG    1       -2.534   1.187  -1.326  0.00  0.00    -0.060 Cl
ATOM     29  C   LIG    1        0.063   1.215  -0.566  0.00  0.00    +0.050 A 
ENDBRANCH  18  26
ENDBRANCH  17  20
ENDBRANCH   1  17
TORSDOF 4
