REMARK  Name = ZINCkj00000dDvmy.2
REMARK                            x       y       z     vdW  Elec       q    Type
REMARK                         _______ _______ _______ _____ _____    ______ ____
ROOT
ATOM      1  N   LIG    1       -0.698   1.559  -1.202  0.00  0.00    -0.370 N 
ATOM      2  C   LIG    1        0.185   1.091  -2.280  0.00  0.00    +0.330 C 
ATOM      3  H   LIG    1       -0.863   2.549  -1.309  0.00  0.00    +0.430 HD
ENDROOT
BRANCH   1  10
ATOM      4  C   LIG    1        1.139   2.234   0.245  0.00  0.00    +0.190 C 
ATOM      5  C   LIG    1        2.458   1.460   0.440  0.00  0.00    -0.300 C 
ATOM      6  S   LIG    1        1.894  -0.136   1.156  0.00  0.00    +2.410 S 
ATOM      7  C   LIG    1        0.338  -0.182   0.177  0.00  0.00    -0.310 C 
ATOM      8  O   LIG    1        2.757  -1.185   0.737  0.00  0.00    -0.890 OA
ATOM      9  O   LIG    1        1.591   0.034   2.534  0.00  0.00    -0.900 OA
ATOM     10  C   LIG    1       -0.060   1.306   0.097  0.00  0.00    +0.210 C 
BRANCH   4  12
ATOM     11  C   LIG    1        1.817   4.333  -0.692  0.00  0.00    +0.250 C 
ATOM     12  O   LIG    1        1.245   3.045  -0.927  0.00  0.00    -0.390 OA
ENDBRANCH   4  12
ENDBRANCH   1  10
BRANCH   1  13
ATOM     13  C   LIG    1       -1.976   0.839  -1.269  0.00  0.00    +0.240 C 
BRANCH  13  14
ATOM     14  C   LIG    1       -2.704   1.212  -2.562  0.00  0.00    +0.040 C 
BRANCH  14  15
ATOM     15  C   LIG    1       -4.036   0.462  -2.632  0.00  0.00    +0.090 C 
BRANCH  15  16
ATOM     16  C   LIG    1       -4.753   0.829  -3.906  0.00  0.00    -0.100 A 
ATOM     17  C   LIG    1       -5.626   1.901  -3.923  0.00  0.00    +0.000 A 
ATOM     18  C   LIG    1       -6.281   2.239  -5.093  0.00  0.00    +0.010 A 
ATOM     19  C   LIG    1       -6.069   1.502  -6.242  0.00  0.00    +0.020 A 
ATOM     20  C   LIG    1       -5.200   0.427  -6.223  0.00  0.00    +0.010 A 
ATOM     21  C   LIG    1       -4.542   0.090  -5.055  0.00  0.00    +0.000 A 
ENDBRANCH  15  16
ENDBRANCH  14  15
ENDBRANCH  13  14
ENDBRANCH   1  13
TORSDOF 6
