REMARK  Name = ZINCkj00000dDvmy.1
REMARK                            x       y       z     vdW  Elec       q    Type
REMARK                         _______ _______ _______ _____ _____    ______ ____
ROOT
ATOM      1  N   LIG    1       -0.130   7.894  -2.780  0.00  0.00    -0.370 N 
ATOM      2  C   LIG    1       -1.385   7.492  -3.428  0.00  0.00    +0.320 C 
ATOM      3  H   LIG    1        0.650   7.505  -3.288  0.00  0.00    +0.430 HD
ENDROOT
BRANCH   1  10
ATOM      4  C   LIG    1       -0.048   9.882  -4.211  0.00  0.00    +0.200 C 
ATOM      5  C   LIG    1        0.753  11.184  -4.367  0.00  0.00    -0.290 C 
ATOM      6  S   LIG    1        1.467  11.516  -2.713  0.00  0.00    +2.410 S 
ATOM      7  C   LIG    1        1.305   9.787  -2.107  0.00  0.00    -0.300 C 
ATOM      8  O   LIG    1        0.597  12.366  -1.979  0.00  0.00    -0.900 OA
ATOM      9  O   LIG    1        2.843  11.847  -2.845  0.00  0.00    -0.900 OA
ATOM     10  C   LIG    1       -0.029   9.359  -2.773  0.00  0.00    +0.200 C 
BRANCH   4  12
ATOM     11  C   LIG    1       -0.021   8.905  -6.399  0.00  0.00    +0.250 C 
ATOM     12  O   LIG    1        0.511   8.890  -5.073  0.00  0.00    -0.390 OA
ENDBRANCH   4  12
ENDBRANCH   1  10
BRANCH   1  13
ATOM     13  C   LIG    1       -0.111   7.396  -1.398  0.00  0.00    +0.250 C 
BRANCH  13  14
ATOM     14  C   LIG    1       -0.090   5.866  -1.407  0.00  0.00    +0.040 C 
BRANCH  14  15
ATOM     15  C   LIG    1       -0.070   5.347   0.032  0.00  0.00    +0.090 C 
BRANCH  15  16
ATOM     16  C   LIG    1       -0.050   3.840   0.023  0.00  0.00    -0.100 A 
ATOM     17  C   LIG    1        1.156   3.165   0.008  0.00  0.00    +0.000 A 
ATOM     18  C   LIG    1        1.175   1.783   0.000  0.00  0.00    +0.010 A 
ATOM     19  C   LIG    1       -0.013   1.076   0.008  0.00  0.00    +0.020 A 
ATOM     20  C   LIG    1       -1.219   1.751   0.017  0.00  0.00    +0.010 A 
ATOM     21  C   LIG    1       -1.238   3.133   0.029  0.00  0.00    +0.000 A 
ENDBRANCH  15  16
ENDBRANCH  14  15
ENDBRANCH  13  14
ENDBRANCH   1  13
TORSDOF 6
