REMARK  Name = ZINCpe000000ZFYG.0
REMARK                            x       y       z     vdW  Elec       q    Type
REMARK                         _______ _______ _______ _____ _____    ______ ____
ROOT
ATOM      1  C   LIG    1       -0.022   1.758   0.012  0.00  0.00    -0.630 A 
ATOM      2  C   LIG    1       -1.228   2.433   0.021  0.00  0.00    +0.110 A 
ATOM      3  C   LIG    1       -1.247   3.815   0.033  0.00  0.00    +0.110 A 
ATOM      4  C   LIG    1       -0.059   4.522   0.026  0.00  0.00    -0.630 A 
ATOM      5  C   LIG    1        1.147   3.847   0.012  0.00  0.00    +0.110 A 
ATOM      6  C   LIG    1        1.166   2.465   0.004  0.00  0.00    +0.110 A 
ENDROOT
BRANCH   1   8
ATOM      7  O   LIG    1       -1.247  -0.419  -0.533  0.00  0.00    -0.950 OA
ATOM      8  S   LIG    1        0.002  -0.004   0.002  0.00  0.00    +2.690 S 
ATOM      9  O   LIG    1        1.252  -0.385  -0.556  0.00  0.00    -0.950 OA
BRANCH   8  10
ATOM     10  N   LIG    1        0.024  -0.503   1.581  0.00  0.00    -0.990 NA
ATOM     11  C   LIG    1        1.298  -0.717   2.281  0.00  0.00    +0.290 C 
ATOM     12  C   LIG    1        1.285   0.103   3.580  0.00  0.00    +0.010 C 
ATOM     13  C   LIG    1        0.048  -0.271   4.400  0.00  0.00    +0.020 C 
ATOM     14  C   LIG    1       -1.215   0.069   3.604  0.00  0.00    +0.010 C 
ATOM     15  C   LIG    1       -1.230  -0.745   2.307  0.00  0.00    +0.290 C 
ENDBRANCH   8  10
ENDBRANCH   1   8
BRANCH   4  16
ATOM     16  S   LIG    1       -0.083   6.284   0.035  0.00  0.00    +2.710 S 
ATOM     17  O   LIG    1        1.166   6.699   0.571  0.00  0.00    -0.940 OA
ATOM     18  O   LIG    1       -1.333   6.665   0.593  0.00  0.00    -0.940 OA
BRANCH  16  19
ATOM     19  N   LIG    1       -0.104   6.782  -1.544  0.00  0.00    -1.010 NA
ATOM     20  C   LIG    1       -1.309   7.024  -2.350  0.00  0.00    +0.270 C 
ATOM     21  C   LIG    1       -0.841   7.446  -3.759  0.00  0.00    +0.050 C 
ATOM     22  C   LIG    1        0.598   6.872  -3.833  0.00  0.00    -0.010 C 
ATOM     23  C   LIG    1        1.083   7.063  -2.372  0.00  0.00    +0.290 C 
BRANCH  22  24
ATOM     24  C   LIG    1        1.461   7.679  -4.805  0.00  0.00    +0.190 C 
BRANCH  24  25
ATOM     25  O   LIG    1        0.967   7.509  -6.135  0.00  0.00    -0.570 OA
ATOM     26  H   LIG    1        1.468   7.994  -6.805  0.00  0.00    +0.380 HD
ENDBRANCH  24  25
ENDBRANCH  22  24
ENDBRANCH  16  19
ENDBRANCH   4  16
TORSDOF 6
