REMARK  Name = ZINCqH0000003Txa.0
REMARK                            x       y       z     vdW  Elec       q    Type
REMARK                         _______ _______ _______ _____ _____    ______ ____
ROOT
ATOM      1  C   LIG    1        0.921   3.579  -0.714  0.00  0.00    +0.540 C 
ATOM      2  N   LIG    1       -0.001   4.229   0.024  0.00  0.00    -0.660 N 
ATOM      3  H   LIG    1       -0.692   3.729   0.486  0.00  0.00    +0.410 HD
ATOM      4  O   LIG    1        1.728   4.208  -1.370  0.00  0.00    -0.490 OA
ENDROOT
BRANCH   1  10
ATOM      5  C   LIG    1        1.904   1.425  -1.489  0.00  0.00    -0.610 A 
ATOM      6  C   LIG    1        1.927   0.046  -1.495  0.00  0.00    +0.120 A 
ATOM      7  C   LIG    1        1.006  -0.667  -0.747  0.00  0.00    +0.030 A 
ATOM      8  C   LIG    1        0.059  -0.004   0.011  0.00  0.00    +0.070 A 
ATOM      9  C   LIG    1        0.026   1.376   0.027  0.00  0.00    +0.040 A 
ATOM     10  C   LIG    1        0.951   2.101  -0.725  0.00  0.00    -0.050 A 
BRANCH   5  11
ATOM     11  S   LIG    1        3.076   2.331  -2.442  0.00  0.00    +2.510 S 
ATOM     12  O   LIG    1        3.882   1.331  -3.050  0.00  0.00    -0.950 OA
ATOM     13  O   LIG    1        3.632   3.261  -1.523  0.00  0.00    -0.910 OA
BRANCH  11  15
ATOM     14  C   LIG    1        2.993   4.021  -4.591  0.00  0.00    +0.080 C 
ATOM     15  C   LIG    1        2.078   3.190  -3.690  0.00  0.00    -0.330 C 
ENDBRANCH  11  15
ENDBRANCH   5  11
ENDBRANCH   1  10
BRANCH   2  16
ATOM     16  C   LIG    1        0.039   5.625   0.123  0.00  0.00    +0.110 A 
ATOM     17  C   LIG    1        1.260   6.287   0.113  0.00  0.00    +0.050 A 
ATOM     18  C   LIG    1        1.299   7.664   0.205  0.00  0.00    -0.020 A 
ATOM     19  C   LIG    1        0.118   8.387   0.320  0.00  0.00    +0.100 A 
ATOM     20  C   LIG    1       -1.103   7.724   0.336  0.00  0.00    +0.010 A 
ATOM     21  C   LIG    1       -1.142   6.347   0.238  0.00  0.00    +0.020 A 
BRANCH  19  22
ATOM     22  N   LIG    1        0.158   9.781   0.419  0.00  0.00    -0.490 N 
ATOM     23  C   LIG    1       -0.656  10.408  -0.630  0.00  0.00    +0.180 C 
ATOM     24  C   LIG    1       -0.707  11.920  -0.404  0.00  0.00    +0.020 C 
ATOM     25  C   LIG    1        0.716  12.484  -0.431  0.00  0.00    +0.010 C 
ATOM     26  C   LIG    1        1.556  11.781   0.639  0.00  0.00    +0.020 C 
ATOM     27  C   LIG    1        1.541  10.272   0.382  0.00  0.00    +0.180 C 
ENDBRANCH  19  22
ENDBRANCH   2  16
TORSDOF 5
