REMARK  Name = ZINCpk00000K69ca.2
REMARK                            x       y       z     vdW  Elec       q    Type
REMARK                         _______ _______ _______ _____ _____    ______ ____
ROOT
ATOM      1  C   LIG    1        0.847  -1.549  -3.126  0.00  0.00    +0.220 A 
ATOM      2  N   LIG    1        0.055  -1.474  -2.071  0.00  0.00    -0.470 NA
ATOM      3  C   LIG    1        0.555  -0.484  -1.315  0.00  0.00    +0.160 A 
ATOM      4  N   LIG    1        1.607  -0.018  -1.922  0.00  0.00    -0.350 NA
ATOM      5  O   LIG    1        1.794  -0.612  -2.962  0.00  0.00    +0.080 OA
ENDROOT
BRANCH   3   6
ATOM      6  C   LIG    1        0.002  -0.004   0.002  0.00  0.00    +0.330 C 
ATOM      7  C   LIG    1        0.874  -0.550   1.145  0.00  0.00    +0.180 C 
ATOM      8  N   LIG    1        2.187   0.069   1.025  0.00  0.00    -0.520 NA
ATOM      9  C   LIG    1        3.200  -0.299   2.024  0.00  0.00    +0.170 C 
ATOM     10  C   LIG    1        4.258   0.830   1.893  0.00  0.00    +0.020 C 
ATOM     11  C   LIG    1        3.485   2.036   1.300  0.00  0.00    +0.040 C 
ATOM     12  C   LIG    1        2.039   1.540   1.205  0.00  0.00    +0.090 C 
ATOM     13  C   LIG    1        1.269   2.063   0.001  0.00  0.00    +0.250 C 
ATOM     14  O   LIG    1       -0.017   1.422   0.010  0.00  0.00    -0.370 OA
ENDBRANCH   3   6
BRANCH   1  18
ATOM     15  C   LIG    1        0.478  -4.242  -6.389  0.00  0.00    -0.060 A 
ATOM     16  C   LIG    1        1.516  -3.327  -6.365  0.00  0.00    +0.050 A 
ATOM     17  C   LIG    1        1.642  -2.450  -5.308  0.00  0.00    +0.060 A 
ATOM     18  C   LIG    1        0.719  -2.486  -4.261  0.00  0.00    -0.020 A 
ATOM     19  C   LIG    1       -0.323  -3.415  -4.290  0.00  0.00    +0.080 A 
ATOM     20  C   LIG    1       -0.440  -4.283  -5.356  0.00  0.00    +0.030 A 
BRANCH  15  21
ATOM     21  C   LIG    1        0.347  -5.197  -7.547  0.00  0.00    +0.110 C 
ATOM     22  C   LIG    1       -0.878  -4.928  -8.441  0.00  0.00    +0.210 C 
ATOM     23  O   LIG    1       -1.059  -6.361  -8.426  0.00  0.00    -0.380 OA
ATOM     24  C   LIG    1       -0.345  -6.524  -7.184  0.00  0.00    +0.210 C 
BRANCH  21  25
ATOM     25  O   LIG    1        1.566  -5.363  -8.275  0.00  0.00    -0.530 OA
ATOM     26  H   LIG    1        1.499  -5.974  -9.022  0.00  0.00    +0.390 HD
ENDBRANCH  21  25
ENDBRANCH  15  21
ENDBRANCH   1  18
TORSDOF 4
