REMARK  Name = ZINCah0000002Bgw.0
REMARK                            x       y       z     vdW  Elec       q    Type
REMARK                         _______ _______ _______ _____ _____    ______ ____
ROOT
ATOM      1  C   LIG    1       -1.312   3.192   0.138  0.00  0.00    +0.220 A 
ATOM      2  C   LIG    1       -2.541   3.854   0.135  0.00  0.00    +0.000 A 
ATOM      3  C   LIG    1       -3.694   3.101   0.030  0.00  0.00    +0.080 A 
ATOM      4  C   LIG    1       -3.602   1.717  -0.076  0.00  0.00    +0.110 A 
ATOM      5  N   LIG    1       -2.435   1.113  -0.077  0.00  0.00    -0.390 NA
ATOM      6 CL   LIG    1       -5.052   0.772  -0.207  0.00  0.00    -0.030 Cl
ATOM      7  CA  LIG    1       -1.295   1.793   0.022  0.00  0.00    -0.040 A 
ENDROOT
BRANCH   1   8
ATOM      8  N   LIG    1       -0.127   3.905   0.247  0.00  0.00    -0.850 N 
ATOM      9  H   LIG    1       -0.149   4.862   0.402  0.00  0.00    +0.410 HD
ATOM     10  H   LIG    1        0.724   3.446   0.168  0.00  0.00    +0.410 HD
ENDBRANCH   1   8
BRANCH   7  11
ATOM     11  C   LIG    1       -0.013   1.075   0.016  0.00  0.00    +0.500 C 
ATOM     12  O   LIG    1        0.003  -0.138   0.016  0.00  0.00    -0.430 OA
ENDBRANCH   7  11
TORSDOF 2
