REMARK  Name = ZINCbw0000000Hnt.0
REMARK                            x       y       z     vdW  Elec       q    Type
REMARK                         _______ _______ _______ _____ _____    ______ ____
ROOT
ATOM      1  C   LIG    1       -0.723   1.954   1.250  0.00  0.00    -0.120 A 
ATOM      2  C   LIG    1       -2.067   2.270   1.201  0.00  0.00    +0.100 A 
ATOM      3  C   LIG    1       -2.716   2.712   2.341  0.00  0.00    -0.100 A 
ATOM      4  C   LIG    1       -2.018   2.847   3.526  0.00  0.00    +0.100 A 
ATOM      5  C   LIG    1       -0.672   2.536   3.575  0.00  0.00    +0.000 A 
ATOM      6 BR   LIG    1       -4.557   3.138   2.275  0.00  0.00    -0.030 Br
ATOM      7  C   LIG    1       -0.023   2.089   2.437  0.00  0.00    +0.130 A 
ATOM      8  F   LIG    1        1.292   1.785   2.484  0.00  0.00    -0.130 F 
ENDROOT
BRANCH   1   9
ATOM      9  C   LIG    1       -0.018   1.468   0.010  0.00  0.00    +0.280 C 
BRANCH   9  11
ATOM     10  N   LIG    1        0.018  -1.140  -0.004  0.00  0.00    -0.420 NA
ATOM     11  C   LIG    1        0.002  -0.004   0.002  0.00  0.00    +0.200 C 
ENDBRANCH   9  11
ENDBRANCH   1   9
TORSDOF 2
