REMARK  Name = ZINCpk00000KfKUC.0
REMARK                            x       y       z     vdW  Elec       q    Type
REMARK                         _______ _______ _______ _____ _____    ______ ____
ROOT
ATOM      1  N   LIG    1       -0.793   3.061  -1.212  0.00  0.00    -0.530 NA
ATOM      2  C   LIG    1       -0.754   1.594  -1.231  0.00  0.00    +0.170 C 
ATOM      3  C   LIG    1       -0.013   1.086   0.008  0.00  0.00    +0.030 C 
ATOM      4  C   LIG    1       -0.731   1.580   1.267  0.00  0.00    +0.030 C 
ATOM      5  C   LIG    1       -0.801   3.110   1.237  0.00  0.00    +0.150 C 
ATOM      6  C   LIG    1       -1.520   3.559  -0.037  0.00  0.00    +0.190 C 
ENDROOT
BRANCH   5   7
ATOM      7  N   LIG    1       -1.540   3.591   2.412  0.00  0.00    -0.530 NA
ATOM      8  C   LIG    1       -1.710   5.049   2.366  0.00  0.00    +0.180 C 
BRANCH   7   9
ATOM      9  C   LIG    1       -0.877   3.177   3.656  0.00  0.00    +0.310 C 
BRANCH   9  10
ATOM     10  C   LIG    1       -1.779   3.469   4.827  0.00  0.00    +0.180 A 
ATOM     11  N   LIG    1       -2.669   2.663   5.338  0.00  0.00    -0.270 NA
ATOM     12  N   LIG    1       -3.256   3.237   6.328  0.00  0.00    -0.290 NA
ATOM     13  C   LIG    1       -2.767   4.436   6.493  0.00  0.00    +0.210 A 
ATOM     14  N   LIG    1       -1.812   4.616   5.549  0.00  0.00    -0.470 N 
ATOM     15  C   LIG    1       -0.986   5.809   5.346  0.00  0.00    +0.340 C 
BRANCH  13  16
ATOM     16  C   LIG    1       -3.184   5.434   7.543  0.00  0.00    +0.030 C 
ATOM     17  C   LIG    1       -4.136   4.950   8.639  0.00  0.00    +0.070 C 
ATOM     18  C   LIG    1       -4.644   5.890   7.544  0.00  0.00    +0.050 C 
ENDBRANCH  13  16
ENDBRANCH   9  10
ENDBRANCH   7   9
ENDBRANCH   5   7
BRANCH   1  19
ATOM     19  C   LIG    1       -1.375   3.588  -2.454  0.00  0.00    +0.320 C 
BRANCH  19  23
ATOM     20  C   LIG    1        0.828   1.327  -6.340  0.00  0.00    +0.250 C 
ATOM     21  C   LIG    1        0.457   2.301  -5.252  0.00  0.00    +0.180 A 
ATOM     22  N   LIG    1       -0.507   2.162  -4.375  0.00  0.00    -0.480 NA
ATOM     23  C   LIG    1       -0.465   3.268  -3.611  0.00  0.00    +0.180 A 
ATOM     24  N   LIG    1        0.502   4.013  -4.058  0.00  0.00    -0.370 NA
ATOM     25  O   LIG    1        1.047   3.473  -4.997  0.00  0.00    +0.080 OA
ENDBRANCH  19  23
ENDBRANCH   1  19
TORSDOF 6
