REMARK  Name = ZINCpk00000KfKoa.0
REMARK                            x       y       z     vdW  Elec       q    Type
REMARK                         _______ _______ _______ _____ _____    ______ ____
ROOT
ATOM      1  C   LIG    1       -1.289  -1.239   0.390  0.00  0.00    +0.290 C 
ENDROOT
BRANCH   1   2
ATOM      2  N   LIG    1       -1.753  -1.721  -0.913  0.00  0.00    -0.710 N 
ATOM      3  H   LIG    1       -2.701  -1.725  -1.119  0.00  0.00    +0.410 HD
ATOM      4  C   LIG    1       -0.863  -2.159  -1.825  0.00  0.00    +0.500 C 
ATOM      5  O   LIG    1        0.322  -2.154  -1.568  0.00  0.00    -0.510 OA
BRANCH   4   6
ATOM      6  C   LIG    1       -1.340  -2.655  -3.166  0.00  0.00    +0.240 C 
ATOM      7  C   LIG    1       -1.638  -1.463  -4.102  0.00  0.00    +0.080 C 
ATOM      8  C   LIG    1       -0.298  -1.313  -4.858  0.00  0.00    +0.060 C 
ATOM      9  C   LIG    1        0.327  -2.688  -4.783  0.00  0.00    +0.530 C 
ATOM     10  O   LIG    1        1.242  -3.075  -5.479  0.00  0.00    -0.520 OA
ATOM     11  N   LIG    1       -0.279  -3.420  -3.832  0.00  0.00    -0.710 N 
ATOM     12  H   LIG    1       -0.045  -4.336  -3.614  0.00  0.00    +0.420 HD
ENDBRANCH   4   6
ENDBRANCH   1   2
BRANCH   1  13
ATOM     13  C   LIG    1       -1.121  -2.407   1.327  0.00  0.00    +0.450 C 
ATOM     14  O   LIG    1       -1.364  -3.528   0.946  0.00  0.00    -0.500 OA
BRANCH  13  16
ATOM     15  C   LIG    1       -0.562  -3.375   3.433  0.00  0.00    +0.260 C 
ATOM     16  O   LIG    1       -0.701  -2.203   2.586  0.00  0.00    -0.360 OA
ENDBRANCH  13  16
ENDBRANCH   1  13
BRANCH   1  17
ATOM     17  C   LIG    1       -2.316  -0.265   0.969  0.00  0.00    +0.060 C 
BRANCH  17  18
ATOM     18  C   LIG    1       -2.361   1.000   0.109  0.00  0.00    +0.050 C 
ATOM     19  C   LIG    1       -2.914   0.651  -1.271  0.00  0.00    +0.020 C 
ATOM     20  C   LIG    1       -3.153   1.956  -2.040  0.00  0.00    +0.020 C 
ATOM     21  C   LIG    1       -4.330   2.687  -1.397  0.00  0.00    +0.070 C 
ATOM     22  C   LIG    1       -4.127   2.810   0.091  0.00  0.00    -0.070 A 
ATOM     23  C   LIG    1       -4.889   3.751   0.771  0.00  0.00    +0.000 A 
ATOM     24  C   LIG    1       -4.756   3.907   2.135  0.00  0.00    +0.000 A 
ATOM     25  C   LIG    1       -3.858   3.120   2.832  0.00  0.00    +0.000 A 
ATOM     26  C   LIG    1       -3.099   2.185   2.157  0.00  0.00    +0.000 A 
ATOM     27  C   LIG    1       -3.225   2.033   0.783  0.00  0.00    -0.070 A 
ENDBRANCH  17  18
ENDBRANCH   1  17
TORSDOF 6
