REMARK  Name = ZINCvU0000000HcQ.0
REMARK                            x       y       z     vdW  Elec       q    Type
REMARK                         _______ _______ _______ _____ _____    ______ ____
ROOT
ATOM      1  O   LIG    1        1.984   5.089  -1.656  0.00  0.00    -0.340 OA
ENDROOT
BRANCH   1   2
ATOM      2  C   LIG    1        1.682   3.804  -1.415  0.00  0.00    +0.460 C 
ATOM      3  O   LIG    1        1.491   3.045  -2.335  0.00  0.00    -0.490 OA
BRANCH   2   4
ATOM      4  C   LIG    1        1.580   3.307   0.005  0.00  0.00    +0.240 C 
BRANCH   4   5
ATOM      5  C   LIG    1        1.232   1.841   0.000  0.00  0.00    +0.020 A 
ATOM      6  C   LIG    1        2.123   0.836  -0.014  0.00  0.00    -0.010 A 
ATOM      7  C   LIG    1        1.343  -0.399  -0.013  0.00  0.00    -0.130 A 
ATOM      8  C   LIG    1        0.002  -0.004   0.002  0.00  0.00    +0.050 A 
ATOM      9  C   LIG    1       -1.008  -0.973   0.006  0.00  0.00    +0.040 A 
ATOM     10  C   LIG    1       -0.724  -2.299  -0.002  0.00  0.00    +0.060 A 
ATOM     11  C   LIG    1        0.608  -2.758  -0.018  0.00  0.00    -0.070 A 
ATOM     12  C   LIG    1        0.906  -4.130  -0.028  0.00  0.00    +0.030 A 
ATOM     13  C   LIG    1        2.206  -4.538  -0.042  0.00  0.00    +0.010 A 
ATOM     14  C   LIG    1        3.246  -3.613  -0.047  0.00  0.00    +0.020 A 
ATOM     15  C   LIG    1        2.992  -2.273  -0.038  0.00  0.00    +0.020 A 
ATOM     16  C   LIG    1        1.669  -1.820  -0.023  0.00  0.00    -0.000 A 
ATOM     17  O   LIG    1       -0.016   1.344   0.009  0.00  0.00    -0.170 OA
ENDBRANCH   4   5
ENDBRANCH   2   4
ENDBRANCH   1   2
BRANCH   1  18
ATOM     18  C   LIG    1        2.066   5.497  -3.047  0.00  0.00    +0.320 C 
BRANCH  18  22
ATOM     19  O   LIG    1        4.955   9.114  -4.204  0.00  0.00    -0.530 OA
ATOM     20  C   LIG    1        3.902   8.728  -3.724  0.00  0.00    +0.530 A 
ATOM     21  C   LIG    1        3.600   7.353  -3.665  0.00  0.00    -0.110 A 
ATOM     22  C   LIG    1        2.413   6.962  -3.121  0.00  0.00    +0.180 A 
ATOM     23  N   LIG    1        1.557   7.872  -2.660  0.00  0.00    -0.520 NA
ATOM     24  C   LIG    1        1.832   9.158  -2.707  0.00  0.00    +0.450 A 
ATOM     25  N   LIG    1        3.003   9.610  -3.239  0.00  0.00    -0.630 N 
ATOM     26  H   LIG    1        3.189  10.562  -3.268  0.00  0.00    +0.420 HD
BRANCH  24  27
ATOM     27  C   LIG    1        0.853  10.130  -2.177  0.00  0.00    -0.080 A 
ATOM     28  C   LIG    1        1.129  11.498  -2.218  0.00  0.00    +0.040 A 
ATOM     29  C   LIG    1        0.208  12.399  -1.728  0.00  0.00    +0.010 A 
ATOM     30  C   LIG    1       -0.984  11.950  -1.186  0.00  0.00    +0.050 A 
ATOM     31  C   LIG    1       -1.261  10.596  -1.137  0.00  0.00    +0.010 A 
ATOM     32  C   LIG    1       -0.351   9.683  -1.629  0.00  0.00    +0.100 A 
ENDBRANCH  24  27
ENDBRANCH  18  22
ENDBRANCH   1  18
TORSDOF 6
