REMARK  Name = ZINCvU00000009AS.0
REMARK                            x       y       z     vdW  Elec       q    Type
REMARK                         _______ _______ _______ _____ _____    ______ ____
ROOT
ATOM      1  C   LIG    1        3.144   5.845  -2.358  0.00  0.00    +0.080 C 
ENDROOT
BRANCH   1   3
ATOM      2  O   LIG    1        1.098   6.004  -1.193  0.00  0.00    -0.510 OA
ATOM      3  C   LIG    1        2.071   5.323  -1.437  0.00  0.00    +0.540 C 
ATOM      4  N   LIG    1        2.193   4.100  -0.885  0.00  0.00    -0.720 N 
ATOM      5  H   LIG    1        2.972   3.555  -1.080  0.00  0.00    +0.400 HD
BRANCH   4   6
ATOM      6  C   LIG    1        1.151   3.592   0.010  0.00  0.00    +0.390 C 
BRANCH   6   7
ATOM      7  C   LIG    1        1.171   2.086   0.002  0.00  0.00    -0.090 A 
ATOM      8  C   LIG    1       -0.017   1.378   0.010  0.00  0.00    +0.030 A 
ATOM      9  C   LIG    1        0.002  -0.004   0.002  0.00  0.00    +0.020 A 
ATOM     10  C   LIG    1        1.208  -0.679  -0.013  0.00  0.00    +0.020 A 
ATOM     11  C   LIG    1        2.396   0.029  -0.021  0.00  0.00    +0.020 A 
ATOM     12  C   LIG    1        2.377   1.411  -0.015  0.00  0.00    +0.010 A 
ENDBRANCH   6   7
BRANCH   6  13
ATOM     13  C   LIG    1        1.403   4.091   1.409  0.00  0.00    -0.190 A 
ATOM     14  C   LIG    1        0.463   4.508   2.259  0.00  0.00    +0.020 A 
ATOM     15  C   LIG    1        0.934   4.922   3.493  0.00  0.00    +0.010 A 
ATOM     16  C   LIG    1        2.257   4.840   3.646  0.00  0.00    -0.050 A 
ATOM     17  S   LIG    1        2.983   4.204   2.175  0.00  0.00    +0.100 S 
ENDBRANCH   6  13
ENDBRANCH   4   6
ENDBRANCH   1   3
BRANCH   1  18
ATOM     18  S   LIG    1        2.692   7.505  -2.934  0.00  0.00    +0.120 S 
BRANCH  18  19
ATOM     19  C   LIG    1        4.041   7.942  -3.979  0.00  0.00    +0.200 A 
ATOM     20  N   LIG    1        5.090   7.194  -4.227  0.00  0.00    -0.310 NA
ATOM     21  N   LIG    1        5.909   7.922  -5.105  0.00  0.00    -0.460 N 
ATOM     22  H   LIG    1        6.759   7.638  -5.476  0.00  0.00    +0.450 HD
ATOM     23  C   LIG    1        5.286   9.092  -5.325  0.00  0.00    +0.300 A 
ATOM     24  N   LIG    1        4.168   9.094  -4.646  0.00  0.00    -0.500 NA
BRANCH  23  25
ATOM     25  C   LIG    1        5.789  10.209  -6.203  0.00  0.00    +0.360 C 
BRANCH  25  26
ATOM     26  O   LIG    1        7.044   9.837  -6.776  0.00  0.00    -0.320 OA
BRANCH  26  27
ATOM     27  C   LIG    1        7.639  10.740  -7.599  0.00  0.00    +0.130 A 
ATOM     28  C   LIG    1        7.023  11.957  -7.856  0.00  0.00    -0.050 A 
ATOM     29  C   LIG    1        7.631  12.875  -8.690  0.00  0.00    +0.070 A 
ATOM     30  C   LIG    1        8.848  12.578  -9.277  0.00  0.00    -0.070 A 
ATOM     31  C   LIG    1        9.461  11.363  -9.026  0.00  0.00    +0.070 A 
ATOM     32 CL   LIG    1        9.607  13.731 -10.329  0.00  0.00    -0.060 Cl
ATOM     33  C   LIG    1        8.859  10.444  -8.189  0.00  0.00    +0.010 A 
ENDBRANCH  26  27
ENDBRANCH  25  26
ENDBRANCH  23  25
ENDBRANCH  18  19
ENDBRANCH   1  18
TORSDOF 9
