REMARK  Name = ZINCnE00000dnUm8.0
REMARK                            x       y       z     vdW  Elec       q    Type
REMARK                         _______ _______ _______ _____ _____    ______ ____
ROOT
ATOM      1  C   LIG    1        1.760  -5.003  -2.822  0.00  0.00    -0.100 A 
ATOM      2  C   LIG    1        1.254  -4.292  -3.911  0.00  0.00    +0.040 A 
ATOM      3  C   LIG    1        0.914  -2.961  -3.762  0.00  0.00    +0.080 A 
ATOM      4  C   LIG    1        1.075  -2.337  -2.537  0.00  0.00    -0.010 A 
ATOM      5  C   LIG    1        1.577  -3.037  -1.450  0.00  0.00    -0.130 A 
ATOM      6  C   LIG    1        1.840  -2.582  -0.030  0.00  0.00    +0.290 C 
ATOM      7  C   LIG    1        2.785  -3.647   0.566  0.00  0.00    +0.050 C 
ATOM      8  C   LIG    1        2.439  -4.899  -0.268  0.00  0.00    +0.120 C 
ATOM      9  F   LIG    1        0.424  -2.268  -4.813  0.00  0.00    -0.140 F 
ATOM     10  C   LIG    1        1.920  -4.365  -1.586  0.00  0.00    -0.050 A 
ENDROOT
BRANCH   1  12
ATOM     11  O   LIG    1        1.986  -6.980  -4.053  0.00  0.00    -0.680 OA
ATOM     12  C   LIG    1        2.126  -6.424  -2.973  0.00  0.00    +0.520 C 
ATOM     13  O   LIG    1        2.569  -7.046  -2.018  0.00  0.00    -0.670 OA
ENDBRANCH   1  12
BRANCH   6  14
ATOM     14  N   LIG    1        2.489  -1.269  -0.029  0.00  0.00    -0.640 N 
ATOM     15  H   LIG    1        3.457  -1.206  -0.038  0.00  0.00    +0.420 HD
BRANCH  14  16
ATOM     16  C   LIG    1        1.721  -0.118  -0.015  0.00  0.00    +0.350 A 
ATOM     17  N   LIG    1        2.145   1.128  -0.012  0.00  0.00    -0.560 NA
ATOM     18  C   LIG    1        1.226   2.066   0.001  0.00  0.00    +0.230 A 
ATOM     19  N   LIG    1       -0.021   1.695   0.011  0.00  0.00    -0.470 NA
ATOM     20  S   LIG    1        0.002  -0.004   0.002  0.00  0.00    +0.260 S 
BRANCH  18  21
ATOM     21  C   LIG    1        1.604   3.525   0.005  0.00  0.00    +0.570 C 
ATOM     22  F   LIG    1        2.039   3.897  -1.271  0.00  0.00    -0.160 F 
ATOM     23  F   LIG    1        2.633   3.737   0.929  0.00  0.00    -0.160 F 
ATOM     24  F   LIG    1        0.491   4.294   0.361  0.00  0.00    -0.160 F 
ENDBRANCH  18  21
ENDBRANCH  14  16
ENDBRANCH   6  14
TORSDOF 4
