REMARK  Name = ZINCvU00000009fS.0
REMARK                            x       y       z     vdW  Elec       q    Type
REMARK                         _______ _______ _______ _____ _____    ______ ____
ROOT
ATOM      1  C   LIG    1       -3.058  -6.611  -0.232  0.00  0.00    +0.560 C 
ATOM      2  N   LIG    1       -4.165  -7.354  -0.427  0.00  0.00    -0.610 N 
ATOM      3  C   LIG    1       -5.489  -6.722  -0.492  0.00  0.00    +0.280 C 
ATOM      4  C   LIG    1       -6.416  -7.404   0.513  0.00  0.00    +0.040 C 
ATOM      5  C   LIG    1       -6.425  -8.912   0.254  0.00  0.00    +0.090 C 
ATOM      6  C   LIG    1       -5.013  -9.472   0.439  0.00  0.00    +0.040 C 
ATOM      7  C   LIG    1       -4.070  -8.813  -0.573  0.00  0.00    +0.280 C 
ATOM      8  O   LIG    1       -1.981  -7.153  -0.076  0.00  0.00    -0.520 OA
ENDROOT
BRANCH   5   9
ATOM      9  C   LIG    1       -7.362  -9.583   1.225  0.00  0.00    +0.100 A 
ATOM     10  N   LIG    1       -7.228  -9.545   2.497  0.00  0.00    -0.460 NA
ATOM     11  C   LIG    1       -8.145 -10.188   3.245  0.00  0.00    +0.080 A 
ATOM     12  C   LIG    1       -8.242 -10.305   4.646  0.00  0.00    +0.070 A 
ATOM     13  C   LIG    1       -9.258 -11.015   5.210  0.00  0.00    +0.030 A 
ATOM     14  C   LIG    1      -10.215 -11.635   4.420  0.00  0.00    +0.040 A 
ATOM     15  C   LIG    1      -10.146 -11.537   3.049  0.00  0.00    +0.060 A 
ATOM     16  C   LIG    1       -9.114 -10.816   2.454  0.00  0.00    -0.180 A 
ATOM     17  S   LIG    1       -8.731 -10.493   0.766  0.00  0.00    +0.100 S 
ENDBRANCH   5   9
BRANCH   1  22
ATOM     18  C   LIG    1       -2.398  -3.010   0.629  0.00  0.00    +0.140 A 
ATOM     19  C   LIG    1       -3.342  -2.368  -0.165  0.00  0.00    +0.010 A 
ATOM     20  C   LIG    1       -4.181  -3.104  -0.981  0.00  0.00    +0.030 A 
ATOM     21  C   LIG    1       -4.094  -4.481  -1.005  0.00  0.00    +0.030 A 
ATOM     22  C   LIG    1       -3.153  -5.135  -0.208  0.00  0.00    -0.110 A 
ATOM     23  C   LIG    1       -2.303  -4.393   0.612  0.00  0.00    +0.090 A 
BRANCH  18  26
ATOM     24  O   LIG    1        0.103  -3.726   1.193  0.00  0.00    -0.500 OA
ATOM     25  C   LIG    1       -0.279  -2.665   1.652  0.00  0.00    +0.590 C 
ATOM     26  N   LIG    1       -1.548  -2.260   1.449  0.00  0.00    -0.670 N 
ATOM     27  H   LIG    1       -1.873  -1.450   1.871  0.00  0.00    +0.410 HD
BRANCH  25  28
ATOM     28  C   LIG    1        0.642  -1.827   2.425  0.00  0.00    -0.280 A 
ATOM     29  C   LIG    1        1.948  -2.127   2.697  0.00  0.00    +0.120 A 
ATOM     30  C   LIG    1        2.582  -1.163   3.444  0.00  0.00    +0.000 A 
ATOM     31  C   LIG    1        1.825  -0.109   3.772  0.00  0.00    -0.050 A 
ATOM     32  S   LIG    1        0.246  -0.275   3.149  0.00  0.00    +0.200 S 
ENDBRANCH  25  28
ENDBRANCH  18  26
ENDBRANCH   1  22
TORSDOF 4
