REMARK  Name = ZINCpk00000y6xIw.0
REMARK                            x       y       z     vdW  Elec       q    Type
REMARK                         _______ _______ _______ _____ _____    ______ ____
ROOT
ATOM      1  O   LIG    1        4.165  -0.126   1.534  0.00  0.00    -0.510 OA
ATOM      2  C   LIG    1        4.929  -0.968   1.112  0.00  0.00    +0.520 C 
ATOM      3  N   LIG    1        5.955  -1.392   1.877  0.00  0.00    -0.730 N 
ATOM      4  H   LIG    1        6.566  -2.065   1.540  0.00  0.00    +0.400 HD
ENDROOT
BRANCH   2   5
ATOM      5  C   LIG    1        4.732  -1.540  -0.268  0.00  0.00    +0.100 C 
ATOM      6  C   LIG    1        5.536  -0.722  -1.282  0.00  0.00    +0.250 C 
ATOM      7  O   LIG    1        5.286  -1.224  -2.598  0.00  0.00    -0.380 OA
ATOM      8  C   LIG    1        3.908  -1.185  -2.976  0.00  0.00    +0.220 C 
ATOM      9  C   LIG    1        3.087  -2.009  -1.980  0.00  0.00    +0.160 C 
ATOM     10  N   LIG    1        3.307  -1.486  -0.623  0.00  0.00    -0.510 NA
BRANCH  10  11
ATOM     11  C   LIG    1        2.492  -2.214   0.359  0.00  0.00    +0.170 C 
BRANCH  11  12
ATOM     12  C   LIG    1        1.018  -1.845   0.173  0.00  0.00    -0.010 C 
ATOM     13  C   LIG    1        0.064  -2.646   1.075  0.00  0.00    +0.010 C 
ATOM     14  C   LIG    1       -0.720  -1.337   1.273  0.00  0.00    +0.000 C 
ATOM     15  C   LIG    1        0.592  -0.597   0.964  0.00  0.00    +0.030 C 
ENDBRANCH  11  12
ENDBRANCH  10  11
ENDBRANCH   2   5
BRANCH   3  16
ATOM     16  C   LIG    1        6.146  -0.835   3.219  0.00  0.00    +0.280 C 
BRANCH  16  17
ATOM     17  C   LIG    1        7.371  -1.481   3.869  0.00  0.00    +0.130 C 
BRANCH  17  18
ATOM     18  C   LIG    1        7.568  -0.909   5.249  0.00  0.00    +0.060 A 
ATOM     19  C   LIG    1        7.654  -1.622   6.393  0.00  0.00    +0.090 A 
ATOM     20  N   LIG    1        7.831  -0.728   7.414  0.00  0.00    -0.360 N 
ATOM     21  C   LIG    1        7.977  -0.883   8.762  0.00  0.00    +0.210 A 
ATOM     22  C   LIG    1        8.140   0.190   9.563  0.00  0.00    +0.010 A 
ATOM     23  C   LIG    1        8.163   1.485   9.019  0.00  0.00    +0.040 A 
ATOM     24  C   LIG    1        8.018   1.654   7.677  0.00  0.00    +0.070 A 
ATOM     25  C   LIG    1        7.848   0.523   6.853  0.00  0.00    +0.230 A 
ATOM     26  N   LIG    1        7.693   0.388   5.543  0.00  0.00    -0.490 NA
ENDBRANCH  17  18
ENDBRANCH  16  17
ENDBRANCH   3  16
TORSDOF 6
