REMARK  Name = ZINCvU0000000Jol.0
REMARK                            x       y       z     vdW  Elec       q    Type
REMARK                         _______ _______ _______ _____ _____    ______ ____
ROOT
ATOM      1  C   LIG    1        2.921  -0.698   2.313  0.00  0.00    +0.220 C 
ENDROOT
BRANCH   1   2
ATOM      2  C   LIG    1        4.343  -0.207   2.224  0.00  0.00    +0.430 C 
ATOM      3  O   LIG    1        4.678   0.517   1.310  0.00  0.00    -0.450 OA
BRANCH   2   7
ATOM      4  C   LIG    1        6.502  -2.344   6.314  0.00  0.00    +0.130 C 
ATOM      5  C   LIG    1        6.259  -1.557   5.052  0.00  0.00    +0.020 A 
ATOM      6  C   LIG    1        5.085  -1.470   4.403  0.00  0.00    +0.000 A 
ATOM      7  C   LIG    1        5.320  -0.605   3.239  0.00  0.00    -0.270 A 
ATOM      8  C   LIG    1        6.654  -0.248   3.297  0.00  0.00    +0.130 A 
ATOM      9  C   LIG    1        7.377   0.633   2.310  0.00  0.00    +0.150 C 
ATOM     10  N   LIG    1        7.195  -0.820   4.387  0.00  0.00    -0.430 N 
BRANCH  10  11
ATOM     11  C   LIG    1        8.594  -0.678   4.799  0.00  0.00    +0.390 C 
BRANCH  11  12
ATOM     12  C   LIG    1        9.418  -1.768   4.164  0.00  0.00    -0.220 A 
ATOM     13  C   LIG    1       10.022  -1.684   2.977  0.00  0.00    +0.030 A 
ATOM     14  C   LIG    1       10.727  -2.813   2.600  0.00  0.00    +0.000 A 
ATOM     15  C   LIG    1       10.689  -3.818   3.476  0.00  0.00    -0.030 A 
ATOM     16  S   LIG    1        9.724  -3.349   4.870  0.00  0.00    +0.120 S 
ENDBRANCH  11  12
ENDBRANCH  10  11
ENDBRANCH   2   7
ENDBRANCH   1   2
BRANCH   1  17
ATOM     17  O   LIG    1        2.155  -0.169   1.199  0.00  0.00    -0.330 OA
BRANCH  17  18
ATOM     18  C   LIG    1        0.860  -0.514   1.131  0.00  0.00    +0.480 C 
ATOM     19  O   LIG    1        0.382  -1.234   1.975  0.00  0.00    -0.500 OA
BRANCH  18  20
ATOM     20  C   LIG    1        0.002  -0.004   0.002  0.00  0.00    -0.010 C 
ATOM     21  C   LIG    1        0.543  -0.518  -1.348  0.00  0.00    +0.060 C 
ATOM     22  C   LIG    1       -0.301  -1.783  -1.639  0.00  0.00    +0.020 C 
ATOM     23  C   LIG    1       -1.708  -1.379  -1.133  0.00  0.00    +0.020 C 
ATOM     24  C   LIG    1       -1.429  -0.551   0.139  0.00  0.00    +0.060 C 
BRANCH  20  25
ATOM     25  C   LIG    1       -0.018   1.503   0.010  0.00  0.00    -0.040 A 
ATOM     26  C   LIG    1        0.556   2.196   1.059  0.00  0.00    +0.000 A 
ATOM     27  C   LIG    1        0.543   3.578   1.065  0.00  0.00    +0.060 A 
ATOM     28  C   LIG    1       -0.054   4.269   0.028  0.00  0.00    -0.010 A 
ATOM     29  C   LIG    1       -0.635   3.575  -1.020  0.00  0.00    +0.100 A 
ATOM     30  F   LIG    1       -1.220   4.250  -2.035  0.00  0.00    -0.140 F 
ATOM     31  C   LIG    1       -0.617   2.191  -1.028  0.00  0.00    +0.000 A 
ENDBRANCH  20  25
ENDBRANCH  18  20
ENDBRANCH  17  18
ENDBRANCH   1  17
TORSDOF 8
