REMARK  Name = ZINCpk00000Kbngt.0
REMARK                            x       y       z     vdW  Elec       q    Type
REMARK                         _______ _______ _______ _____ _____    ______ ____
ROOT
ATOM      1  O   LIG    1        0.021   0.269   2.346  0.00  0.00    -0.510 OA
ATOM      2  C   LIG    1        0.022  -0.514   1.420  0.00  0.00    +0.510 C 
ATOM      3  N   LIG    1        0.043  -1.840   1.659  0.00  0.00    -0.610 N 
ATOM      4  C   LIG    1        0.039  -2.801   0.548  0.00  0.00    +0.270 C 
ATOM      5  C   LIG    1       -1.108  -3.790   0.749  0.00  0.00    +0.040 C 
ATOM      6  C   LIG    1       -0.990  -4.431   2.133  0.00  0.00    +0.030 C 
ATOM      7  C   LIG    1       -1.090  -3.346   3.209  0.00  0.00    +0.220 C 
ATOM      8  C   LIG    1        0.063  -2.353   3.036  0.00  0.00    +0.290 C 
ENDROOT
BRANCH   7   9
ATOM      9  N   LIG    1       -1.008  -3.964   4.535  0.00  0.00    -0.460 N 
ATOM     10  C   LIG    1       -1.958  -3.903   5.519  0.00  0.00    +0.120 A 
ATOM     11  C   LIG    1       -1.481  -4.606   6.564  0.00  0.00    +0.140 A 
ATOM     12  N   LIG    1       -0.270  -5.076   6.231  0.00  0.00    -0.490 NA
ATOM     13  C   LIG    1        0.020  -4.695   5.016  0.00  0.00    +0.380 A 
ENDBRANCH   7   9
BRANCH   2  14
ATOM     14  C   LIG    1        0.002  -0.004   0.002  0.00  0.00    +0.340 C 
BRANCH  14  15
ATOM     15  N   LIG    1       -0.018   1.461   0.010  0.00  0.00    -0.500 N 
ATOM     16  C   LIG    1       -1.191   2.131   0.019  0.00  0.00    +0.500 A 
ATOM     17  C   LIG    1       -1.177   3.598   0.033  0.00  0.00    +0.300 A 
ATOM     18  N   LIG    1       -0.046   4.243   0.025  0.00  0.00    -0.400 NA
ATOM     19  C   LIG    1        1.129   3.585   0.011  0.00  0.00    +0.020 A 
ATOM     20  C   LIG    1        2.336   4.301   0.003  0.00  0.00    +0.120 A 
ATOM     21  C   LIG    1        3.525   3.632  -0.013  0.00  0.00    +0.000 A 
ATOM     22  C   LIG    1        3.557   2.244  -0.021  0.00  0.00    +0.090 A 
ATOM     23  C   LIG    1        2.386   1.517  -0.013  0.00  0.00    -0.030 A 
ATOM     24  O   LIG    1       -2.247   1.525   0.020  0.00  0.00    -0.510 OA
ATOM     25  C   LIG    1        1.162   2.178   0.003  0.00  0.00    +0.160 A 
ENDBRANCH  14  15
ENDBRANCH   2  14
TORSDOF 3
