REMARK  Name = ZINCpe000027pH2v.0
REMARK                            x       y       z     vdW  Elec       q    Type
REMARK                         _______ _______ _______ _____ _____    ______ ____
ROOT
ATOM      1  C   LIG    1       -5.031   0.714  -5.621  0.00  0.00    +0.110 C 
ENDROOT
BRANCH   1   6
ATOM      2  C   LIG    1       -8.405   2.257  -6.346  0.00  0.00    +0.140 A 
ATOM      3  C   LIG    1       -9.258   1.359  -5.718  0.00  0.00    +0.020 A 
ATOM      4  C   LIG    1       -8.739   0.259  -5.064  0.00  0.00    +0.030 A 
ATOM      5  C   LIG    1       -7.373   0.048  -5.038  0.00  0.00    +0.000 A 
ATOM      6  C   LIG    1       -6.520   0.944  -5.657  0.00  0.00    -0.050 A 
ATOM      7  C   LIG    1       -7.032   2.046  -6.314  0.00  0.00    -0.010 A 
BRANCH   2   9
ATOM      8  C   LIG    1      -10.103   3.280  -7.660  0.00  0.00    +0.540 C 
ATOM      9  N   LIG    1       -8.926   3.372  -7.009  0.00  0.00    -0.670 N 
ATOM     10  H   LIG    1       -8.441   4.212  -7.002  0.00  0.00    +0.410 HD
ATOM     11  O   LIG    1      -10.752   2.253  -7.600  0.00  0.00    -0.520 OA
BRANCH   8  13
ATOM     12  C   LIG    1      -11.764   4.330  -9.083  0.00  0.00    +0.160 C 
ATOM     13  C   LIG    1      -10.603   4.421  -8.441  0.00  0.00    -0.090 C 
ENDBRANCH   8  13
ENDBRANCH   2   9
ENDBRANCH   1   6
BRANCH   1  14
ATOM     14  C   LIG    1       -4.447   1.393  -4.409  0.00  0.00    +0.520 C 
ATOM     15  N   LIG    1       -3.123   1.321  -4.170  0.00  0.00    -0.610 N 
ATOM     16  C   LIG    1       -2.251   0.584  -5.088  0.00  0.00    +0.290 C 
ATOM     17  O   LIG    1       -5.169   2.003  -3.650  0.00  0.00    -0.520 OA
BRANCH  15  18
ATOM     18  C   LIG    1       -2.555   1.981  -2.991  0.00  0.00    +0.250 C 
ATOM     19  C   LIG    1       -1.476   3.018  -3.401  0.00  0.00    +0.030 C 
ATOM     20  C   LIG    1       -0.565   3.079  -2.156  0.00  0.00    +0.270 C 
ATOM     21  N   LIG    1       -0.760   1.826  -1.411  0.00  0.00    -1.010 NA
ATOM     22  C   LIG    1       -1.720   0.983  -2.147  0.00  0.00    +0.270 C 
BRANCH  21  23
ATOM     23  S   LIG    1       -0.019   1.426   0.015  0.00  0.00    +2.630 S 
ATOM     24  O   LIG    1        1.192   2.171   0.001  0.00  0.00    -0.950 OA
ATOM     25  O   LIG    1       -0.005   0.005   0.016  0.00  0.00    -0.950 OA
ATOM     26  C   LIG    1       -1.137   2.054   1.298  0.00  0.00    -0.280 C 
ENDBRANCH  21  23
ENDBRANCH  15  18
ENDBRANCH   1  14
TORSDOF 6
