REMARK  Name = ZINCkj000005lHY6.0
REMARK                            x       y       z     vdW  Elec       q    Type
REMARK                         _______ _______ _______ _____ _____    ______ ____
ROOT
ATOM      1  O   LIG    1        0.465   4.678  -2.154  0.00  0.00    -0.520 OA
ATOM      2  C   LIG    1       -0.690   4.992  -1.959  0.00  0.00    +0.500 C 
ATOM      3  N   LIG    1       -1.550   5.071  -2.994  0.00  0.00    -0.690 N 
ATOM      4  H   LIG    1       -2.452   5.399  -2.850  0.00  0.00    +0.410 HD
ENDROOT
BRANCH   2   5
ATOM      5  C   LIG    1       -1.163   5.292  -0.560  0.00  0.00    +0.180 C 
ATOM      6  C   LIG    1       -1.653   4.001   0.144  0.00  0.00    +0.130 C 
ATOM      7  C   LIG    1       -1.492   4.343   1.643  0.00  0.00    +0.200 C 
ATOM      8  C   LIG    1       -0.452   5.477   1.687  0.00  0.00    +0.250 C 
ATOM      9  N   LIG    1       -0.031   5.735   0.293  0.00  0.00    -0.500 N 
ATOM     10  H   LIG    1        0.798   5.203   0.075  0.00  0.00    +0.440 HD
ATOM     11  H   LIG    1        0.141   6.720   0.158  0.00  0.00    +0.440 HD
BRANCH   7  12
ATOM     12  O   LIG    1       -2.735   4.788   2.189  0.00  0.00    -0.550 OA
ATOM     13  H   LIG    1       -2.688   5.037   3.122  0.00  0.00    +0.400 HD
ENDBRANCH   7  12
ENDBRANCH   2   5
BRANCH   3  14
ATOM     14  C   LIG    1       -1.124   4.662  -4.334  0.00  0.00    +0.330 C 
BRANCH  14  15
ATOM     15  C   LIG    1       -2.252   4.930  -5.332  0.00  0.00    -0.120 C 
ATOM     16  C   LIG    1       -1.882   5.001  -6.815  0.00  0.00    +0.080 C 
ATOM     17  C   LIG    1       -2.250   6.279  -6.056  0.00  0.00    +0.040 C 
BRANCH  15  18
ATOM     18  C   LIG    1       -3.590   4.333  -4.977  0.00  0.00    -0.030 A 
ATOM     19  C   LIG    1       -4.636   5.155  -4.603  0.00  0.00    +0.010 A 
ATOM     20  C   LIG    1       -5.864   4.608  -4.282  0.00  0.00    +0.030 A 
ATOM     21  C   LIG    1       -6.044   3.238  -4.324  0.00  0.00    +0.030 A 
ATOM     22  C   LIG    1       -4.996   2.415  -4.692  0.00  0.00    +0.050 A 
ATOM     23  C   LIG    1       -3.769   2.962  -5.019  0.00  0.00    -0.080 A 
ATOM     24 BR   LIG    1       -2.335   1.837  -5.523  0.00  0.00    -0.040 Br
ENDBRANCH  15  18
ENDBRANCH  14  15
ENDBRANCH   3  14
TORSDOF 5
