REMARK  Name = ZINCrD00000F5LqJ.0
REMARK                            x       y       z     vdW  Elec       q    Type
REMARK                         _______ _______ _______ _____ _____    ______ ____
ROOT
ATOM      1  C   LIG    1        0.188   6.040  -0.433  0.00  0.00    +0.290 C 
ATOM      2  C   LIG    1        1.357   5.709  -1.091  0.00  0.00    -0.120 C 
ATOM      3  N   LIG    1        2.051   6.478  -1.980  0.00  0.00    -0.450 NA
ATOM      4  C   LIG    1        3.103   5.820  -2.382  0.00  0.00    +0.320 C 
ATOM      5  O   LIG    1        3.171   4.601  -1.811  0.00  0.00    -0.290 OA
ATOM      6  C   LIG    1        2.112   4.450  -0.987  0.00  0.00    +0.480 C 
ATOM      7  O   LIG    1        1.841   3.481  -0.303  0.00  0.00    -0.420 OA
ENDROOT
BRANCH   4   8
ATOM      8  C   LIG    1        4.091   6.342  -3.345  0.00  0.00    -0.090 A 
ATOM      9  C   LIG    1        5.189   5.562  -3.716  0.00  0.00    +0.140 A 
ATOM     10  C   LIG    1        6.106   6.052  -4.621  0.00  0.00    -0.010 A 
ATOM     11  C   LIG    1        5.948   7.322  -5.154  0.00  0.00    +0.160 A 
ATOM     12  C   LIG    1        4.865   8.105  -4.787  0.00  0.00    -0.040 A 
ATOM     13  F   LIG    1        6.854   7.799  -6.036  0.00  0.00    -0.120 F 
ATOM     14  C   LIG    1        3.936   7.623  -3.886  0.00  0.00    +0.190 A 
ATOM     15  F   LIG    1        2.880   8.386  -3.528  0.00  0.00    -0.100 F 
ENDBRANCH   4   8
BRANCH   1  21
ATOM     16  C   LIG    1       -1.064   5.375   1.611  0.00  0.00    +0.180 A 
ATOM     17  C   LIG    1       -1.726   4.416   2.355  0.00  0.00    -0.130 A 
ATOM     18  C   LIG    1       -1.850   3.122   1.872  0.00  0.00    +0.180 A 
ATOM     19  C   LIG    1       -1.308   2.777   0.632  0.00  0.00    +0.060 A 
ATOM     20  C   LIG    1       -0.640   3.720  -0.119  0.00  0.00    +0.070 A 
ATOM     21  C   LIG    1       -0.514   5.034   0.360  0.00  0.00    -0.150 A 
BRANCH  16  23
ATOM     22  C   LIG    1       -1.526   6.915   3.360  0.00  0.00    +0.250 C 
ATOM     23  O   LIG    1       -0.943   6.641   2.084  0.00  0.00    -0.310 OA
ENDBRANCH  16  23
BRANCH  19  24
ATOM     24  O   LIG    1       -1.434   1.504   0.167  0.00  0.00    -0.300 OA
ATOM     25  C   LIG    1       -0.856   1.220  -1.109  0.00  0.00    +0.230 C 
ENDBRANCH  19  24
BRANCH  18  26
ATOM     26  O   LIG    1       -2.501   2.185   2.608  0.00  0.00    -0.290 OA
ATOM     27  C   LIG    1       -3.032   2.603   3.867  0.00  0.00    +0.250 C 
ENDBRANCH  18  26
ENDBRANCH   1  21
TORSDOF 5
