REMARK  Name = ZINCtV000002w0MX.0
REMARK                            x       y       z     vdW  Elec       q    Type
REMARK                         _______ _______ _______ _____ _____    ______ ____
ROOT
ATOM      1  C   LIG    1       -3.506   2.990   0.122  0.00  0.00    +0.120 A 
ATOM      2  C   LIG    1       -3.337   1.611   0.181  0.00  0.00    +0.010 A 
ATOM      3  C   LIG    1       -4.435   0.781   0.215  0.00  0.00    +0.070 A 
ATOM      4  C   LIG    1       -5.721   1.326   0.178  0.00  0.00    -0.140 A 
ATOM      5  C   LIG    1       -5.888   2.712   0.113  0.00  0.00    +0.110 A 
ATOM      6  C   LIG    1       -4.784   3.535   0.085  0.00  0.00    +0.000 A 
ENDROOT
BRANCH   4   7
ATOM      7  C   LIG    1       -6.901   0.440   0.207  0.00  0.00    +0.560 C 
ATOM      8  N   LIG    1       -6.739  -0.896   0.269  0.00  0.00    -0.660 N 
ATOM      9  H   LIG    1       -5.850  -1.273   0.359  0.00  0.00    +0.410 HD
ATOM     10  O   LIG    1       -8.020   0.916   0.174  0.00  0.00    -0.510 OA
BRANCH   8  11
ATOM     11  C   LIG    1       -7.854  -1.741   0.204  0.00  0.00    +0.110 A 
ATOM     12  C   LIG    1       -7.763  -2.970  -0.436  0.00  0.00    +0.030 A 
ATOM     13  C   LIG    1       -8.861  -3.801  -0.503  0.00  0.00    +0.010 A 
ATOM     14  C   LIG    1      -10.071  -3.417   0.069  0.00  0.00    +0.100 A 
ATOM     15  O   LIG    1      -11.267  -4.069   0.102  0.00  0.00    -0.300 OA
ATOM     16  C   LIG    1      -12.083  -3.510   1.145  0.00  0.00    +0.200 C 
ATOM     17  C   LIG    1      -11.567  -2.055   1.240  0.00  0.00    +0.070 C 
ATOM     18  C   LIG    1      -11.864  -4.250   2.466  0.00  0.00    +0.040 C 
ATOM     19  C   LIG    1      -10.151  -2.188   0.713  0.00  0.00    -0.150 A 
ATOM     20  C   LIG    1       -9.057  -1.356   0.785  0.00  0.00    +0.070 A 
ENDBRANCH   8  11
ENDBRANCH   4   7
BRANCH   1  21
ATOM     21  O   LIG    1       -2.421   3.804   0.095  0.00  0.00    -0.260 OA
BRANCH  21  25
ATOM     22  C   LIG    1       -1.451   5.853   3.542  0.00  0.00    -0.110 A 
ATOM     23  C   LIG    1       -2.603   5.090   3.494  0.00  0.00    +0.050 A 
ATOM     24  C   LIG    1       -2.928   4.398   2.343  0.00  0.00    -0.060 A 
ATOM     25  C   LIG    1       -2.102   4.479   1.231  0.00  0.00    +0.110 A 
ATOM     26  C   LIG    1       -0.946   5.245   1.282  0.00  0.00    -0.010 A 
ATOM     27  C   LIG    1       -0.624   5.930   2.437  0.00  0.00    +0.050 A 
BRANCH  22  28
ATOM     28  C   LIG    1       -1.097   6.601   4.801  0.00  0.00    +0.060 C 
BRANCH  28  30
ATOM     29  C   LIG    1        0.121   6.470   6.979  0.00  0.00    +0.010 C 
ATOM     30  C   LIG    1       -0.238   5.710   5.700  0.00  0.00    +0.000 C 
ENDBRANCH  28  30
ENDBRANCH  22  28
ENDBRANCH  21  25
ENDBRANCH   1  21
TORSDOF 6
