REMARK  Name = ZINCrm000000FHwD.0
REMARK                            x       y       z     vdW  Elec       q    Type
REMARK                         _______ _______ _______ _____ _____    ______ ____
ROOT
ATOM      1  N   LIG    1       -0.853   1.667   3.540  0.00  0.00    -0.730 N 
ATOM      2  H   LIG    1       -1.650   2.214   3.462  0.00  0.00    +0.410 HD
ATOM      3  C   LIG    1       -0.222   1.232   2.431  0.00  0.00    +0.710 C 
ATOM      4  N   LIG    1       -0.698   1.558   1.213  0.00  0.00    -0.740 N 
ATOM      5  H   LIG    1       -1.495   2.106   1.135  0.00  0.00    +0.410 HD
ATOM      6  O   LIG    1        0.777   0.546   2.530  0.00  0.00    -0.570 OA
ENDROOT
BRANCH   1  10
ATOM      7  C   LIG    1        0.556   1.762   7.982  0.00  0.00    +0.100 C 
ATOM      8  C   LIG    1       -0.762   1.539   7.237  0.00  0.00    +0.060 C 
ATOM      9  C   LIG    1       -0.769   2.355   5.928  0.00  0.00    +0.090 C 
ATOM     10  C   LIG    1       -0.335   1.313   4.864  0.00  0.00    +0.280 C 
ATOM     11  C   LIG    1       -1.008   0.023   5.396  0.00  0.00    +0.250 C 
ATOM     12  C   LIG    1       -1.939   1.960   8.120  0.00  0.00    +0.100 C 
ATOM     13  N   LIG    1       -0.895   0.118   6.867  0.00  0.00    -0.380 N 
ATOM     14  H   LIG    1       -0.082  -0.392   7.179  0.00  0.00    +0.430 HD
BRANCH  13  15
ATOM     15  C   LIG    1       -2.101  -0.444   7.490  0.00  0.00    +0.320 C 
BRANCH  15  16
ATOM     16  C   LIG    1       -2.300  -1.859   7.012  0.00  0.00    -0.160 A 
ATOM     17  C   LIG    1       -3.056  -2.107   5.881  0.00  0.00    +0.020 A 
ATOM     18  C   LIG    1       -3.234  -3.405   5.440  0.00  0.00    +0.020 A 
ATOM     19  C   LIG    1       -2.666  -4.455   6.135  0.00  0.00    +0.060 A 
ATOM     20  C   LIG    1       -1.915  -4.208   7.269  0.00  0.00    +0.030 A 
ATOM     21  C   LIG    1       -1.732  -2.910   7.707  0.00  0.00    +0.040 A 
ENDBRANCH  15  16
ENDBRANCH  13  15
ENDBRANCH   1  10
BRANCH   4  22
ATOM     22  C   LIG    1       -0.013   1.086   0.008  0.00  0.00    +0.300 C 
BRANCH  22  23
ATOM     23  C   LIG    1       -0.753   1.593  -1.232  0.00  0.00    +0.260 C 
BRANCH  23  24
ATOM     24  N   LIG    1       -0.065   1.119  -2.440  0.00  0.00    -0.390 N 
ATOM     25  C   LIG    1        1.239   1.812  -2.601  0.00  0.00    +0.260 C 
ATOM     26  C   LIG    1        1.571   1.673  -4.103  0.00  0.00    +0.080 C 
ATOM     27  C   LIG    1        0.209   1.466  -4.796  0.00  0.00    +0.010 C 
ATOM     28  C   LIG    1       -0.831   1.497  -3.656  0.00  0.00    +0.280 C 
ATOM     29  H   LIG    1        0.066   0.119  -2.402  0.00  0.00    +0.430 HD
BRANCH  27  30
ATOM     30  C   LIG    1       -0.059   2.598  -5.790  0.00  0.00    +0.200 C 
BRANCH  30  31
ATOM     31  O   LIG    1        0.839   2.482  -6.896  0.00  0.00    -0.570 OA
ATOM     32  H   LIG    1        0.726   3.169  -7.568  0.00  0.00    +0.400 HD
ENDBRANCH  30  31
ENDBRANCH  27  30
ENDBRANCH  23  24
ENDBRANCH  22  23
ENDBRANCH   4  22
TORSDOF 8
