REMARK  Name = ZINCrm000000FHwD.1
REMARK                            x       y       z     vdW  Elec       q    Type
REMARK                         _______ _______ _______ _____ _____    ______ ____
ROOT
ATOM      1  N   LIG    1       -2.298   5.749   3.645  0.00  0.00    -0.730 N 
ATOM      2  H   LIG    1       -2.581   5.123   4.330  0.00  0.00    +0.410 HD
ATOM      3  C   LIG    1       -1.688   5.299   2.531  0.00  0.00    +0.710 C 
ATOM      4  N   LIG    1       -1.470   3.979   2.369  0.00  0.00    -0.740 N 
ATOM      5  H   LIG    1       -1.752   3.353   3.054  0.00  0.00    +0.410 HD
ATOM      6  O   LIG    1       -1.334   6.084   1.672  0.00  0.00    -0.570 OA
ENDROOT
BRANCH   1  10
ATOM      7  C   LIG    1       -2.976   8.251   7.148  0.00  0.00    +0.100 C 
ATOM      8  C   LIG    1       -3.168   8.647   5.683  0.00  0.00    +0.060 C 
ATOM      9  C   LIG    1       -3.646   7.431   4.868  0.00  0.00    +0.090 C 
ATOM     10  C   LIG    1       -2.535   7.184   3.821  0.00  0.00    +0.280 C 
ATOM     11  C   LIG    1       -1.300   7.870   4.459  0.00  0.00    +0.250 C 
ATOM     12  C   LIG    1       -4.189   9.782   5.579  0.00  0.00    +0.100 C 
ATOM     13  N   LIG    1       -1.877   9.077   5.104  0.00  0.00    -0.390 N 
ATOM     14  H   LIG    1       -2.027   9.800   4.416  0.00  0.00    +0.430 HD
BRANCH  13  15
ATOM     15  C   LIG    1       -0.982   9.562   6.162  0.00  0.00    +0.330 C 
BRANCH  15  16
ATOM     16  C   LIG    1        0.301  10.060   5.547  0.00  0.00    -0.160 A 
ATOM     17  C   LIG    1        1.365   9.194   5.372  0.00  0.00    +0.020 A 
ATOM     18  C   LIG    1        2.539   9.650   4.802  0.00  0.00    +0.020 A 
ATOM     19  C   LIG    1        2.654  10.973   4.419  0.00  0.00    +0.060 A 
ATOM     20  C   LIG    1        1.592  11.839   4.600  0.00  0.00    +0.030 A 
ATOM     21  C   LIG    1        0.416  11.383   5.164  0.00  0.00    +0.040 A 
ENDBRANCH  15  16
ENDBRANCH  13  15
ENDBRANCH   1  10
BRANCH   4  22
ATOM     22  C   LIG    1       -0.806   3.489   1.158  0.00  0.00    +0.290 C 
BRANCH  22  23
ATOM     23  C   LIG    1       -0.683   1.966   1.224  0.00  0.00    +0.260 C 
BRANCH  23  24
ATOM     24  N   LIG    1       -0.018   1.475   0.010  0.00  0.00    -0.390 N 
ATOM     25  C   LIG    1        1.405   1.899  -0.001  0.00  0.00    +0.270 C 
ATOM     26  C   LIG    1        2.070   0.885  -0.966  0.00  0.00    +0.080 C 
ATOM     27  C   LIG    1        1.333  -0.434  -0.643  0.00  0.00    +0.010 C 
ATOM     28  C   LIG    1        0.002  -0.004   0.002  0.00  0.00    +0.280 C 
ATOM     29  H   LIG    1       -0.491   1.821  -0.811  0.00  0.00    +0.430 HD
BRANCH  27  30
ATOM     30  C   LIG    1        1.070  -1.226  -1.925  0.00  0.00    +0.190 C 
BRANCH  30  31
ATOM     31  O   LIG    1        2.308  -1.715  -2.446  0.00  0.00    -0.570 OA
ATOM     32  H   LIG    1        2.217  -2.228  -3.260  0.00  0.00    +0.400 HD
ENDBRANCH  30  31
ENDBRANCH  27  30
ENDBRANCH  23  24
ENDBRANCH  22  23
ENDBRANCH   4  22
TORSDOF 8
