REMARK  Name = ZINCqH0000004Bgz.0
REMARK                            x       y       z     vdW  Elec       q    Type
REMARK                         _______ _______ _______ _____ _____    ______ ____
ROOT
ATOM      1  C   LIG    1       -6.128  -0.412   1.309  0.00  0.00    +0.130 A 
ATOM      2  N   LIG    1       -7.160   0.191   0.792  0.00  0.00    -0.450 NA
ATOM      3  C   LIG    1       -8.320  -0.415   0.896  0.00  0.00    +0.070 A 
ATOM      4  C   LIG    1       -8.307  -1.594   1.528  0.00  0.00    -0.040 A 
ATOM      5  S   LIG    1       -6.649  -1.938   2.018  0.00  0.00    +0.130 S 
ENDROOT
BRANCH   1   9
ATOM      6  C   LIG    1       -2.143   1.058   1.278  0.00  0.00    -0.060 A 
ATOM      7  C   LIG    1       -3.155   1.800   0.696  0.00  0.00    +0.010 A 
ATOM      8  C   LIG    1       -4.451   1.325   0.698  0.00  0.00    +0.080 A 
ATOM      9  C   LIG    1       -4.741   0.099   1.298  0.00  0.00    -0.040 A 
ATOM     10  C   LIG    1       -3.716  -0.642   1.887  0.00  0.00    +0.040 A 
ATOM     11  C   LIG    1       -2.424  -0.159   1.874  0.00  0.00    +0.010 A 
BRANCH   6  13
ATOM     12  C   LIG    1       -0.013   1.086   0.008  0.00  0.00    +0.030 C 
ATOM     13  C   LIG    1       -0.729   1.579   1.267  0.00  0.00    +0.070 C 
ENDBRANCH   6  13
ENDBRANCH   1   9
BRANCH   3  14
ATOM     14  C   LIG    1       -9.587   0.180   0.338  0.00  0.00    -0.220 C 
BRANCH  14  15
ATOM     15  S   LIG    1       -9.813  -0.376  -1.373  0.00  0.00    +2.420 S 
ATOM     16  O   LIG    1      -10.029  -1.781  -1.369  0.00  0.00    -0.910 OA
ATOM     17  O   LIG    1       -8.765   0.162  -2.167  0.00  0.00    -0.900 OA
BRANCH  15  18
ATOM     18  C   LIG    1      -11.365   0.445  -1.832  0.00  0.00    -0.200 C 
BRANCH  18  19
ATOM     19  C   LIG    1      -11.719   0.091  -3.253  0.00  0.00    +0.170 A 
ATOM     20  N   LIG    1      -11.365   0.744  -4.319  0.00  0.00    -0.360 NA
ATOM     21  O   LIG    1      -11.807   0.203  -5.310  0.00  0.00    +0.090 OA
ATOM     22  C   LIG    1      -12.515  -0.875  -4.959  0.00  0.00    +0.220 A 
ATOM     23  N   LIG    1      -12.465  -0.955  -3.651  0.00  0.00    -0.460 NA
BRANCH  22  24
ATOM     24  C   LIG    1      -13.234  -1.819  -5.889  0.00  0.00    +0.070 C 
ATOM     25  C   LIG    1      -12.993  -1.652  -7.390  0.00  0.00    +0.070 C 
ATOM     26  C   LIG    1      -14.332  -1.234  -6.779  0.00  0.00    +0.070 C 
ENDBRANCH  22  24
ENDBRANCH  18  19
ENDBRANCH  15  18
ENDBRANCH  14  15
ENDBRANCH   3  14
TORSDOF 7
