REMARK  Name = ZINCqH0000002xQA.0
REMARK                            x       y       z     vdW  Elec       q    Type
REMARK                         _______ _______ _______ _____ _____    ______ ____
ROOT
ATOM      1  N   LIG    1        1.216   7.008   3.478  0.00  0.00    -0.530 N 
ATOM      2  C   LIG    1        1.875   8.115   3.062  0.00  0.00    +0.550 A 
ATOM      3  C   LIG    1        3.000   7.929   2.136  0.00  0.00    -0.200 A 
ATOM      4  C   LIG    1        3.739   9.007   1.652  0.00  0.00    +0.100 A 
ATOM      5  C   LIG    1        4.785   8.778   0.785  0.00  0.00    +0.000 A 
ATOM      6  C   LIG    1        5.107   7.486   0.391  0.00  0.00    +0.070 A 
ATOM      7  C   LIG    1        4.391   6.407   0.856  0.00  0.00    +0.030 A 
ATOM      8  C   LIG    1        3.325   6.612   1.737  0.00  0.00    +0.160 A 
ATOM      9  N   LIG    1        2.598   5.578   2.222  0.00  0.00    -0.530 NA
ATOM     10  O   LIG    1        1.546   9.224   3.442  0.00  0.00    -0.500 OA
ATOM     11  C   LIG    1        1.596   5.771   3.043  0.00  0.00    +0.370 A 
ENDROOT
BRANCH   1  12
ATOM     12  C   LIG    1        0.087   7.139   4.403  0.00  0.00    +0.300 C 
BRANCH  12  13
ATOM     13  C   LIG    1        0.597   7.068   5.843  0.00  0.00    +0.000 C 
BRANCH  13  15
ATOM     14  C   LIG    1       -0.073   7.134   8.250  0.00  0.00    +0.020 C 
ATOM     15  C   LIG    1       -0.583   7.205   6.809  0.00  0.00    +0.020 C 
ENDBRANCH  13  15
ENDBRANCH  12  13
ENDBRANCH   1  12
BRANCH  11  16
ATOM     16  S   LIG    1        0.700   4.367   3.619  0.00  0.00    +0.030 S 
BRANCH  16  17
ATOM     17  C   LIG    1        1.595   3.049   2.761  0.00  0.00    +0.240 C 
BRANCH  17  18
ATOM     18  C   LIG    1        0.987   1.716   3.113  0.00  0.00    +0.170 A 
ATOM     19  N   LIG    1        1.332   0.947   4.109  0.00  0.00    -0.260 NA
ATOM     20  N   LIG    1        0.604  -0.113   4.110  0.00  0.00    -0.290 NA
ATOM     21  C   LIG    1       -0.243  -0.066   3.119  0.00  0.00    +0.190 A 
ATOM     22  C   LIG    1       -1.275  -1.108   2.775  0.00  0.00    +0.200 C 
ATOM     23  N   LIG    1       -0.020   1.094   2.454  0.00  0.00    -0.460 N 
BRANCH  23  24
ATOM     24  C   LIG    1       -0.729   1.579   1.267  0.00  0.00    +0.300 C 
BRANCH  24  25
ATOM     25  C   LIG    1       -0.013   1.086   0.008  0.00  0.00    +0.000 C 
ATOM     26  C   LIG    1       -0.753   1.593  -1.232  0.00  0.00    +0.040 C 
ENDBRANCH  24  25
ENDBRANCH  23  24
ENDBRANCH  17  18
ENDBRANCH  16  17
ENDBRANCH  11  16
TORSDOF 8
