REMARK  Name = ZINCrD00000F5LyU.0
REMARK                            x       y       z     vdW  Elec       q    Type
REMARK                         _______ _______ _______ _____ _____    ______ ____
ROOT
ATOM      1  N   LIG    1        3.446   2.154  -0.009  0.00  0.00    -0.580 N 
ENDROOT
BRANCH   1   2
ATOM      2  C   LIG    1        2.322   1.372   0.203  0.00  0.00    +0.450 A 
ATOM      3  C   LIG    1        2.411  -0.022   0.171  0.00  0.00    -0.110 A 
ATOM      4  C   LIG    1        1.263  -0.762   0.389  0.00  0.00    +0.360 A 
ATOM      5  N   LIG    1        0.122  -0.133   0.620  0.00  0.00    -0.520 NA
ATOM      6  C   LIG    1        0.067   1.192   0.645  0.00  0.00    +0.440 A 
ATOM      7  N   LIG    1        1.144   1.937   0.441  0.00  0.00    -0.540 NA
BRANCH   6   8
ATOM      8  C   LIG    1       -1.190   1.834   0.892  0.00  0.00    +0.280 C 
ATOM      9  N   LIG    1       -2.186   2.343   1.089  0.00  0.00    -0.360 NA
ENDBRANCH   6   8
ENDBRANCH   1   2
BRANCH   1  10
ATOM     10  C   LIG    1        4.717   1.524  -0.378  0.00  0.00    +0.390 C 
BRANCH  10  17
ATOM     11  C   LIG    1        6.977  -0.019  -1.976  0.00  0.00    +0.150 C 
ATOM     12  C   LIG    1        5.751   0.621  -2.574  0.00  0.00    +0.090 A 
ATOM     13  N   LIG    1        5.435   0.635  -3.844  0.00  0.00    -0.290 NA
ATOM     14  N   LIG    1        4.225   1.327  -3.986  0.00  0.00    -0.370 N 
ATOM     15  C   LIG    1        3.825   1.721  -2.759  0.00  0.00    +0.250 A 
ATOM     16  C   LIG    1        3.516   1.574  -5.244  0.00  0.00    +0.360 C 
ATOM     17  C   LIG    1        4.754   1.302  -1.868  0.00  0.00    -0.270 A 
ENDBRANCH  10  17
ENDBRANCH   1  10
BRANCH   1  18
ATOM     18  C   LIG    1        3.365   3.609   0.134  0.00  0.00    +0.360 C 
BRANCH  18  19
ATOM     19  C   LIG    1        3.537   3.981   1.585  0.00  0.00    -0.060 A 
ATOM     20  C   LIG    1        4.810   4.033   2.149  0.00  0.00    -0.110 A 
ATOM     21  C   LIG    1        6.167   3.795   1.643  0.00  0.00    -0.060 A 
ATOM     22  C   LIG    1        6.994   4.006   2.676  0.00  0.00    +0.230 A 
ATOM     23  O   LIG    1        6.290   4.351   3.769  0.00  0.00    -0.200 OA
ATOM     24  C   LIG    1        4.969   4.381   3.501  0.00  0.00    +0.050 A 
ATOM     25  C   LIG    1        3.846   4.670   4.266  0.00  0.00    +0.030 A 
ATOM     26  C   LIG    1        2.592   4.615   3.696  0.00  0.00    +0.040 A 
ATOM     27  C   LIG    1        2.436   4.277   2.359  0.00  0.00    +0.020 A 
ENDBRANCH  18  19
ENDBRANCH   1  18
TORSDOF 6
