REMARK  Name = ZINCnE000001Tz1G.0
REMARK                            x       y       z     vdW  Elec       q    Type
REMARK                         _______ _______ _______ _____ _____    ______ ____
ROOT
ATOM      1  C   LIG    1       -2.158  -1.504   0.590  0.00  0.00    +0.160 A 
ATOM      2  C   LIG    1       -3.531  -1.454   0.782  0.00  0.00    -0.070 A 
ATOM      3  C   LIG    1       -4.197  -0.248   0.697  0.00  0.00    +0.070 A 
ATOM      4  C   LIG    1       -3.489   0.921   0.428  0.00  0.00    -0.100 A 
ATOM      5  C   LIG    1       -2.109   0.868   0.234  0.00  0.00    +0.080 A 
ATOM      6  C   LIG    1       -1.449  -0.341   0.316  0.00  0.00    -0.080 A 
ATOM      7 CL   LIG    1        0.269  -0.408   0.075  0.00  0.00    -0.050 Cl
ENDROOT
BRANCH   4   8
ATOM      8  C   LIG    1       -4.202   2.219   0.341  0.00  0.00    -0.020 A 
ATOM      9  C   LIG    1       -3.495   3.389   0.071  0.00  0.00    +0.010 A 
ATOM     10  C   LIG    1       -4.165   4.593  -0.015  0.00  0.00    +0.030 A 
ATOM     11  C   LIG    1       -5.534   4.641   0.178  0.00  0.00    -0.050 A 
ATOM     12  C   LIG    1       -6.240   3.483   0.452  0.00  0.00    +0.010 A 
ATOM     13  C   LIG    1       -5.581   2.273   0.534  0.00  0.00    +0.010 A 
BRANCH  11  14
ATOM     14  C   LIG    1       -6.258   5.959   0.090  0.00  0.00    -0.090 C 
ATOM     15  C   LIG    1       -5.730   7.114   0.943  0.00  0.00    +0.040 C 
ATOM     16  C   LIG    1       -7.039   6.420   1.323  0.00  0.00    +0.040 C 
BRANCH  14  17
ATOM     17  C   LIG    1       -6.839   6.302  -1.283  0.00  0.00    +0.220 C 
BRANCH  17  18
ATOM     18  O   LIG    1       -5.775   6.476  -2.221  0.00  0.00    -0.560 OA
ATOM     19  H   LIG    1       -6.070   6.696  -3.115  0.00  0.00    +0.380 HD
ENDBRANCH  17  18
ENDBRANCH  14  17
ENDBRANCH  11  14
ENDBRANCH   4   8
BRANCH   1  20
ATOM     20  O   LIG    1       -1.505  -2.693   0.669  0.00  0.00    -0.260 OA
BRANCH  20  21
ATOM     21  C   LIG    1       -2.295  -3.849   0.954  0.00  0.00    +0.110 C 
BRANCH  21  23
ATOM     22  O   LIG    1       -0.208  -4.953   0.812  0.00  0.00    -0.670 OA
ATOM     23  C   LIG    1       -1.407  -5.066   1.003  0.00  0.00    +0.500 C 
ATOM     24  O   LIG    1       -1.887  -6.162   1.235  0.00  0.00    -0.690 OA
ENDBRANCH  21  23
ENDBRANCH  20  21
ENDBRANCH   1  20
TORSDOF 7
