REMARK  Name = ZINCqH00000072QX.0
REMARK                            x       y       z     vdW  Elec       q    Type
REMARK                         _______ _______ _______ _____ _____    ______ ____
ROOT
ATOM      1  C   LIG    1       -0.149   5.521   0.258  0.00  0.00    +0.570 C 
ATOM      2  N   LIG    1       -1.249   6.267   0.034  0.00  0.00    -0.600 N 
ATOM      3  C   LIG    1       -2.570   5.635   0.009  0.00  0.00    +0.300 C 
ATOM      4  O   LIG    1        0.937   6.056   0.368  0.00  0.00    -0.530 OA
ENDROOT
BRANCH   1   8
ATOM      5  C   LIG    1       -0.482   1.296   0.582  0.00  0.00    +0.130 A 
ATOM      6  C   LIG    1       -1.433   2.115   1.174  0.00  0.00    -0.040 A 
ATOM      7  C   LIG    1       -1.325   3.485   1.076  0.00  0.00    +0.050 A 
ATOM      8  C   LIG    1       -0.263   4.053   0.369  0.00  0.00    -0.130 A 
ATOM      9  C   LIG    1        0.692   3.229  -0.232  0.00  0.00    +0.020 A 
ATOM     10  C   LIG    1        0.582   1.857  -0.125  0.00  0.00    +0.100 A 
BRANCH   5  12
ATOM     11  C   LIG    1       -1.703  -0.560   1.425  0.00  0.00    +0.240 C 
ATOM     12  O   LIG    1       -0.589  -0.053   0.686  0.00  0.00    -0.300 OA
ENDBRANCH   5  12
BRANCH  10  13
ATOM     13  O   LIG    1        1.509   1.052  -0.709  0.00  0.00    -0.300 OA
ATOM     14  C   LIG    1        2.571   1.694  -1.418  0.00  0.00    +0.240 C 
ENDBRANCH  10  13
ENDBRANCH   1   8
BRANCH   2  15
ATOM     15  C   LIG    1       -1.123   7.710  -0.183  0.00  0.00    +0.340 C 
BRANCH  15  16
ATOM     16  C   LIG    1       -0.947   7.983  -1.654  0.00  0.00    +0.500 C 
ATOM     17  N   LIG    1       -0.810   9.250  -2.093  0.00  0.00    -0.670 N 
ATOM     18  H   LIG    1       -0.895   9.990  -1.472  0.00  0.00    +0.420 HD
ATOM     19  O   LIG    1       -0.928   7.063  -2.444  0.00  0.00    -0.500 OA
BRANCH  17  20
ATOM     20  C   LIG    1       -0.545   9.498  -3.445  0.00  0.00    +0.160 A 
ATOM     21  C   LIG    1       -1.104   8.687  -4.423  0.00  0.00    +0.040 A 
ATOM     22  C   LIG    1       -0.841   8.933  -5.757  0.00  0.00    +0.070 A 
ATOM     23  C   LIG    1       -0.021   9.987  -6.119  0.00  0.00    -0.050 A 
ATOM     24  C   LIG    1        0.538  10.798  -5.145  0.00  0.00    -0.010 A 
ATOM     25 CL   LIG    1        1.567  12.119  -5.603  0.00  0.00    -0.040 Cl
ATOM     26 CL   LIG    1        0.308  10.293  -7.796  0.00  0.00    -0.050 Cl
ATOM     27  C   LIG    1        0.274  10.559  -3.810  0.00  0.00    +0.020 A 
ENDBRANCH  17  20
ENDBRANCH  15  16
ENDBRANCH   2  15
TORSDOF 6
