REMARK  Name = ZINCrD0000072WxO.0
REMARK                            x       y       z     vdW  Elec       q    Type
REMARK                         _______ _______ _______ _____ _____    ______ ____
ROOT
ATOM      1  C   LIG    1       -2.476   6.855  -1.991  0.00  0.00    -0.090 A 
ATOM      2  C   LIG    1       -1.476   5.885  -2.026  0.00  0.00    +0.140 A 
ATOM      3  C   LIG    1       -1.714   4.675  -2.711  0.00  0.00    -0.070 A 
ATOM      4  C   LIG    1       -0.732   3.674  -2.776  0.00  0.00    +0.030 A 
ATOM      5  C   LIG    1       -0.991   2.516  -3.446  0.00  0.00    +0.030 A 
ATOM      6  C   LIG    1       -2.220   2.310  -4.068  0.00  0.00    +0.040 A 
ATOM      7  C   LIG    1       -3.199   3.256  -4.016  0.00  0.00    +0.040 A 
ATOM      8  C   LIG    1       -2.966   4.464  -3.340  0.00  0.00    -0.020 A 
ATOM      9  C   LIG    1       -3.954   5.466  -3.283  0.00  0.00    +0.060 A 
ATOM     10  C   LIG    1       -3.712   6.627  -2.626  0.00  0.00    +0.090 A 
ENDROOT
BRANCH   1  11
ATOM     11  C   LIG    1       -2.239   8.124  -1.285  0.00  0.00    +0.510 C 
ATOM     12  O   LIG    1       -1.174   8.324  -0.735  0.00  0.00    -0.500 OA
BRANCH  11  14
ATOM     13  C   LIG    1       -2.900  10.292  -0.534  0.00  0.00    +0.280 C 
ATOM     14  O   LIG    1       -3.204   9.065  -1.248  0.00  0.00    -0.350 OA
ENDBRANCH  11  14
ENDBRANCH   1  11
BRANCH   2  15
ATOM     15  O   LIG    1       -0.288   6.104  -1.415  0.00  0.00    -0.640 OA
BRANCH  15  16
ATOM     16  S   LIG    1       -0.244   5.646   0.035  0.00  0.00    +2.680 S 
ATOM     17  O   LIG    1        0.981   6.127   0.571  0.00  0.00    -0.890 OA
ATOM     18  O   LIG    1       -1.513   5.959   0.594  0.00  0.00    -0.950 OA
BRANCH  16  19
ATOM     19  C   LIG    1       -0.126   3.888   0.024  0.00  0.00    -0.670 A 
ATOM     20  C   LIG    1       -1.251   3.132   0.031  0.00  0.00    +0.200 A 
ATOM     21  C   LIG    1       -1.195   1.738   0.017  0.00  0.00    +0.020 A 
ATOM     22  C   LIG    1       -0.013   1.076   0.008  0.00  0.00    +0.160 A 
ATOM     23  C   LIG    1        1.205   1.802   0.000  0.00  0.00    +0.060 A 
ATOM     24  N   LIG    1        2.462   1.390  -0.014  0.00  0.00    -0.580 NA
ATOM     25  S   LIG    1        3.411   2.622  -0.016  0.00  0.00    +0.840 S 
ATOM     26  N   LIG    1        2.366   3.774  -0.000  0.00  0.00    -0.580 NA
ATOM     27  C   LIG    1        1.146   3.262   0.009  0.00  0.00    +0.140 A 
ENDBRANCH  16  19
ENDBRANCH  15  16
ENDBRANCH   2  15
TORSDOF 5
