REMARK  Name = ZINCvU0000000IBC.0
REMARK                            x       y       z     vdW  Elec       q    Type
REMARK                         _______ _______ _______ _____ _____    ______ ____
ROOT
ATOM      1  C   LIG    1        7.336  -0.290   0.119  0.00  0.00    +0.010 C 
ATOM      2  C   LIG    1        7.611   0.654  -1.056  0.00  0.00    +0.020 C 
ATOM      3  C   LIG    1        9.070   1.114  -1.000  0.00  0.00    +0.220 C 
ATOM      4  O   LIG    1        9.929  -0.028  -1.031  0.00  0.00    -0.380 OA
ATOM      5  C   LIG    1        9.750  -0.922   0.069  0.00  0.00    +0.220 C 
ATOM      6  C   LIG    1        8.318  -1.464   0.057  0.00  0.00    +0.030 C 
ENDROOT
BRANCH   1   7
ATOM      7  C   LIG    1        5.924  -0.809   0.029  0.00  0.00    +0.050 A 
ATOM      8  N   LIG    1        4.868  -0.071   0.048  0.00  0.00    -0.460 NA
ATOM      9  C   LIG    1        3.699  -0.689  -0.036  0.00  0.00    +0.120 A 
ATOM     10  C   LIG    1        3.791  -2.030  -0.142  0.00  0.00    -0.080 A 
ATOM     11  S   LIG    1        5.499  -2.458  -0.119  0.00  0.00    +0.160 S 
BRANCH   9  12
ATOM     12  C   LIG    1        2.402   0.033  -0.020  0.00  0.00    -0.030 A 
ATOM     13  C   LIG    1        1.205  -0.680  -0.013  0.00  0.00    +0.020 A 
ATOM     14  C   LIG    1        0.002  -0.004   0.002  0.00  0.00    +0.010 A 
ATOM     15  C   LIG    1       -0.017   1.379   0.010  0.00  0.00    +0.010 A 
ATOM     16  C   LIG    1        1.169   2.092   0.002  0.00  0.00    +0.010 A 
ATOM     17  C   LIG    1        2.377   1.426  -0.013  0.00  0.00    +0.050 A 
ENDBRANCH   9  12
ENDBRANCH   1   7
BRANCH   1  18
ATOM     18  C   LIG    1        7.522   0.463   1.438  0.00  0.00    +0.300 C 
BRANCH  18  19
ATOM     19  N   LIG    1        6.585   1.588   1.494  0.00  0.00    -0.690 N 
ATOM     20  H   LIG    1        5.976   1.750   0.755  0.00  0.00    +0.420 HD
BRANCH  19  22
ATOM     21  C   LIG    1        5.736   3.528   2.785  0.00  0.00    -0.110 A 
ATOM     22  C   LIG    1        6.567   2.423   2.604  0.00  0.00    +0.430 A 
ATOM     23  N   LIG    1        7.344   2.313   3.677  0.00  0.00    -0.520 NA
ATOM     24  C   LIG    1        7.058   3.282   4.544  0.00  0.00    +0.300 A 
ATOM     25  C   LIG    1        7.592   3.593   5.807  0.00  0.00    +0.080 A 
ATOM     26  C   LIG    1        7.104   4.665   6.496  0.00  0.00    +0.000 A 
ATOM     27  C   LIG    1        6.077   5.440   5.934  0.00  0.00    +0.030 A 
ATOM     28  C   LIG    1        5.577   5.124   4.719  0.00  0.00    +0.260 A 
ATOM     29 CL   LIG    1        7.748   5.068   8.057  0.00  0.00    -0.030 Cl
ATOM     30  N   LIG    1        6.059   4.058   4.026  0.00  0.00    -0.330 N 
BRANCH  21  32
ATOM     31  N   LIG    1        3.958   4.403   1.152  0.00  0.00    -0.410 NA
ATOM     32  C   LIG    1        4.745   4.016   1.875  0.00  0.00    +0.290 C 
ENDBRANCH  21  32
ENDBRANCH  19  22
ENDBRANCH  18  19
ENDBRANCH   1  18
TORSDOF 6
