REMARK  Name = ZINCbw0000001gT7.0
REMARK                            x       y       z     vdW  Elec       q    Type
REMARK                         _______ _______ _______ _____ _____    ______ ____
ROOT
ATOM      1  C   LIG    1        0.000   1.080   2.488  0.00  0.00    -0.190 A 
ATOM      2  C   LIG    1       -0.638   0.288   3.381  0.00  0.00    +0.320 A 
ATOM      3  N   LIG    1        0.005  -0.170   4.486  0.00  0.00    -0.600 N 
ATOM      4  H   LIG    1       -0.468  -0.736   5.116  0.00  0.00    +0.420 HD
ATOM      5  C   LIG    1        1.292   0.154   4.717  0.00  0.00    +0.530 A 
ATOM      6  C   LIG    1        1.985   0.974   3.809  0.00  0.00    -0.230 A 
ATOM      7 BR   LIG    1        3.792   1.434   4.125  0.00  0.00    -0.010 Br
ATOM      8  O   LIG    1        1.856  -0.265   5.715  0.00  0.00    -0.530 OA
ATOM      9  C   LIG    1        1.341   1.431   2.696  0.00  0.00    +0.170 A 
ENDROOT
BRANCH   1  11
ATOM     10  C   LIG    1       -0.013   1.086   0.008  0.00  0.00    +0.030 C 
ATOM     11  C   LIG    1       -0.729   1.579   1.267  0.00  0.00    +0.040 C 
ATOM     12  C   LIG    1       -0.750   3.109   1.275  0.00  0.00    +0.030 C 
ENDBRANCH   1  11
TORSDOF 1
