REMARK  Name = ZINCpk00000xI6Ut.0
REMARK                            x       y       z     vdW  Elec       q    Type
REMARK                         _______ _______ _______ _____ _____    ______ ____
ROOT
ATOM      1  N   LIG    1       -0.548   1.390  -3.669  0.00  0.00    -1.100 NA
ATOM      2  S   LIG    1        0.130   0.879  -4.898  0.00  0.00    +2.560 S 
ATOM      3  C   LIG    1       -0.760   1.341  -6.360  0.00  0.00    -0.530 A 
ATOM      4  C   LIG    1       -1.095   2.527  -6.944  0.00  0.00    +0.180 A 
ATOM      5  C   LIG    1       -1.823   2.529  -8.126  0.00  0.00    +0.070 A 
ATOM      6  C   LIG    1       -2.199   1.326  -8.696  0.00  0.00    +0.080 A 
ATOM      7  C   LIG    1       -1.863   0.127  -8.108  0.00  0.00    +0.120 A 
ATOM      8  C   LIG    1       -1.127   0.104  -6.912  0.00  0.00    -0.120 A 
ATOM      9  C   LIG    1       -0.659  -1.036  -6.113  0.00  0.00    +0.530 C 
ATOM     10  O   LIG    1       -0.897  -2.177  -6.460  0.00  0.00    -0.460 OA
ATOM     11  O   LIG    1        1.479   1.323  -4.957  0.00  0.00    -0.920 OA
ATOM     12  N   LIG    1        0.039  -0.791  -4.990  0.00  0.00    -0.910 N 
ATOM     13  C   LIG    1        0.597  -1.769  -4.052  0.00  0.00    +0.390 C 
ENDROOT
BRANCH   1  14
ATOM     14  C   LIG    1       -0.077   1.073  -2.473  0.00  0.00    +0.560 C 
ATOM     15  O   LIG    1        0.907   0.366  -2.374  0.00  0.00    -0.560 OA
BRANCH  14  21
ATOM     16  C   LIG    1       -2.317   4.486   0.049  0.00  0.00    +0.550 C 
ATOM     17  N   LIG    1       -1.298   3.603   0.034  0.00  0.00    -0.610 N 
ATOM     18  C   LIG    1       -0.720   3.106   1.290  0.00  0.00    +0.260 C 
ATOM     19  C   LIG    1       -0.737   1.574   1.267  0.00  0.00    +0.010 C 
ATOM     20  C   LIG    1       -0.023   1.079   0.007  0.00  0.00    +0.050 C 
ATOM     21  C   LIG    1       -0.762   1.588  -1.233  0.00  0.00    +0.020 C 
ATOM     22  C   LIG    1       -0.746   3.119  -1.239  0.00  0.00    +0.310 C 
ATOM     23  O   LIG    1       -2.725   4.961  -0.994  0.00  0.00    -0.540 OA
BRANCH  16  25
ATOM     24  C   LIG    1       -4.004   5.665   1.334  0.00  0.00    +0.140 C 
ATOM     25  C   LIG    1       -2.934   4.875   1.326  0.00  0.00    -0.090 C 
ENDBRANCH  16  25
ENDBRANCH  14  21
ENDBRANCH   1  14
TORSDOF 3
