REMARK  Name = ZINCrD000006QlNC.0
REMARK                            x       y       z     vdW  Elec       q    Type
REMARK                         _______ _______ _______ _____ _____    ______ ____
ROOT
ATOM      1  C   LIG    1       -0.074   5.607   0.031  0.00  0.00    +0.570 C 
ATOM      2  N   LIG    1       -1.247   6.266  -0.057  0.00  0.00    -0.610 N 
ATOM      3  C   LIG    1       -2.524   5.536  -0.056  0.00  0.00    +0.280 C 
ATOM      4  C   LIG    1       -3.437   6.163   1.010  0.00  0.00    +0.190 C 
ATOM      5  N   LIG    1       -3.547   7.608   0.764  0.00  0.00    -0.490 N 
ATOM      6  C   LIG    1       -2.244   8.273   0.903  0.00  0.00    +0.190 C 
ATOM      7  C   LIG    1       -1.283   7.732  -0.161  0.00  0.00    +0.300 C 
ATOM      8  O   LIG    1        0.966   6.229   0.132  0.00  0.00    -0.520 OA
ENDROOT
BRANCH   5   9
ATOM      9  C   LIG    1       -4.498   8.188   1.608  0.00  0.00    +0.120 A 
ATOM     10  C   LIG    1       -4.142   9.248   2.433  0.00  0.00    -0.020 A 
ATOM     11  C   LIG    1       -5.086   9.823   3.261  0.00  0.00    +0.050 A 
ATOM     12  C   LIG    1       -6.381   9.337   3.279  0.00  0.00    -0.060 A 
ATOM     13  C   LIG    1       -6.737   8.278   2.463  0.00  0.00    +0.060 A 
ATOM     14 CL   LIG    1       -7.562  10.058   4.327  0.00  0.00    -0.070 Cl
ATOM     15  C   LIG    1       -5.799   7.702   1.628  0.00  0.00    +0.010 A 
ENDBRANCH   5   9
BRANCH   1  18
ATOM     16  C   LIG    1       -0.965   2.050  -0.787  0.00  0.00    +0.150 A 
ATOM     17  C   LIG    1       -0.991   3.432  -0.758  0.00  0.00    -0.060 A 
ATOM     18  C   LIG    1       -0.052   4.132   0.004  0.00  0.00    -0.060 A 
ATOM     19  C   LIG    1        0.907   3.432   0.740  0.00  0.00    -0.030 A 
ATOM     20  C   LIG    1        0.926   2.050   0.712  0.00  0.00    +0.150 A 
ATOM     21  C   LIG    1       -0.011   1.355  -0.049  0.00  0.00    +0.050 A 
BRANCH  16  23
ATOM     22  C   LIG    1       -2.825   2.145  -2.266  0.00  0.00    +0.250 C 
ATOM     23  O   LIG    1       -1.875   1.369  -1.533  0.00  0.00    -0.300 OA
ENDBRANCH  16  23
BRANCH  20  24
ATOM     24  O   LIG    1        1.860   1.369   1.428  0.00  0.00    -0.300 OA
ATOM     25  C   LIG    1        2.790   2.145   2.186  0.00  0.00    +0.250 C 
ENDBRANCH  20  24
BRANCH  21  26
ATOM     26  O   LIG    1        0.009  -0.003  -0.074  0.00  0.00    -0.310 OA
ATOM     27  C   LIG    1       -0.769  -0.682   0.913  0.00  0.00    +0.240 C 
ENDBRANCH  21  26
ENDBRANCH   1  18
TORSDOF 5
