REMARK  Name = ZINCvU0000000FsJ.0
REMARK                            x       y       z     vdW  Elec       q    Type
REMARK                         _______ _______ _______ _____ _____    ______ ____
ROOT
ATOM      1  C   LIG    1        0.773   2.857   0.141  0.00  0.00    +0.300 A 
ATOM      2  C   LIG    1       -0.341   3.682   0.065  0.00  0.00    -0.010 A 
ATOM      3  C   LIG    1       -1.602   3.113   0.047  0.00  0.00    +0.110 A 
ATOM      4  C   LIG    1       -1.704   1.724   0.102  0.00  0.00    +0.070 A 
ATOM      5  C   LIG    1       -0.545   0.965   0.183  0.00  0.00    +0.290 A 
ATOM      6  N   LIG    1        0.640   1.543   0.198  0.00  0.00    -0.510 NA
ENDROOT
BRANCH   4   7
ATOM      7  N   LIG    1       -2.959   1.103   0.080  0.00  0.00    -0.650 N 
ATOM      8  H   LIG    1       -3.106   0.290   0.587  0.00  0.00    +0.420 HD
ATOM      9  C   LIG    1       -3.962   1.636  -0.645  0.00  0.00    +0.600 C 
ATOM     10  O   LIG    1       -3.751   2.597  -1.361  0.00  0.00    -0.510 OA
BRANCH   9  11
ATOM     11  C   LIG    1       -5.314   1.056  -0.571  0.00  0.00    +0.010 A 
ATOM     12  C   LIG    1       -6.356   1.554  -1.273  0.00  0.00    -0.010 A 
ATOM     13  S   LIG    1       -7.753   0.626  -0.936  0.00  0.00    +0.210 S 
ATOM     14  C   LIG    1       -6.830  -0.396   0.161  0.00  0.00    +0.090 A 
ATOM     15  N   LIG    1       -5.597   0.010   0.193  0.00  0.00    -0.440 NA
BRANCH  14  16
ATOM     16  C   LIG    1       -7.375  -1.538   0.927  0.00  0.00    -0.030 A 
ATOM     17  C   LIG    1       -6.542  -2.280   1.765  0.00  0.00    +0.090 A 
ATOM     18  C   LIG    1       -7.057  -3.341   2.481  0.00  0.00    +0.030 A 
ATOM     19  C   LIG    1       -8.395  -3.676   2.362  0.00  0.00    -0.020 A 
ATOM     20  C   LIG    1       -9.225  -2.946   1.528  0.00  0.00    +0.030 A 
ATOM     21 CL   LIG    1       -9.034  -5.017   3.260  0.00  0.00    -0.060 Cl
ATOM     22  C   LIG    1       -8.723  -1.880   0.811  0.00  0.00    +0.060 A 
ENDBRANCH  14  16
ENDBRANCH   9  11
ENDBRANCH   4   7
BRANCH   1  23
ATOM     23  O   LIG    1        2.015   3.407   0.159  0.00  0.00    -0.240 OA
BRANCH  23  28
ATOM     24  C   LIG    1        4.481   0.788  -0.441  0.00  0.00    -0.130 A 
ATOM     25  C   LIG    1        5.250   0.894   0.719  0.00  0.00    +0.040 A 
ATOM     26  C   LIG    1        4.929   1.835   1.676  0.00  0.00    +0.030 A 
ATOM     27  C   LIG    1        3.851   2.679   1.486  0.00  0.00    +0.050 A 
ATOM     28  C   LIG    1        3.077   2.578   0.338  0.00  0.00    +0.090 A 
ATOM     29  C   LIG    1        3.390   1.637  -0.628  0.00  0.00    +0.090 A 
BRANCH  24  33
ATOM     30  N   LIG    1        5.877  -1.038  -1.284  0.00  0.00    -0.850 N 
ATOM     31  H   LIG    1        6.101  -1.700  -1.958  0.00  0.00    +0.410 HD
ATOM     32  H   LIG    1        6.413  -0.966  -0.479  0.00  0.00    +0.400 HD
ATOM     33  C   LIG    1        4.822  -0.220  -1.468  0.00  0.00    +0.560 C 
ATOM     34  O   LIG    1        4.151  -0.310  -2.477  0.00  0.00    -0.530 OA
ENDBRANCH  24  33
ENDBRANCH  23  28
ENDBRANCH   1  23
TORSDOF 6
