REMARK  Name = ZINCrH000004quHa.0
REMARK                            x       y       z     vdW  Elec       q    Type
REMARK                         _______ _______ _______ _____ _____    ______ ____
ROOT
ATOM      1  C   LIG    1        1.028  -0.717   0.256  0.00  0.00    +0.210 C 
ENDROOT
BRANCH   1   4
ATOM      2  N   LIG    1       -0.147   1.409  -0.212  0.00  0.00    -0.680 N 
ATOM      3  H   LIG    1        0.616   1.678  -0.747  0.00  0.00    +0.410 HD
ATOM      4  C   LIG    1       -0.135   0.225   0.432  0.00  0.00    +0.510 C 
ATOM      5  O   LIG    1       -1.061  -0.082   1.153  0.00  0.00    -0.500 OA
BRANCH   2  10
ATOM      6  C   LIG    1       -4.669   4.811   0.190  0.00  0.00    +0.090 C 
ATOM      7  C   LIG    1       -3.467   3.908   0.083  0.00  0.00    -0.080 A 
ATOM      8  C   LIG    1       -2.205   4.403   0.353  0.00  0.00    +0.010 A 
ATOM      9  C   LIG    1       -1.102   3.577   0.256  0.00  0.00    -0.090 A 
ATOM     10  C   LIG    1       -1.262   2.248  -0.113  0.00  0.00    +0.130 A 
ATOM     11  C   LIG    1       -2.531   1.756  -0.390  0.00  0.00    -0.070 A 
ATOM     12  C   LIG    1       -2.708   0.316  -0.798  0.00  0.00    +0.080 C 
ATOM     13  C   LIG    1        0.273   4.118   0.552  0.00  0.00    +0.100 C 
ATOM     14  C   LIG    1       -3.630   2.585  -0.285  0.00  0.00    +0.010 A 
ENDBRANCH   2  10
ENDBRANCH   1   4
BRANCH   1  15
ATOM     15  N   LIG    1        0.802  -1.928   1.056  0.00  0.00    -0.510 NA
ATOM     16  C   LIG    1       -0.345  -2.690   0.545  0.00  0.00    +0.200 C 
BRANCH  15  17
ATOM     17  C   LIG    1        2.011  -2.762   1.100  0.00  0.00    +0.220 C 
BRANCH  17  18
ATOM     18  C   LIG    1        1.825  -3.875   2.133  0.00  0.00    -0.320 C 
BRANCH  18  19
ATOM     19  S   LIG    1        3.317  -4.905   2.188  0.00  0.00    +2.500 S 
ATOM     20  O   LIG    1        4.407  -4.175   2.733  0.00  0.00    -0.930 OA
ATOM     21  O   LIG    1        3.459  -5.642   0.982  0.00  0.00    -0.930 OA
BRANCH  19  22
ATOM     22  C   LIG    1        2.962  -6.129   3.405  0.00  0.00    -0.650 A 
ATOM     23  C   LIG    1        3.287  -5.901   4.729  0.00  0.00    +0.130 A 
ATOM     24  C   LIG    1        3.003  -6.858   5.685  0.00  0.00    +0.040 A 
ATOM     25  C   LIG    1        2.405  -8.049   5.315  0.00  0.00    -0.040 A 
ATOM     26  C   LIG    1        2.085  -8.279   3.989  0.00  0.00    +0.040 A 
ATOM     27 BR   LIG    1        2.025  -9.363   6.621  0.00  0.00    -0.030 Br
ATOM     28  C   LIG    1        2.364  -7.319   3.035  0.00  0.00    +0.130 A 
ENDBRANCH  19  22
ENDBRANCH  18  19
ENDBRANCH  17  18
ENDBRANCH  15  17
ENDBRANCH   1  15
TORSDOF 7
