REMARK  Name = ZINCvU0000000J4u.0
REMARK                            x       y       z     vdW  Elec       q    Type
REMARK                         _______ _______ _______ _____ _____    ______ ____
ROOT
ATOM      1  C   LIG    1        1.173  -0.661  -0.114  0.00  0.00    +0.520 C 
ATOM      2  N   LIG    1        0.002  -0.004   0.002  0.00  0.00    -0.670 N 
ATOM      3  H   LIG    1       -0.828  -0.501   0.073  0.00  0.00    +0.420 HD
ATOM      4  O   LIG    1        2.217  -0.044  -0.121  0.00  0.00    -0.500 OA
ENDROOT
BRANCH   2   5
ATOM      5  C   LIG    1       -0.016   1.392   0.020  0.00  0.00    +0.190 A 
ATOM      6  C   LIG    1        1.024   2.092   0.621  0.00  0.00    +0.050 A 
ATOM      7  C   LIG    1        1.010   3.469   0.640  0.00  0.00    +0.100 A 
ATOM      8  C   LIG    1       -0.051   4.164   0.054  0.00  0.00    -0.040 A 
ATOM      9  C   LIG    1       -1.095   3.458  -0.550  0.00  0.00    +0.130 A 
ATOM     10  C   LIG    1       -1.072   2.081  -0.570  0.00  0.00    -0.070 A 
ATOM     11 CL   LIG    1       -2.365   1.203  -1.326  0.00  0.00    -0.050 Cl
BRANCH   8  12
ATOM     12  C   LIG    1       -0.068   5.640   0.072  0.00  0.00    +0.230 A 
ATOM     13  N   LIG    1       -0.998   6.425  -0.445  0.00  0.00    -0.470 NA
ATOM     14  C   LIG    1       -0.594   7.678  -0.187  0.00  0.00    +0.210 A 
ATOM     15  N   LIG    1        0.538   7.604   0.450  0.00  0.00    -0.380 NA
ATOM     16  O   LIG    1        0.860   6.446   0.611  0.00  0.00    +0.090 OA
BRANCH  14  17
ATOM     17  C   LIG    1       -1.317   8.943  -0.572  0.00  0.00    +0.060 C 
ATOM     18  C   LIG    1       -0.581  10.269  -0.366  0.00  0.00    +0.050 C 
ATOM     19  C   LIG    1       -1.740   9.886   0.556  0.00  0.00    +0.060 C 
ENDBRANCH  14  17
ENDBRANCH   8  12
ENDBRANCH   2   5
BRANCH   1  20
ATOM     20  C   LIG    1        1.185  -2.163  -0.236  0.00  0.00    +0.140 C 
BRANCH  20  32
ATOM     21  C   LIG    1        2.671  -2.823   2.142  0.00  0.00    +0.120 C 
ATOM     22  C   LIG    1        3.331  -2.967   0.795  0.00  0.00    +0.180 A 
ATOM     23  N   LIG    1        4.570  -3.391   0.733  0.00  0.00    -0.480 NA
ATOM     24  C   LIG    1        5.197  -3.535  -0.439  0.00  0.00    +0.140 A 
ATOM     25  C   LIG    1        6.526  -3.990  -0.499  0.00  0.00    +0.040 A 
ATOM     26  C   LIG    1        7.138  -4.128  -1.706  0.00  0.00    +0.030 A 
ATOM     27  C   LIG    1        6.470  -3.824  -2.890  0.00  0.00    +0.010 A 
ATOM     28  C   LIG    1        5.183  -3.380  -2.872  0.00  0.00    +0.040 A 
ATOM     29  C   LIG    1        4.519  -3.227  -1.644  0.00  0.00    -0.100 A 
ATOM     30  C   LIG    1        3.187  -2.777  -1.582  0.00  0.00    -0.000 A 
ATOM     31  C   LIG    1        2.423  -2.442  -2.837  0.00  0.00    +0.110 C 
ATOM     32  C   LIG    1        2.607  -2.647  -0.352  0.00  0.00    -0.130 A 
ENDBRANCH  20  32
ENDBRANCH   1  20
TORSDOF 5
