REMARK  Name = ZINCvU0000000GsM.0
REMARK                            x       y       z     vdW  Elec       q    Type
REMARK                         _______ _______ _______ _____ _____    ______ ____
ROOT
ATOM      1  N   LIG    1        2.365   3.886  -0.018  0.00  0.00    -0.550 N 
ATOM      2  C   LIG    1        3.507   3.201   0.039  0.00  0.00    +0.510 C 
ATOM      3  C   LIG    1        4.862   3.848   0.065  0.00  0.00    +0.090 C 
ATOM      4  C   LIG    1        4.755   5.301  -0.403  0.00  0.00    +0.060 C 
ATOM      5  C   LIG    1        3.603   5.972   0.355  0.00  0.00    -0.010 C 
ATOM      6  O   LIG    1        3.449   1.990   0.066  0.00  0.00    -0.530 OA
ATOM      7  C   LIG    1        2.286   5.340  -0.097  0.00  0.00    +0.310 C 
ENDROOT
BRANCH   1  11
ATOM      8  C   LIG    1       -1.211   1.742   0.052  0.00  0.00    +0.130 A 
ATOM      9  C   LIG    1       -0.950   2.621  -0.988  0.00  0.00    -0.010 A 
ATOM     10  C   LIG    1        0.233   3.333  -1.011  0.00  0.00    +0.050 A 
ATOM     11  C   LIG    1        1.164   3.165   0.005  0.00  0.00    +0.110 A 
ATOM     12  C   LIG    1        0.905   2.280   1.043  0.00  0.00    +0.060 A 
ATOM     13  C   LIG    1       -0.278   1.569   1.065  0.00  0.00    -0.070 A 
BRANCH   8  15
ATOM     14  C   LIG    1       -2.580   0.157   1.179  0.00  0.00    +0.250 C 
ATOM     15  O   LIG    1       -2.378   1.045   0.077  0.00  0.00    -0.320 OA
ENDBRANCH   8  15
ENDBRANCH   1  11
BRANCH   7  16
ATOM     16  C   LIG    1        1.170   5.827   0.790  0.00  0.00    -0.110 A 
ATOM     17  C   LIG    1        0.961   5.240   2.024  0.00  0.00    +0.010 A 
ATOM     18  C   LIG    1       -0.060   5.691   2.840  0.00  0.00    -0.010 A 
ATOM     19  C   LIG    1       -0.879   6.721   2.417  0.00  0.00    +0.010 A 
ATOM     20  C   LIG    1       -0.674   7.304   1.180  0.00  0.00    -0.010 A 
ATOM     21  C   LIG    1        0.351   6.857   0.367  0.00  0.00    +0.060 A 
ENDBRANCH   7  16
BRANCH   5  22
ATOM     22  C   LIG    1        3.587   7.447   0.050  0.00  0.00    +0.530 C 
ATOM     23  N   LIG    1        4.652   8.212   0.363  0.00  0.00    -0.660 N 
ATOM     24  H   LIG    1        5.449   7.804   0.736  0.00  0.00    +0.410 HD
ATOM     25  O   LIG    1        2.617   7.947  -0.479  0.00  0.00    -0.500 OA
BRANCH  23  26
ATOM     26  C   LIG    1        4.606   9.595   0.152  0.00  0.00    +0.140 A 
ATOM     27  C   LIG    1        3.765  10.123  -0.818  0.00  0.00    +0.020 A 
ATOM     28  C   LIG    1        3.719  11.489  -1.020  0.00  0.00    +0.010 A 
ATOM     29  C   LIG    1        4.517  12.328  -0.266  0.00  0.00    -0.010 A 
ATOM     30  C   LIG    1        5.360  11.805   0.698  0.00  0.00    +0.030 A 
ATOM     31  C   LIG    1        5.407  10.441   0.909  0.00  0.00    -0.120 A 
ATOM     32  C   LIG    1        6.326   9.871   1.958  0.00  0.00    +0.080 C 
ENDBRANCH  23  26
ENDBRANCH   5  22
TORSDOF 5
