REMARK  Name = ZINCpk00000RXzDR.0
REMARK                            x       y       z     vdW  Elec       q    Type
REMARK                         _______ _______ _______ _____ _____    ______ ____
ROOT
ATOM      1  C   LIG    1        4.470   0.488   0.434  0.00  0.00    +0.630 C 
ATOM      2  N   LIG    1        4.241   1.740  -0.011  0.00  0.00    -0.580 N 
ATOM      3  C   LIG    1        4.628   2.982   0.682  0.00  0.00    +0.270 C 
ATOM      4  C   LIG    1        4.728   4.046  -0.440  0.00  0.00    +0.010 C 
ATOM      5  C   LIG    1        3.556   3.631  -1.368  0.00  0.00    +0.030 C 
ATOM      6  C   LIG    1        3.564   2.091  -1.268  0.00  0.00    +0.230 C 
ATOM      7  O   LIG    1        4.191  -0.466  -0.266  0.00  0.00    -0.550 OA
ENDROOT
BRANCH   6   8
ATOM      8  C   LIG    1        2.128   1.564  -1.251  0.00  0.00    +0.000 C 
ATOM      9  C   LIG    1        1.433   1.935  -2.563  0.00  0.00    +0.030 C 
ATOM     10  C   LIG    1       -0.003   1.408  -2.546  0.00  0.00    +0.010 C 
ATOM     11  C   LIG    1       -0.762   2.031  -1.373  0.00  0.00    +0.000 C 
ATOM     12  C   LIG    1       -0.067   1.659  -0.061  0.00  0.00    -0.020 C 
ATOM     13  C   LIG    1        1.369   2.187  -0.078  0.00  0.00    +0.170 C 
BRANCH  13  14
ATOM     14  O   LIG    1        2.018   1.840   1.147  0.00  0.00    -0.550 OA
ATOM     15  H   LIG    1        1.591   2.201   1.935  0.00  0.00    +0.370 HD
ENDBRANCH  13  14
ENDBRANCH   6   8
BRANCH   1  18
ATOM     16  N   LIG    1        5.862  -0.684   3.554  0.00  0.00    -0.360 N 
ATOM     17  C   LIG    1        5.338  -0.934   2.337  0.00  0.00    +0.290 A 
ATOM     18  C   LIG    1        5.058   0.277   1.770  0.00  0.00    -0.080 A 
ATOM     19  N   LIG    1        5.414   1.243   2.634  0.00  0.00    -0.200 NA
ATOM     20  N   LIG    1        5.890   0.709   3.705  0.00  0.00    -0.060 NA
BRANCH  16  21
ATOM     21  C   LIG    1        6.316  -1.678   4.530  0.00  0.00    +0.350 C 
BRANCH  21  23
ATOM     22  C   LIG    1        7.996   0.072   5.322  0.00  0.00    +0.090 C 
ATOM     23  C   LIG    1        7.767  -1.386   4.918  0.00  0.00    -0.140 C 
ATOM     24  C   LIG    1        8.800  -1.921   3.909  0.00  0.00    +0.210 C 
ATOM     25  O   LIG    1        9.539  -2.355   5.072  0.00  0.00    -0.370 OA
ATOM     26  C   LIG    1        8.364  -2.406   5.906  0.00  0.00    +0.240 C 
ENDBRANCH  21  23
ENDBRANCH  16  21
ENDBRANCH   1  18
TORSDOF 5
