REMARK  Name = ZINCrH000004speG.0
REMARK                            x       y       z     vdW  Elec       q    Type
REMARK                         _______ _______ _______ _____ _____    ______ ____
ROOT
ATOM      1  C   LIG    1       -0.028  -0.011   0.367  0.00  0.00    +0.620 C 
ATOM      2  N   LIG    1       -0.168   1.290   0.043  0.00  0.00    -0.600 N 
ATOM      3  C   LIG    1       -1.507   1.867  -0.103  0.00  0.00    +0.310 C 
ATOM      4  O   LIG    1        1.078  -0.515   0.392  0.00  0.00    -0.500 OA
ENDROOT
BRANCH   1   8
ATOM      5  C   LIG    1       -4.747  -1.405   1.162  0.00  0.00    +0.210 C 
ATOM      6  C   LIG    1       -3.245  -1.413   1.031  0.00  0.00    +0.220 A 
ATOM      7  N   LIG    1       -2.494  -0.397   0.691  0.00  0.00    -0.470 NA
ATOM      8  C   LIG    1       -1.218  -0.825   0.693  0.00  0.00    +0.150 A 
ATOM      9  N   LIG    1       -1.217  -2.096   1.030  0.00  0.00    -0.250 NA
ATOM     10  N   LIG    1       -2.433  -2.468   1.243  0.00  0.00    -0.250 N 
BRANCH  10  11
ATOM     11  C   LIG    1       -2.841  -3.753   1.626  0.00  0.00    +0.110 A 
ATOM     12  C   LIG    1       -2.102  -4.469   2.558  0.00  0.00    +0.090 A 
ATOM     13  C   LIG    1       -2.509  -5.734   2.937  0.00  0.00    +0.010 A 
ATOM     14  C   LIG    1       -3.648  -6.291   2.380  0.00  0.00    +0.120 A 
ATOM     15  C   LIG    1       -4.384  -5.580   1.447  0.00  0.00    +0.010 A 
ATOM     16  F   LIG    1       -4.042  -7.530   2.749  0.00  0.00    -0.130 F 
ATOM     17  C   LIG    1       -3.983  -4.314   1.070  0.00  0.00    +0.070 A 
ENDBRANCH  10  11
ENDBRANCH   1   8
BRANCH   2  18
ATOM     18  C   LIG    1        1.017   2.124  -0.168  0.00  0.00    +0.420 C 
BRANCH  18  19
ATOM     19  C   LIG    1        1.420   2.067  -1.619  0.00  0.00    -0.040 A 
ATOM     20  C   LIG    1        0.989   2.894  -2.588  0.00  0.00    -0.040 A 
ATOM     21  C   LIG    1        1.616   2.483  -3.786  0.00  0.00    -0.060 A 
ATOM     22  C   LIG    1        2.393   1.429  -3.478  0.00  0.00    +0.030 A 
ATOM     23  O   LIG    1        2.274   1.185  -2.162  0.00  0.00    -0.160 OA
BRANCH  22  24
ATOM     24  C   LIG    1        3.255   0.656  -4.443  0.00  0.00    +0.040 C 
ATOM     25  C   LIG    1        4.218  -0.379  -3.858  0.00  0.00    +0.040 C 
ATOM     26  C   LIG    1        2.966  -0.837  -4.610  0.00  0.00    -0.030 C 
ATOM     27  C   LIG    1        1.823  -1.432  -3.784  0.00  0.00    +0.060 C 
ENDBRANCH  22  24
ENDBRANCH  18  19
ENDBRANCH   2  18
TORSDOF 5
