REMARK  Name = ZINCrH000004sPWD.0
REMARK                            x       y       z     vdW  Elec       q    Type
REMARK                         _______ _______ _______ _____ _____    ______ ____
ROOT
ATOM      1  C   LIG    1       -1.503  -2.884   0.799  0.00  0.00    +0.110 C 
ATOM      2  C   LIG    1       -2.988  -3.238   0.692  0.00  0.00    +0.040 C 
ATOM      3  C   LIG    1       -3.766  -2.025   0.176  0.00  0.00    +0.030 C 
ATOM      4  C   LIG    1       -3.616  -0.866   1.173  0.00  0.00    +0.270 C 
ATOM      5  N   LIG    1       -2.184  -0.616   1.387  0.00  0.00    -0.630 N 
ATOM      6  C   LIG    1       -1.669   0.617   1.216  0.00  0.00    +0.710 C 
ATOM      7  N   LIG    1       -2.442   1.609   0.732  0.00  0.00    -0.740 N 
ATOM      8  H   LIG    1       -3.389   1.458   0.585  0.00  0.00    +0.400 HD
ATOM      9  O   LIG    1       -0.506   0.834   1.494  0.00  0.00    -0.580 OA
ATOM     10  C   LIG    1       -1.326  -1.736   1.798  0.00  0.00    +0.320 C 
ENDROOT
BRANCH   1  15
ATOM     11  C   LIG    1        1.714  -6.705   1.157  0.00  0.00    +0.200 C 
ATOM     12  C   LIG    1        0.622  -5.706   1.440  0.00  0.00    +0.170 A 
ATOM     13  N   LIG    1       -0.125  -5.664   2.503  0.00  0.00    -0.380 NA
ATOM     14  O   LIG    1       -0.905  -4.738   2.431  0.00  0.00    +0.080 OA
ATOM     15  C   LIG    1       -0.732  -4.088   1.276  0.00  0.00    +0.190 A 
ATOM     16  N   LIG    1        0.241  -4.695   0.640  0.00  0.00    -0.480 NA
ENDBRANCH   1  15
BRANCH   7  17
ATOM     17  C   LIG    1       -1.853   2.916   0.428  0.00  0.00    +0.340 C 
BRANCH  17  18
ATOM     18  C   LIG    1       -2.957   3.890   0.013  0.00  0.00    -0.110 C 
ATOM     19  C   LIG    1       -2.622   5.382   0.019  0.00  0.00    +0.070 C 
ATOM     20  C   LIG    1       -3.540   4.800   1.096  0.00  0.00    +0.040 C 
BRANCH  18  21
ATOM     21  C   LIG    1       -3.896   3.391  -1.056  0.00  0.00    -0.050 A 
ATOM     22  C   LIG    1       -5.219   3.136  -0.749  0.00  0.00    +0.070 A 
ATOM     23  C   LIG    1       -6.082   2.685  -1.730  0.00  0.00    +0.000 A 
ATOM     24  C   LIG    1       -5.618   2.477  -3.017  0.00  0.00    +0.110 A 
ATOM     25  C   LIG    1       -4.291   2.726  -3.323  0.00  0.00    +0.000 A 
ATOM     26  F   LIG    1       -6.460   2.030  -3.975  0.00  0.00    -0.130 F 
ATOM     27  C   LIG    1       -3.430   3.184  -2.342  0.00  0.00    +0.000 A 
ATOM     28 CL   LIG    1       -1.766   3.498  -2.725  0.00  0.00    -0.040 Cl
ENDBRANCH  18  21
ENDBRANCH  17  18
ENDBRANCH   7  17
TORSDOF 4
