REMARK  Name = ZINCpk00000xYs9e.0
REMARK                            x       y       z     vdW  Elec       q    Type
REMARK                         _______ _______ _______ _____ _____    ______ ____
ROOT
ATOM      1  O   LIG    1        6.133  -1.098   1.777  0.00  0.00    -0.530 OA
ATOM      2  C   LIG    1        6.002   0.093   1.572  0.00  0.00    +0.600 C 
ATOM      3  N   LIG    1        4.772   0.645   1.571  0.00  0.00    -0.610 N 
ATOM      4  C   LIG    1        4.599   2.100   1.448  0.00  0.00    +0.280 C 
ATOM      5  C   LIG    1        3.683   2.579   2.580  0.00  0.00    +0.210 C 
ATOM      6  N   LIG    1        2.437   1.801   2.560  0.00  0.00    -0.470 N 
ATOM      7  C   LIG    1        2.694   0.377   2.817  0.00  0.00    +0.200 C 
ATOM      8  C   LIG    1        3.569  -0.191   1.695  0.00  0.00    +0.310 C 
ENDROOT
BRANCH   6   9
ATOM      9  C   LIG    1        1.515   2.313   3.467  0.00  0.00    +0.300 A 
ATOM     10  C   LIG    1        0.268   1.710   3.595  0.00  0.00    -0.010 A 
ATOM     11  C   LIG    1       -0.642   2.232   4.497  0.00  0.00    +0.070 A 
ATOM     12  C   LIG    1       -0.269   3.339   5.250  0.00  0.00    +0.020 A 
ATOM     13  C   LIG    1        0.987   3.887   5.070  0.00  0.00    +0.270 A 
ATOM     14  F   LIG    1       -1.127   3.876   6.146  0.00  0.00    -0.130 F 
ATOM     15  N   LIG    1        1.832   3.370   4.198  0.00  0.00    -0.490 NA
ENDBRANCH   6   9
BRANCH   2  16
ATOM     16  C   LIG    1        7.188   0.933   1.323  0.00  0.00    -0.280 A 
ATOM     17  C   LIG    1        7.285   1.963   0.410  0.00  0.00    +0.290 A 
ATOM     18  N   LIG    1        8.527   2.466   0.501  0.00  0.00    -0.460 N 
ATOM     19  H   LIG    1        8.881   3.201  -0.023  0.00  0.00    +0.450 HD
ATOM     20  N   LIG    1        9.224   1.750   1.481  0.00  0.00    -0.280 NA
ATOM     21  C   LIG    1        8.435   0.839   1.981  0.00  0.00    +0.140 A 
BRANCH  21  22
ATOM     22  C   LIG    1        8.792  -0.143   3.066  0.00  0.00    +0.060 C 
ATOM     23  C   LIG    1        9.235   0.603   4.348  0.00  0.00    +0.010 C 
ATOM     24  C   LIG    1       10.430  -0.263   4.829  0.00  0.00    +0.210 C 
ATOM     25  O   LIG    1       11.072  -0.665   3.600  0.00  0.00    -0.370 OA
ATOM     26  C   LIG    1       10.028  -0.969   2.660  0.00  0.00    +0.220 C 
ENDBRANCH  21  22
ENDBRANCH   2  16
TORSDOF 3
