REMARK  Name = ZINCvU00000005J2.0
REMARK                            x       y       z     vdW  Elec       q    Type
REMARK                         _______ _______ _______ _____ _____    ______ ____
ROOT
ATOM      1  C   LIG    1        6.827  -1.873   0.380  0.00  0.00    +0.560 C 
ATOM      2  N   LIG    1        8.092  -1.875  -0.084  0.00  0.00    -0.710 N 
ATOM      3  H   LIG    1        8.505  -1.046  -0.372  0.00  0.00    +0.410 HD
ATOM      4  O   LIG    1        6.310  -2.913   0.741  0.00  0.00    -0.510 OA
ENDROOT
BRANCH   1  10
ATOM      5  C   LIG    1        4.751  -0.603   0.933  0.00  0.00    -0.060 A 
ATOM      6  C   LIG    1        4.051   0.596   1.001  0.00  0.00    -0.010 A 
ATOM      7  C   LIG    1        4.648   1.770   0.589  0.00  0.00    +0.060 A 
ATOM      8  C   LIG    1        5.947   1.764   0.106  0.00  0.00    +0.000 A 
ATOM      9  C   LIG    1        6.658   0.586   0.032  0.00  0.00    +0.070 A 
ATOM     10  C   LIG    1        6.070  -0.610   0.451  0.00  0.00    -0.130 A 
BRANCH   5  11
ATOM     11  S   LIG    1        3.992  -2.103   1.458  0.00  0.00    +0.110 S 
BRANCH  11  17
ATOM     12  C   LIG    1        2.126  -0.929   3.103  0.00  0.00    +0.020 A 
ATOM     13  C   LIG    1        0.828  -0.530   3.431  0.00  0.00    +0.060 A 
ATOM     14  C   LIG    1       -0.211  -0.788   2.563  0.00  0.00    +0.050 A 
ATOM     15  C   LIG    1        0.024  -1.444   1.365  0.00  0.00    +0.040 A 
ATOM     16  C   LIG    1        1.301  -1.845   1.026  0.00  0.00    +0.080 A 
ATOM     17  C   LIG    1        2.361  -1.593   1.888  0.00  0.00    -0.150 A 
BRANCH  12  19
ATOM     18  N   LIG    1        4.070  -0.452   4.712  0.00  0.00    -0.390 NA
ATOM     19  C   LIG    1        3.210  -0.663   4.000  0.00  0.00    +0.240 C 
ENDBRANCH  12  19
ENDBRANCH  11  17
ENDBRANCH   5  11
ENDBRANCH   1  10
BRANCH   2  20
ATOM     20  C   LIG    1        8.845  -3.130  -0.154  0.00  0.00    +0.290 C 
BRANCH  20  21
ATOM     21  C   LIG    1       10.281  -2.840  -0.593  0.00  0.00    +0.280 C 
BRANCH  21  22
ATOM     22  N   LIG    1       10.888  -1.869   0.328  0.00  0.00    -0.520 NA
ATOM     23  C   LIG    1       12.230  -1.481  -0.125  0.00  0.00    +0.170 C 
ATOM     24  C   LIG    1       12.770  -0.366   0.773  0.00  0.00    +0.020 C 
ATOM     25  C   LIG    1       12.823  -0.862   2.220  0.00  0.00    +0.000 C 
ATOM     26  C   LIG    1       11.422  -1.305   2.651  0.00  0.00    +0.020 C 
ATOM     27  C   LIG    1       10.921  -2.393   1.699  0.00  0.00    +0.170 C 
ENDBRANCH  21  22
BRANCH  21  28
ATOM     28  C   LIG    1       11.081  -4.117  -0.573  0.00  0.00    -0.050 A 
ATOM     29  C   LIG    1       11.584  -4.747  -1.650  0.00  0.00    -0.040 A 
ATOM     30  C   LIG    1       12.259  -5.895  -1.175  0.00  0.00    -0.060 A 
ATOM     31  C   LIG    1       12.121  -5.902   0.163  0.00  0.00    +0.160 A 
ATOM     32  O   LIG    1       11.406  -4.823   0.522  0.00  0.00    -0.170 OA
ENDBRANCH  21  28
ENDBRANCH  20  21
ENDBRANCH   2  20
TORSDOF 8
