REMARK  Name = ZINCrH000004tLwh.0
REMARK                            x       y       z     vdW  Elec       q    Type
REMARK                         _______ _______ _______ _____ _____    ______ ____
ROOT
ATOM      1  O   LIG    1        1.675  -4.652  -0.339  0.00  0.00    -0.490 OA
ATOM      2  C   LIG    1        1.484  -4.080  -1.391  0.00  0.00    +0.510 C 
ATOM      3  N   LIG    1        1.503  -4.771  -2.548  0.00  0.00    -0.670 N 
ATOM      4  H   LIG    1        1.272  -4.330  -3.381  0.00  0.00    +0.410 HD
ENDROOT
BRANCH   3   5
ATOM      5  C   LIG    1        1.857  -6.123  -2.548  0.00  0.00    +0.160 A 
ATOM      6  C   LIG    1        2.658  -6.633  -1.538  0.00  0.00    +0.020 A 
ATOM      7  C   LIG    1        3.001  -7.972  -1.536  0.00  0.00    +0.040 A 
ATOM      8  C   LIG    1        2.560  -8.807  -2.547  0.00  0.00    -0.010 A 
ATOM      9  C   LIG    1        1.767  -8.312  -3.563  0.00  0.00    +0.040 A 
ATOM     10  C   LIG    1        1.409  -6.966  -3.572  0.00  0.00    -0.080 A 
BRANCH  10  11
ATOM     11  C   LIG    1        0.557  -6.429  -4.661  0.00  0.00    -0.050 A 
ATOM     12  C   LIG    1       -0.574  -5.675  -4.357  0.00  0.00    +0.000 A 
ATOM     13  C   LIG    1       -1.360  -5.173  -5.374  0.00  0.00    +0.000 A 
ATOM     14  C   LIG    1       -1.032  -5.426  -6.694  0.00  0.00    +0.000 A 
ATOM     15  C   LIG    1        0.087  -6.179  -7.002  0.00  0.00    +0.010 A 
ATOM     16  C   LIG    1        0.883  -6.681  -5.992  0.00  0.00    +0.030 A 
ENDBRANCH  10  11
ENDBRANCH   3   5
BRANCH   2  17
ATOM     17  C   LIG    1        1.224  -2.595  -1.405  0.00  0.00    +0.230 C 
BRANCH  17  18
ATOM     18  N   LIG    1        1.255  -2.080  -0.029  0.00  0.00    -0.460 N 
ATOM     19  C   LIG    1        0.160  -2.644   0.767  0.00  0.00    +0.290 C 
ATOM     20  C   LIG    1       -1.148  -2.011   0.369  0.00  0.00    +0.480 C 
ATOM     21  N   LIG    1       -1.173  -0.709   0.007  0.00  0.00    -0.670 N 
ATOM     22  H   LIG    1       -2.007  -0.280  -0.241  0.00  0.00    +0.410 HD
ATOM     23  C   LIG    1        0.033   0.008  -0.004  0.00  0.00    +0.130 A 
ATOM     24  C   LIG    1        0.024   1.393   0.003  0.00  0.00    -0.010 A 
ATOM     25  C   LIG    1        1.220   2.089  -0.002  0.00  0.00    +0.040 A 
ATOM     26  C   LIG    1        2.421   1.406  -0.013  0.00  0.00    +0.000 A 
ATOM     27  C   LIG    1        2.437   0.023  -0.021  0.00  0.00    +0.080 A 
ATOM     28  O   LIG    1       -2.170  -2.664   0.374  0.00  0.00    -0.510 OA
ATOM     29  C   LIG    1        1.244  -0.683  -0.017  0.00  0.00    +0.050 A 
ENDBRANCH  17  18
ENDBRANCH   2  17
TORSDOF 4
