REMARK  Name = ZINCkj000005h9N0.1
REMARK                            x       y       z     vdW  Elec       q    Type
REMARK                         _______ _______ _______ _____ _____    ______ ____
ROOT
ATOM      1  N   LIG    1       -2.336   6.678   1.460  0.00  0.00    -0.770 N 
ATOM      2  H   LIG    1       -2.776   6.995   0.656  0.00  0.00    +0.390 HD
ATOM      3  C   LIG    1       -2.302   7.454   2.561  0.00  0.00    +0.710 C 
ATOM      4  N   LIG    1       -2.880   8.671   2.545  0.00  0.00    -0.730 N 
ATOM      5  H   LIG    1       -3.321   8.989   1.741  0.00  0.00    +0.400 HD
ATOM      6  O   LIG    1       -1.749   7.056   3.568  0.00  0.00    -0.570 OA
ENDROOT
BRANCH   1   7
ATOM      7  C   LIG    1       -1.707   5.355   1.476  0.00  0.00    +0.340 C 
BRANCH   7   8
ATOM      8  C   LIG    1       -1.775   4.740   0.077  0.00  0.00    +0.290 C 
BRANCH   8   9
ATOM      9  C   LIG    1       -1.011   3.440   0.062  0.00  0.00    -0.100 A 
ATOM     10  C   LIG    1       -1.552   2.211  -0.019  0.00  0.00    +0.040 A 
ATOM     11  C   LIG    1       -0.480   1.290   0.002  0.00  0.00    -0.050 A 
ATOM     12  C   LIG    1        0.652   2.011   0.086  0.00  0.00    +0.230 A 
ATOM     13  O   LIG    1        0.324   3.313   0.122  0.00  0.00    -0.180 OA
ENDBRANCH   8   9
BRANCH   8  15
ATOM     14  C   LIG    1        0.218   5.929  -0.531  0.00  0.00    +0.340 C 
ATOM     15  N   LIG    1       -1.181   5.668  -0.895  0.00  0.00    -0.390 N 
ATOM     16  C   LIG    1       -1.235   5.072  -2.236  0.00  0.00    +0.330 C 
ATOM     17  H   LIG    1       -1.698   6.535  -0.891  0.00  0.00    +0.420 HD
ENDBRANCH   8  15
ENDBRANCH   7   8
ENDBRANCH   1   7
BRANCH   4  18
ATOM     18  C   LIG    1       -2.844   9.515   3.742  0.00  0.00    +0.310 C 
BRANCH  18  19
ATOM     19  C   LIG    1       -3.567  10.833   3.459  0.00  0.00    +0.140 C 
ATOM     20  C   LIG    1       -3.527  11.732   4.710  0.00  0.00    +0.010 C 
ATOM     21  C   LIG    1       -2.819  13.022   4.229  0.00  0.00    +0.010 C 
ATOM     22  C   LIG    1       -3.022  12.950   2.694  0.00  0.00    +0.220 C 
ATOM     23  O   LIG    1       -2.899  11.540   2.401  0.00  0.00    -0.380 OA
ENDBRANCH  18  19
ENDBRANCH   4  18
TORSDOF 6
