REMARK  Name = ZINCrg000000oVeR.0
REMARK                            x       y       z     vdW  Elec       q    Type
REMARK                         _______ _______ _______ _____ _____    ______ ____
ROOT
ATOM      1  C   LIG    1        0.305   8.285  -0.320  0.00  0.00    +0.490 C 
ATOM      2  N   LIG    1        1.456   7.596  -0.189  0.00  0.00    -0.670 N 
ATOM      3  H   LIG    1        2.300   8.070  -0.124  0.00  0.00    +0.410 HD
ATOM      4  O   LIG    1       -0.757   7.700  -0.305  0.00  0.00    -0.500 OA
ENDROOT
BRANCH   2   5
ATOM      5  C   LIG    1        1.433   6.196  -0.147  0.00  0.00    +0.120 A 
ATOM      6  C   LIG    1        0.483   5.495  -0.879  0.00  0.00    +0.050 A 
ATOM      7  C   LIG    1        0.460   4.115  -0.837  0.00  0.00    +0.010 A 
ATOM      8  C   LIG    1        1.387   3.428  -0.064  0.00  0.00    +0.100 A 
ATOM      9  C   LIG    1        2.333   4.129   0.672  0.00  0.00    -0.020 A 
ATOM     10  C   LIG    1        2.360   5.509   0.626  0.00  0.00    +0.020 A 
BRANCH   8  11
ATOM     11  N   LIG    1        1.364   2.030  -0.021  0.00  0.00    -0.490 N 
ATOM     12  C   LIG    1        2.426   1.511   0.853  0.00  0.00    +0.160 C 
ATOM     13  C   LIG    1        2.327  -0.015   0.917  0.00  0.00    +0.220 C 
ATOM     14  O   LIG    1        2.407  -0.549  -0.407  0.00  0.00    -0.380 OA
ATOM     15  C   LIG    1        1.387  -0.066  -1.285  0.00  0.00    +0.220 C 
ATOM     16  C   LIG    1        1.477   1.460  -1.372  0.00  0.00    +0.160 C 
ENDBRANCH   8  11
ENDBRANCH   2   5
BRANCH   1  17
ATOM     17  C   LIG    1        0.338   9.783  -0.484  0.00  0.00    +0.350 C 
BRANCH  17  19
ATOM     18  C   LIG    1       -1.774  10.685   0.593  0.00  0.00    +0.310 C 
ATOM     19  N   LIG    1       -1.030  10.291  -0.606  0.00  0.00    -0.590 N 
BRANCH  19  20
ATOM     20  C   LIG    1       -1.621  10.399  -1.853  0.00  0.00    +0.420 A 
ATOM     21  C   LIG    1       -0.930  10.039  -2.974  0.00  0.00    +0.110 A 
ATOM     22  N   LIG    1       -1.484  10.132  -4.179  0.00  0.00    -0.380 NA
ATOM     23  C   LIG    1       -2.708  10.582  -4.337  0.00  0.00    +0.270 A 
ATOM     24  C   LIG    1       -3.459  10.972  -3.215  0.00  0.00    +0.270 A 
ATOM     25  N   LIG    1       -4.685  11.452  -3.053  0.00  0.00    -0.530 NA
ATOM     26  C   LIG    1       -4.918  11.659  -1.765  0.00  0.00    +0.480 A 
ATOM     27  N   LIG    1       -3.859  11.322  -1.065  0.00  0.00    -0.340 NA
ATOM     28  N   LIG    1       -2.894  10.872  -1.972  0.00  0.00    -0.300 N 
ENDBRANCH  19  20
ENDBRANCH  17  19
ENDBRANCH   1  17
TORSDOF 5
