REMARK  Name = ZINCpk00000y6yaU.0
REMARK                            x       y       z     vdW  Elec       q    Type
REMARK                         _______ _______ _______ _____ _____    ______ ____
ROOT
ATOM      1  C   LIG    1        6.014  -1.405   2.944  0.00  0.00    +0.190 C 
ENDROOT
BRANCH   1   2
ATOM      2  N   LIG    1        7.232  -2.226   2.952  0.00  0.00    -0.470 NA
ATOM      3  C   LIG    1        6.964  -3.582   2.406  0.00  0.00    +0.170 C 
ATOM      4  C   LIG    1        8.136  -4.427   2.964  0.00  0.00    +0.170 C 
ATOM      5  C   LIG    1        8.335  -3.848   4.383  0.00  0.00    +0.050 C 
ATOM      6  C   LIG    1        7.720  -2.437   4.332  0.00  0.00    +0.230 C 
BRANCH   6   7
ATOM      7  C   LIG    1        8.768  -1.407   4.669  0.00  0.00    +0.210 A 
ATOM      8  N   LIG    1        9.524  -0.782   3.808  0.00  0.00    -0.450 NA
ATOM      9  C   LIG    1       10.335   0.061   4.463  0.00  0.00    +0.140 A 
ATOM     10  C   LIG    1       10.078  -0.051   5.780  0.00  0.00    +0.120 A 
ATOM     11  N   LIG    1        9.083  -0.983   5.911  0.00  0.00    -0.570 N 
ATOM     12  H   LIG    1        8.680  -1.282   6.741  0.00  0.00    +0.420 HD
ENDBRANCH   6   7
BRANCH   4  13
ATOM     13  O   LIG    1        7.778  -5.809   3.027  0.00  0.00    -0.380 OA
ATOM     14  C   LIG    1        8.114  -6.551   1.853  0.00  0.00    +0.200 C 
ENDBRANCH   4  13
ENDBRANCH   1   2
BRANCH   1  17
ATOM     15  N   LIG    1        4.428  -0.517   1.266  0.00  0.00    -0.730 N 
ATOM     16  H   LIG    1        3.860  -0.232   2.000  0.00  0.00    +0.400 HD
ATOM     17  C   LIG    1        5.593  -1.145   1.520  0.00  0.00    +0.520 C 
ATOM     18  O   LIG    1        6.302  -1.501   0.603  0.00  0.00    -0.510 OA
BRANCH  15  19
ATOM     19  C   LIG    1        4.019  -0.264  -0.118  0.00  0.00    +0.330 C 
BRANCH  19  25
ATOM     20  C   LIG    1        2.631   1.813   0.104  0.00  0.00    +0.140 A 
ATOM     21  C   LIG    1        1.405   2.463   0.096  0.00  0.00    -0.080 A 
ATOM     22  C   LIG    1        0.247   1.749  -0.141  0.00  0.00    +0.060 A 
ATOM     23  C   LIG    1        0.308   0.387  -0.371  0.00  0.00    -0.030 A 
ATOM     24  C   LIG    1        1.528  -0.263  -0.364  0.00  0.00    +0.070 A 
ATOM     25  C   LIG    1        2.689   0.446  -0.127  0.00  0.00    -0.140 A 
BRANCH  20  27
ATOM     26  C   LIG    1        3.635   3.917   0.568  0.00  0.00    +0.250 C 
ATOM     27  O   LIG    1        3.772   2.513   0.339  0.00  0.00    -0.310 OA
ENDBRANCH  20  27
ENDBRANCH  19  25
ENDBRANCH  15  19
ENDBRANCH   1  17
TORSDOF 7
