REMARK  Name = ZINCnE000001LtB7.1
REMARK                            x       y       z     vdW  Elec       q    Type
REMARK                         _______ _______ _______ _____ _____    ______ ____
ROOT
ATOM      1  N   LIG    1        1.143   1.898   0.001  0.00  0.00    -0.690 NA
ATOM      2  C   LIG    1       -0.014   1.208   0.009  0.00  0.00    +0.460 C 
ATOM      3  O   LIG    1        0.002  -0.004   0.002  0.00  0.00    -0.550 OA
ENDROOT
BRANCH   1   9
ATOM      4  C   LIG    1        6.432  -1.272  -0.063  0.00  0.00    +0.080 A 
ATOM      5  C   LIG    1        5.453  -2.261  -0.059  0.00  0.00    -0.050 A 
ATOM      6  C   LIG    1        4.123  -1.926  -0.045  0.00  0.00    +0.060 A 
ATOM      7  C   LIG    1        3.726  -0.572  -0.036  0.00  0.00    +0.120 A 
ATOM      8  N   LIG    1        2.478  -0.059  -0.016  0.00  0.00    -0.550 NA
ATOM      9  C   LIG    1        2.353   1.222  -0.014  0.00  0.00    +0.400 A 
ATOM     10  S   LIG    1        3.933   1.992  -0.025  0.00  0.00    -0.020 S 
ATOM     11  C   LIG    1        4.718   0.414  -0.040  0.00  0.00    -0.180 A 
ATOM     12  C   LIG    1        6.064   0.060  -0.054  0.00  0.00    +0.030 A 
BRANCH   4  14
ATOM     13  C   LIG    1        8.053  -3.011  -0.086  0.00  0.00    +0.220 C 
ATOM     14  O   LIG    1        7.747  -1.615  -0.077  0.00  0.00    -0.320 OA
ENDBRANCH   4  14
ENDBRANCH   1   9
BRANCH   2  15
ATOM     15  C   LIG    1       -1.330   1.944   0.019  0.00  0.00    +0.220 C 
BRANCH  15  16
ATOM     16  O   LIG    1       -2.403   1.001   0.019  0.00  0.00    -0.290 OA
BRANCH  16  17
ATOM     17  C   LIG    1       -3.666   1.503   0.028  0.00  0.00    +0.130 A 
ATOM     18  C   LIG    1       -3.867   2.876   0.042  0.00  0.00    -0.050 A 
ATOM     19  C   LIG    1       -5.151   3.385   0.046  0.00  0.00    +0.030 A 
ATOM     20  C   LIG    1       -6.237   2.526   0.046  0.00  0.00    +0.040 A 
ATOM     21  C   LIG    1       -6.038   1.156   0.037  0.00  0.00    +0.030 A 
ATOM     22  F   LIG    1       -7.493   3.026   0.056  0.00  0.00    -0.150 F 
ATOM     23  C   LIG    1       -4.755   0.644   0.028  0.00  0.00    +0.010 A 
ENDBRANCH  16  17
ENDBRANCH  15  16
ENDBRANCH   2  15
TORSDOF 5
