REMARK  Name = ZINCvU00000004iJ.0
REMARK                            x       y       z     vdW  Elec       q    Type
REMARK                         _______ _______ _______ _____ _____    ______ ____
ROOT
ATOM      1  C   LIG    1        5.511  -8.208  -0.204  0.00  0.00    +0.510 C 
ATOM      2  N   LIG    1        4.209  -7.880  -0.087  0.00  0.00    -0.680 N 
ATOM      3  H   LIG    1        3.538  -8.576  -0.006  0.00  0.00    +0.410 HD
ATOM      4  O   LIG    1        6.357  -7.339  -0.208  0.00  0.00    -0.500 OA
ENDROOT
BRANCH   2   5
ATOM      5  C   LIG    1        3.825  -6.536  -0.081  0.00  0.00    +0.170 A 
ATOM      6  C   LIG    1        4.533  -5.609  -0.838  0.00  0.00    +0.020 A 
ATOM      7  C   LIG    1        4.156  -4.284  -0.834  0.00  0.00    +0.100 A 
ATOM      8  C   LIG    1        3.063  -3.872  -0.069  0.00  0.00    -0.060 A 
ATOM      9  C   LIG    1        2.358  -4.805   0.694  0.00  0.00    +0.060 A 
ATOM     10  C   LIG    1        2.736  -6.130   0.682  0.00  0.00    -0.010 A 
BRANCH   8  11
ATOM     11  C   LIG    1        2.657  -2.451  -0.063  0.00  0.00    +0.170 A 
ATOM     12  N   LIG    1        3.245  -1.514  -0.728  0.00  0.00    -0.460 NA
ATOM     13  C   LIG    1        2.758  -0.265  -0.620  0.00  0.00    +0.080 A 
ATOM     14  C   LIG    1        3.216   0.919  -1.237  0.00  0.00    +0.080 A 
ATOM     15  C   LIG    1        2.591   2.106  -1.006  0.00  0.00    +0.030 A 
ATOM     16  C   LIG    1        1.492   2.177  -0.163  0.00  0.00    +0.040 A 
ATOM     17  C   LIG    1        1.021   1.039   0.453  0.00  0.00    +0.060 A 
ATOM     18  C   LIG    1        1.649  -0.185   0.230  0.00  0.00    -0.170 A 
ATOM     19  S   LIG    1        1.305  -1.797   0.851  0.00  0.00    +0.060 S 
ENDBRANCH   8  11
ENDBRANCH   2   5
BRANCH   1  20
ATOM     20  C   LIG    1        5.915  -9.654  -0.330  0.00  0.00    +0.120 C 
BRANCH  20  23
ATOM     21  C   LIG    1        9.567  -9.959   0.590  0.00  0.00    +0.150 A 
ATOM     22  C   LIG    1        8.187  -9.871   0.693  0.00  0.00    -0.090 A 
ATOM     23  C   LIG    1        7.414  -9.749  -0.446  0.00  0.00    +0.000 A 
ATOM     24  C   LIG    1        8.012  -9.718  -1.692  0.00  0.00    -0.090 A 
ATOM     25  C   LIG    1        9.392  -9.799  -1.803  0.00  0.00    +0.150 A 
ATOM     26  C   LIG    1       10.173  -9.923  -0.660  0.00  0.00    +0.030 A 
BRANCH  21  28
ATOM     27  C   LIG    1        9.637 -10.112   2.963  0.00  0.00    +0.240 C 
ATOM     28  O   LIG    1       10.327 -10.081   1.712  0.00  0.00    -0.300 OA
ENDBRANCH  21  28
BRANCH  25  29
ATOM     29  O   LIG    1        9.980  -9.763  -3.029  0.00  0.00    -0.300 OA
ATOM     30  C   LIG    1        9.116  -9.634  -4.159  0.00  0.00    +0.240 C 
ENDBRANCH  25  29
BRANCH  26  31
ATOM     31  O   LIG    1       11.527 -10.009  -0.765  0.00  0.00    -0.310 OA
ATOM     32  C   LIG    1       12.086 -11.318  -0.894  0.00  0.00    +0.210 C 
ENDBRANCH  26  31
ENDBRANCH  20  23
ENDBRANCH   1  20
TORSDOF 7
