REMARK  Name = ZINCrH00000tj10G.0
REMARK                            x       y       z     vdW  Elec       q    Type
REMARK                         _______ _______ _______ _____ _____    ______ ____
ROOT
ATOM      1  C   LIG    1        0.002  -0.004   0.002  0.00  0.00    -0.190 A 
ATOM      2  C   LIG    1        0.023  -0.762   1.141  0.00  0.00    +0.050 A 
ATOM      3  S   LIG    1        0.042  -2.421   0.759  0.00  0.00    +0.310 S 
ATOM      4  C   LIG    1        0.022  -2.110  -0.969  0.00  0.00    -0.250 A 
ATOM      5  C   LIG    1        0.026  -3.181  -2.043  0.00  0.00    +0.120 C 
ATOM      6  C   LIG    1        0.403  -2.540  -3.378  0.00  0.00    -0.020 C 
ATOM      7  C   LIG    1        0.166  -3.537  -4.514  0.00  0.00    +0.030 C 
ATOM      8  C   LIG    1       -0.459  -1.294  -3.602  0.00  0.00    +0.030 C 
ATOM      9  C   LIG    1       -0.032  -0.204  -2.616  0.00  0.00    +0.090 C 
ATOM     10  C   LIG    1       -0.004  -0.795  -1.215  0.00  0.00    -0.040 A 
ENDROOT
BRANCH   2  11
ATOM     11  N   LIG    1        0.027  -0.249   2.428  0.00  0.00    -0.630 N 
ATOM     12  H   LIG    1        0.015   0.711   2.568  0.00  0.00    +0.420 HD
ATOM     13  C   LIG    1        0.048  -1.084   3.486  0.00  0.00    +0.510 C 
ATOM     14  O   LIG    1        0.063  -2.284   3.311  0.00  0.00    -0.470 OA
BRANCH  13  15
ATOM     15  C   LIG    1        0.052  -0.527   4.886  0.00  0.00    +0.200 C 
ATOM     16  C   LIG    1        1.291   0.349   5.082  0.00  0.00    +0.030 C 
BRANCH  15  17
ATOM     17  N   LIG    1        0.076  -1.632   5.853  0.00  0.00    -0.660 NA
ATOM     18  H   LIG    1        1.013  -1.988   5.973  0.00  0.00    +0.360 HD
BRANCH  17  19
ATOM     19  C   LIG    1       -0.498  -1.218   7.141  0.00  0.00    +0.300 C 
BRANCH  19  20
ATOM     20  C   LIG    1       -0.456  -2.376   8.105  0.00  0.00    -0.010 A 
ATOM     21  C   LIG    1        0.555  -2.666   8.943  0.00  0.00    -0.050 A 
ATOM     22  C   LIG    1        0.175  -3.824   9.659  0.00  0.00    -0.070 A 
ATOM     23  C   LIG    1       -1.043  -4.177   9.210  0.00  0.00    +0.170 A 
ATOM     24  O   LIG    1       -1.420  -3.296   8.269  0.00  0.00    -0.170 OA
ENDBRANCH  19  20
ENDBRANCH  17  19
ENDBRANCH  15  17
ENDBRANCH  13  15
ENDBRANCH   2  11
BRANCH   1  25
ATOM     25  C   LIG    1       -0.018   1.460   0.010  0.00  0.00    +0.540 C 
ATOM     26  O   LIG    1        1.027   2.083   0.003  0.00  0.00    -0.490 OA
BRANCH  25  27
ATOM     27  O   LIG    1       -1.195   2.119   0.019  0.00  0.00    -0.350 OA
BRANCH  27  29
ATOM     28  C   LIG    1       -2.560   4.135   0.037  0.00  0.00    +0.070 C 
ATOM     29  C   LIG    1       -1.139   3.570   0.027  0.00  0.00    +0.200 C 
ENDBRANCH  27  29
ENDBRANCH  25  27
ENDBRANCH   1  25
TORSDOF 8
