REMARK  Name = ZINCqH0000003Tb2.1
REMARK                            x       y       z     vdW  Elec       q    Type
REMARK                         _______ _______ _______ _____ _____    ______ ____
ROOT
ATOM      1  N   LIG    1       -0.312   1.286  -4.941  0.00  0.00    -0.670 N 
ATOM      2  H   LIG    1        0.523   0.804  -5.042  0.00  0.00    +0.410 HD
ATOM      3  C   LIG    1       -0.767   1.595  -3.711  0.00  0.00    +0.520 C 
ATOM      4  O   LIG    1       -1.758   2.283  -3.586  0.00  0.00    -0.500 OA
ENDROOT
BRANCH   1   9
ATOM      5  C   LIG    1       -3.137   2.236  -7.099  0.00  0.00    -0.650 A 
ATOM      6  C   LIG    1       -2.498   2.402  -8.314  0.00  0.00    +0.120 A 
ATOM      7  C   LIG    1       -1.134   2.198  -8.416  0.00  0.00    +0.000 A 
ATOM      8  C   LIG    1       -0.403   1.833  -7.298  0.00  0.00    +0.130 A 
ATOM      9  C   LIG    1       -1.046   1.660  -6.075  0.00  0.00    +0.110 A 
ATOM     10  C   LIG    1       -2.415   1.866  -5.980  0.00  0.00    +0.150 A 
BRANCH   5  11
ATOM     11  S   LIG    1       -4.875   2.497  -6.977  0.00  0.00    +2.500 S 
ATOM     12  O   LIG    1       -5.274   1.689  -5.878  0.00  0.00    -0.930 OA
ATOM     13  O   LIG    1       -5.361   2.242  -8.288  0.00  0.00    -0.930 OA
BRANCH  11  15
ATOM     14  C   LIG    1       -6.524   4.610  -6.433  0.00  0.00    +0.080 C 
ATOM     15  C   LIG    1       -5.041   4.256  -6.567  0.00  0.00    -0.330 C 
ENDBRANCH  11  15
ENDBRANCH   5  11
BRANCH   8  16
ATOM     16  O   LIG    1        0.939   1.638  -7.396  0.00  0.00    -0.490 OA
ATOM     17  H   LIG    1        1.190   0.730  -7.617  0.00  0.00    +0.400 HD
ENDBRANCH   8  16
ENDBRANCH   1   9
BRANCH   3  18
ATOM     18  C   LIG    1       -0.045   1.086  -2.490  0.00  0.00    +0.070 C 
BRANCH  18  19
ATOM     19  C   LIG    1       -0.762   1.577  -1.231  0.00  0.00    -0.030 C 
ATOM     20  C   LIG    1       -0.029   1.060   0.008  0.00  0.00    +0.020 C 
ATOM     21  C   LIG    1       -0.746   1.551   1.267  0.00  0.00    -0.010 C 
ATOM     22  C   LIG    1       -0.758   3.081   1.283  0.00  0.00    +0.010 C 
ATOM     23  C   LIG    1       -1.492   3.598   0.043  0.00  0.00    -0.010 C 
ATOM     24  C   LIG    1       -2.930   3.077   0.047  0.00  0.00    +0.010 C 
ATOM     25  C   LIG    1       -2.918   1.547   0.032  0.00  0.00    -0.010 C 
ATOM     26  C   LIG    1       -2.185   1.030   1.271  0.00  0.00    +0.010 C 
ATOM     27  C   LIG    1       -0.774   3.107  -1.216  0.00  0.00    +0.030 C 
ATOM     28  C   LIG    1       -2.201   1.056  -1.228  0.00  0.00    +0.020 C 
ENDBRANCH  18  19
ENDBRANCH   3  18
TORSDOF 6
