REMARK  Name = ZINCrH000004mosM.0
REMARK                            x       y       z     vdW  Elec       q    Type
REMARK                         _______ _______ _______ _____ _____    ______ ____
ROOT
ATOM      1  C   LIG    1       -0.782  11.842   0.065  0.00  0.00    +0.130 A 
ATOM      2  C   LIG    1       -2.116  11.675   0.076  0.00  0.00    -0.250 A 
ATOM      3  S   LIG    1       -2.456   9.946   0.065  0.00  0.00    +0.200 S 
ATOM      4  C   LIG    1       -0.728   9.607   0.054  0.00  0.00    +0.270 A 
ATOM      5  C   LIG    1       -3.144  12.777   0.092  0.00  0.00    +0.150 C 
ATOM      6  N   LIG    1       -0.070  10.724   0.053  0.00  0.00    -0.490 NA
ENDROOT
BRANCH   1  10
ATOM      7  C   LIG    1        1.029  15.691   0.066  0.00  0.00    +0.140 A 
ATOM      8  C   LIG    1        1.632  14.642   0.746  0.00  0.00    -0.020 A 
ATOM      9  C   LIG    1        1.047  13.392   0.748  0.00  0.00    +0.080 A 
ATOM     10  C   LIG    1       -0.151  13.184   0.066  0.00  0.00    -0.060 A 
ATOM     11  C   LIG    1       -0.751  14.239  -0.621  0.00  0.00    +0.070 A 
ATOM     12  C   LIG    1       -0.164  15.487  -0.614  0.00  0.00    -0.080 A 
BRANCH   7  14
ATOM     13  C   LIG    1        0.933  17.955  -0.653  0.00  0.00    +0.250 C 
ATOM     14  O   LIG    1        1.607  16.921   0.067  0.00  0.00    -0.320 OA
ENDBRANCH   7  14
ENDBRANCH   1  10
BRANCH   4  15
ATOM     15  N   LIG    1       -0.158   8.339   0.043  0.00  0.00    -0.610 N 
ATOM     16  H   LIG    1        0.807   8.241   0.034  0.00  0.00    +0.430 HD
ATOM     17  C   LIG    1       -0.947   7.246   0.046  0.00  0.00    +0.540 C 
ATOM     18  O   LIG    1       -2.153   7.369   0.058  0.00  0.00    -0.490 OA
BRANCH  17  19
ATOM     19  C   LIG    1       -0.329   5.872   0.033  0.00  0.00    +0.130 C 
BRANCH  19  20
ATOM     20  S   LIG    1       -1.638   4.622   0.040  0.00  0.00    +0.090 S 
BRANCH  20  21
ATOM     21  C   LIG    1       -0.661   3.155   0.024  0.00  0.00    +0.140 A 
ATOM     22  N   LIG    1        0.650   3.091   0.012  0.00  0.00    -0.290 NA
ATOM     23  N   LIG    1        1.026   1.862   0.002  0.00  0.00    -0.280 NA
ATOM     24  C   LIG    1       -0.013   1.076   0.008  0.00  0.00    +0.380 A 
ATOM     25  N   LIG    1       -1.125   1.871   0.017  0.00  0.00    -0.430 N 
BRANCH  25  26
ATOM     26  C   LIG    1       -2.524   1.436   0.021  0.00  0.00    +0.200 C 
ATOM     27  C   LIG    1       -2.799  -0.056   0.222  0.00  0.00    +0.070 C 
ATOM     28  C   LIG    1       -3.001   0.581  -1.155  0.00  0.00    +0.060 C 
ENDBRANCH  25  26
ENDBRANCH  20  21
ENDBRANCH  19  20
ENDBRANCH  17  19
ENDBRANCH   4  15
TORSDOF 7
