REMARK  Name = ZINCpk00000RUMTQ.0
REMARK                            x       y       z     vdW  Elec       q    Type
REMARK                         _______ _______ _______ _____ _____    ______ ____
ROOT
ATOM      1  C   LIG    1        5.285  -2.223  -0.071  0.00  0.00    -0.000 A 
ATOM      2  N   LIG    1        5.837  -1.034  -0.212  0.00  0.00    -0.220 NA
ATOM      3  N   LIG    1        4.943  -0.113  -0.143  0.00  0.00    -0.270 N 
ATOM      4  C   LIG    1        3.714  -0.671   0.054  0.00  0.00    +0.070 A 
ATOM      5  C   LIG    1        3.898  -2.024   0.111  0.00  0.00    +0.040 A 
ENDROOT
BRANCH   4   6
ATOM      6  C   LIG    1        2.430   0.051   0.188  0.00  0.00    -0.070 A 
ATOM      7  C   LIG    1        2.073   1.024  -0.745  0.00  0.00    +0.060 A 
ATOM      8  C   LIG    1        0.873   1.694  -0.616  0.00  0.00    -0.020 A 
ATOM      9  C   LIG    1        0.022   1.404   0.436  0.00  0.00    +0.070 A 
ATOM     10  C   LIG    1        0.366   0.442   1.367  0.00  0.00    -0.070 A 
ATOM     11  C   LIG    1        1.567  -0.239   1.251  0.00  0.00    +0.160 A 
BRANCH  11  12
ATOM     12  O   LIG    1        1.906  -1.185   2.165  0.00  0.00    -0.310 OA
BRANCH  12  13
ATOM     13  C   LIG    1        0.976  -1.428   3.222  0.00  0.00    +0.180 C 
ATOM     14  C   LIG    1        1.526  -2.518   4.145  0.00  0.00    +0.070 C 
ENDBRANCH  12  13
ENDBRANCH  11  12
ENDBRANCH   4   6
BRANCH   1  15
ATOM     15  C   LIG    1        5.986  -3.522  -0.093  0.00  0.00    +0.560 C 
ATOM     16  O   LIG    1        5.360  -4.553   0.048  0.00  0.00    -0.500 OA
BRANCH  15  17
ATOM     17  O   LIG    1        7.321  -3.563  -0.271  0.00  0.00    -0.340 OA
BRANCH  17  19
ATOM     18  C   LIG    1        9.452  -4.721  -0.493  0.00  0.00    +0.070 C 
ATOM     19  C   LIG    1        7.944  -4.874  -0.282  0.00  0.00    +0.200 C 
ENDBRANCH  17  19
ENDBRANCH  15  17
ENDBRANCH   1  15
BRANCH   3  20
ATOM     20  C   LIG    1        5.206   1.323  -0.258  0.00  0.00    +0.380 C 
BRANCH  20  21
ATOM     21  C   LIG    1        5.496   1.901   1.129  0.00  0.00    -0.370 C 
BRANCH  21  22
ATOM     22  S   LIG    1        5.821   3.680   0.986  0.00  0.00    +2.630 S 
ATOM     23  O   LIG    1        4.638   4.375   0.617  0.00  0.00    -0.950 OA
ATOM     24  O   LIG    1        7.048   3.910   0.307  0.00  0.00    -0.950 OA
BRANCH  22  25
ATOM     25  N   LIG    1        6.116   4.172   2.540  0.00  0.00    -1.250 NA
ATOM     26  H   LIG    1        5.691   3.714   3.282  0.00  0.00    +0.420 HD
ATOM     27  H   LIG    1        6.712   4.918   2.707  0.00  0.00    +0.420 HD
ENDBRANCH  22  25
ENDBRANCH  21  22
ENDBRANCH  20  21
ENDBRANCH   3  20
TORSDOF 10
