REMARK  Name = ZINCpe00000MJKqa.0
REMARK                            x       y       z     vdW  Elec       q    Type
REMARK                         _______ _______ _______ _____ _____    ______ ____
ROOT
ATOM      1  C   LIG    1        0.062  -0.165   0.274  0.00  0.00    +0.160 C 
ATOM      2  C   LIG    1       -0.163   1.370   0.218  0.00  0.00    +0.060 C 
ATOM      3  C   LIG    1        1.270   1.924   0.077  0.00  0.00    +0.230 C 
ATOM      4  N   LIG    1        2.188   0.895   0.586  0.00  0.00    -0.610 N 
ATOM      5  C   LIG    1        3.533   0.987   0.616  0.00  0.00    +0.530 C 
ATOM      6  O   LIG    1        4.086   1.943   0.116  0.00  0.00    -0.530 OA
ATOM      7  C   LIG    1        1.395  -0.255   1.057  0.00  0.00    +0.240 C 
ENDROOT
BRANCH   1   9
ATOM      8  C   LIG    1       -1.262  -2.145   0.545  0.00  0.00    +0.210 C 
ATOM      9  O   LIG    1       -0.996  -0.811   0.985  0.00  0.00    -0.370 OA
ENDBRANCH   1   9
BRANCH   5  10
ATOM     10  C   LIG    1        4.348  -0.098   1.272  0.00  0.00    +0.070 C 
BRANCH  10  11
ATOM     11  C   LIG    1        5.834   0.248   1.169  0.00  0.00    +0.130 C 
BRANCH  11  12
ATOM     12  C   LIG    1        6.649  -0.837   1.825  0.00  0.00    +0.180 A 
ATOM     13  C   LIG    1        7.652  -1.484   1.121  0.00  0.00    -0.080 A 
ATOM     14  C   LIG    1        8.379  -2.472   1.767  0.00  0.00    +0.330 A 
ATOM     15  N   LIG    1        8.085  -2.770   3.022  0.00  0.00    -0.520 NA
ATOM     16  C   LIG    1        7.121  -2.136   3.659  0.00  0.00    +0.320 A 
ATOM     17  C   LIG    1        6.820  -2.505   5.089  0.00  0.00    +0.180 C 
ATOM     18  N   LIG    1        6.413  -1.188   3.079  0.00  0.00    -0.520 NA
ENDBRANCH  11  12
ENDBRANCH  10  11
ENDBRANCH   5  10
BRANCH   3  19
ATOM     19  C   LIG    1        1.416   3.205   0.901  0.00  0.00    +0.330 C 
BRANCH  19  20
ATOM     20  N   LIG    1        0.541   4.242   0.349  0.00  0.00    -0.370 N 
ATOM     21  C   LIG    1       -0.411   4.919   1.026  0.00  0.00    +0.250 A 
ATOM     22  C   LIG    1       -0.995   5.785   0.167  0.00  0.00    -0.170 A 
ATOM     23  C   LIG    1       -0.377   5.633  -1.085  0.00  0.00    +0.340 A 
ATOM     24  N   LIG    1        0.549   4.710  -0.971  0.00  0.00    -0.350 NA
BRANCH  23  25
ATOM     25  N   LIG    1       -0.689   6.345  -2.248  0.00  0.00    -0.850 N 
ATOM     26  H   LIG    1       -0.204   6.169  -3.070  0.00  0.00    +0.400 HD
ATOM     27  H   LIG    1       -1.390   7.016  -2.233  0.00  0.00    +0.410 HD
ENDBRANCH  23  25
ENDBRANCH  19  20
ENDBRANCH   3  19
TORSDOF 7
