REMARK  Name = ZINCpk00000KfLQf.1
REMARK                            x       y       z     vdW  Elec       q    Type
REMARK                         _______ _______ _______ _____ _____    ______ ____
ROOT
ATOM      1  N   LIG    1        7.129   2.106  -0.052  0.00  0.00    -0.710 N 
ATOM      2  H   LIG    1        7.213   1.139  -0.058  0.00  0.00    +0.410 HD
ATOM      3  C   LIG    1        8.233   2.878  -0.058  0.00  0.00    +0.610 C 
ATOM      4  O   LIG    1        8.128   4.090  -0.051  0.00  0.00    -0.510 OA
ENDROOT
BRANCH   3   5
ATOM      5  C   LIG    1        9.568   2.255  -0.073  0.00  0.00    +0.030 A 
ATOM      6  N   LIG    1        9.837   0.967  -0.076  0.00  0.00    -0.190 NA
ATOM      7  N   LIG    1       11.101   0.740  -0.095  0.00  0.00    -0.400 N 
ATOM      8  H   LIG    1       11.498  -0.145  -0.103  0.00  0.00    +0.460 HD
ATOM      9  C   LIG    1       11.816   1.909  -0.095  0.00  0.00    +0.110 A 
ATOM     10  C   LIG    1       13.169   2.228  -0.105  0.00  0.00    +0.050 A 
ATOM     11  C   LIG    1       13.558   3.549  -0.102  0.00  0.00    +0.140 A 
ATOM     12  C   LIG    1       12.614   4.567  -0.088  0.00  0.00    -0.060 A 
ATOM     13  C   LIG    1       11.278   4.276  -0.078  0.00  0.00    +0.210 A 
ATOM     14  C   LIG    1       10.864   2.948  -0.081  0.00  0.00    -0.120 A 
BRANCH  12  15
ATOM     15  N   LIG    1       13.057   5.980  -0.084  0.00  0.00    +0.030 N 
ATOM     16  O   LIG    1       12.233   6.876  -0.072  0.00  0.00    -0.150 OA
ATOM     17  O   LIG    1       14.246   6.245  -0.093  0.00  0.00    -0.150 OA
ENDBRANCH  12  15
ENDBRANCH   3   5
BRANCH   1  18
ATOM     18  C   LIG    1        5.801   2.725  -0.037  0.00  0.00    +0.290 C 
BRANCH  18  19
ATOM     19  C   LIG    1        4.729   1.634  -0.033  0.00  0.00    +0.260 C 
BRANCH  19  20
ATOM     20  N   LIG    1        3.401   2.254  -0.018  0.00  0.00    -0.710 N 
ATOM     21  H   LIG    1        3.317   3.220  -0.012  0.00  0.00    +0.410 HD
BRANCH  20  26
ATOM     22  C   LIG    1       -1.293  -0.775   0.010  0.00  0.00    +0.150 C 
ATOM     23  C   LIG    1        0.002  -0.004   0.002  0.00  0.00    +0.020 A 
ATOM     24  C   LIG    1        1.213  -0.682  -0.013  0.00  0.00    +0.070 A 
ATOM     25  C   LIG    1        2.379   0.067  -0.020  0.00  0.00    -0.030 A 
ATOM     26  C   LIG    1        2.262   1.457  -0.012  0.00  0.00    +0.340 A 
ATOM     27  N   LIG    1        1.060   2.014   0.003  0.00  0.00    -0.300 NA
ATOM     28  N   LIG    1       -0.016   1.314   0.009  0.00  0.00    -0.200 NA
ENDBRANCH  20  26
ENDBRANCH  19  20
ENDBRANCH  18  19
ENDBRANCH   1  18
TORSDOF 6
