REMARK  Name = ZINCpk00000KfLQf.0
REMARK                            x       y       z     vdW  Elec       q    Type
REMARK                         _______ _______ _______ _____ _____    ______ ____
ROOT
ATOM      1  N   LIG    1        7.129   2.106  -0.052  0.00  0.00    -0.720 N 
ATOM      2  H   LIG    1        7.213   1.139  -0.058  0.00  0.00    +0.400 HD
ATOM      3  C   LIG    1        8.233   2.878  -0.058  0.00  0.00    +0.590 C 
ATOM      4  O   LIG    1        8.127   4.091  -0.051  0.00  0.00    -0.490 OA
ENDROOT
BRANCH   3   5
ATOM      5  C   LIG    1        9.560   2.259  -0.073  0.00  0.00    +0.010 A 
ATOM      6  C   LIG    1       10.795   2.919  -0.086  0.00  0.00    -0.120 A 
ATOM      7  C   LIG    1       11.234   4.249  -0.091  0.00  0.00    +0.200 A 
ATOM      8  C   LIG    1       12.569   4.514  -0.107  0.00  0.00    -0.040 A 
ATOM      9  C   LIG    1       13.516   3.490  -0.117  0.00  0.00    +0.090 A 
ATOM     10  C   LIG    1       13.156   2.180  -0.106  0.00  0.00    +0.110 A 
ATOM     11  C   LIG    1       11.790   1.835  -0.095  0.00  0.00    +0.080 A 
ATOM     12  N   LIG    1       11.104   0.706  -0.095  0.00  0.00    -0.250 NA
ATOM     13  N   LIG    1        9.839   0.925  -0.083  0.00  0.00    -0.310 N 
ATOM     14  H   LIG    1        9.165   0.228  -0.081  0.00  0.00    +0.450 HD
BRANCH   8  15
ATOM     15  N   LIG    1       13.026   5.921  -0.112  0.00  0.00    +0.030 N 
ATOM     16  O   LIG    1       14.217   6.175  -0.125  0.00  0.00    -0.150 OA
ATOM     17  O   LIG    1       12.211   6.827  -0.102  0.00  0.00    -0.160 OA
ENDBRANCH   8  15
ENDBRANCH   3   5
BRANCH   1  18
ATOM     18  C   LIG    1        5.801   2.725  -0.037  0.00  0.00    +0.290 C 
BRANCH  18  19
ATOM     19  C   LIG    1        4.729   1.634  -0.033  0.00  0.00    +0.260 C 
BRANCH  19  20
ATOM     20  N   LIG    1        3.401   2.254  -0.018  0.00  0.00    -0.720 N 
ATOM     21  H   LIG    1        3.317   3.220  -0.012  0.00  0.00    +0.410 HD
BRANCH  20  26
ATOM     22  C   LIG    1       -1.293  -0.775   0.010  0.00  0.00    +0.140 C 
ATOM     23  C   LIG    1        0.002  -0.004   0.002  0.00  0.00    +0.020 A 
ATOM     24  C   LIG    1        1.213  -0.682  -0.013  0.00  0.00    +0.070 A 
ATOM     25  C   LIG    1        2.379   0.067  -0.020  0.00  0.00    -0.040 A 
ATOM     26  C   LIG    1        2.262   1.457  -0.012  0.00  0.00    +0.340 A 
ATOM     27  N   LIG    1        1.060   2.014   0.003  0.00  0.00    -0.300 NA
ATOM     28  N   LIG    1       -0.016   1.314   0.009  0.00  0.00    -0.200 NA
ENDBRANCH  20  26
ENDBRANCH  19  20
ENDBRANCH  18  19
ENDBRANCH   1  18
TORSDOF 6
