REMARK  Name = ZINCvU0000000Fcu.0
REMARK                            x       y       z     vdW  Elec       q    Type
REMARK                         _______ _______ _______ _____ _____    ______ ____
ROOT
ATOM      1  N   LIG    1       -0.734   6.147  -1.359  0.00  0.00    -1.060 N 
ATOM      2  H   LIG    1       -0.146   6.522  -2.034  0.00  0.00    +0.430 HD
ENDROOT
BRANCH   1   3
ATOM      3  C   LIG    1       -2.078   5.921  -1.652  0.00  0.00    +0.170 A 
ATOM      4  C   LIG    1       -2.670   4.711  -1.305  0.00  0.00    -0.020 A 
ATOM      5  C   LIG    1       -3.999   4.486  -1.590  0.00  0.00    +0.100 A 
ATOM      6  C   LIG    1       -4.749   5.470  -2.236  0.00  0.00    -0.030 A 
ATOM      7  C   LIG    1       -4.151   6.682  -2.588  0.00  0.00    +0.040 A 
ATOM      8  C   LIG    1       -2.823   6.903  -2.296  0.00  0.00    +0.020 A 
BRANCH   6   9
ATOM      9  C   LIG    1       -6.175   5.230  -2.548  0.00  0.00    +0.210 A 
ATOM     10  N   LIG    1       -6.779   4.062  -2.610  0.00  0.00    -0.280 NA
ATOM     11  N   LIG    1       -8.022   4.229  -2.898  0.00  0.00    -0.290 NA
ATOM     12  C   LIG    1       -8.278   5.499  -3.038  0.00  0.00    +0.190 A 
ATOM     13  C   LIG    1       -9.609   6.130  -3.358  0.00  0.00    +0.150 C 
ATOM     14  C   LIG    1       -9.415   7.173  -4.463  0.00  0.00    +0.020 C 
ATOM     15  C   LIG    1       -9.067   8.521  -3.841  0.00  0.00    +0.020 C 
ATOM     16  C   LIG    1       -8.241   8.329  -2.571  0.00  0.00    +0.030 C 
ATOM     17  C   LIG    1       -6.925   7.624  -2.912  0.00  0.00    +0.290 C 
ATOM     18  N   LIG    1       -7.116   6.176  -2.832  0.00  0.00    -0.470 N 
ENDBRANCH   6   9
ENDBRANCH   1   3
BRANCH   1  19
ATOM     19  S   LIG    1       -0.140   5.777   0.143  0.00  0.00    +2.690 S 
ATOM     20  O   LIG    1        1.237   6.128   0.127  0.00  0.00    -0.940 OA
ATOM     21  O   LIG    1       -1.067   6.306   1.082  0.00  0.00    -0.940 OA
BRANCH  19  28
ATOM     22  C   LIG    1        1.448   3.846  -1.560  0.00  0.00    +0.110 C 
ATOM     23  C   LIG    1        0.559   3.222  -0.515  0.00  0.00    +0.010 A 
ATOM     24  C   LIG    1        0.511   1.847  -0.380  0.00  0.00    -0.010 A 
ATOM     25  C   LIG    1       -0.308   1.275   0.575  0.00  0.00    +0.080 A 
ATOM     26  C   LIG    1       -1.071   2.077   1.402  0.00  0.00    -0.090 A 
ATOM     27  C   LIG    1       -1.020   3.452   1.270  0.00  0.00    +0.130 A 
ATOM     28  C   LIG    1       -0.205   4.025   0.311  0.00  0.00    -0.680 A 
BRANCH  26  29
ATOM     29  C   LIG    1       -1.960   1.453   2.447  0.00  0.00    -0.030 C 
ATOM     30  C   LIG    1       -3.413   1.855   2.186  0.00  0.00    +0.040 C 
ATOM     31  C   LIG    1       -1.537   1.942   3.833  0.00  0.00    +0.040 C 
ATOM     32  C   LIG    1       -1.832  -0.070   2.381  0.00  0.00    +0.030 C 
ENDBRANCH  26  29
ENDBRANCH  19  28
ENDBRANCH   1  19
TORSDOF 5
