REMARK  Name = ZINCfA000000JlZy.0
REMARK                            x       y       z     vdW  Elec       q    Type
REMARK                         _______ _______ _______ _____ _____    ______ ____
ROOT
ATOM      1  C   LIG    1       -1.238   3.133   0.031  0.00  0.00    -0.150 A 
ATOM      2  C   LIG    1       -1.219   1.751   0.017  0.00  0.00    +0.070 A 
ATOM      3  C   LIG    1       -0.013   1.076   0.008  0.00  0.00    +0.030 A 
ATOM      4  C   LIG    1        1.177   1.784   0.000  0.00  0.00    +0.180 A 
ATOM      5  C   LIG    1        1.156   3.169   0.008  0.00  0.00    -0.200 A 
ATOM      6  F   LIG    1        2.356   1.126  -0.014  0.00  0.00    -0.100 F 
ATOM      7  C   LIG    1       -0.051   3.842   0.023  0.00  0.00    +0.150 A 
ENDROOT
BRANCH   5   8
ATOM      8  C   LIG    1        2.450   3.942  -0.001  0.00  0.00    +0.510 C 
ATOM      9  F   LIG    1        3.177   3.621  -1.152  0.00  0.00    -0.160 F 
ATOM     10  F   LIG    1        3.200   3.609   1.133  0.00  0.00    -0.160 F 
ATOM     11  F   LIG    1        2.174   5.314   0.009  0.00  0.00    -0.170 F 
ENDBRANCH   5   8
BRANCH   1  13
ATOM     12  C   LIG    1       -2.635   4.740   1.301  0.00  0.00    +0.110 C 
ATOM     13  C   LIG    1       -2.553   3.868   0.047  0.00  0.00    +0.120 C 
ATOM     14  C   LIG    1       -2.659   4.752  -1.197  0.00  0.00    +0.110 C 
BRANCH  13  15
ATOM     15  N   LIG    1       -3.656   2.897   0.052  0.00  0.00    -0.640 N 
ATOM     16  H   LIG    1       -3.602   2.322  -0.775  0.00  0.00    +0.440 HD
ATOM     17  H   LIG    1       -4.537   3.389   0.063  0.00  0.00    +0.440 HD
ATOM     18  H   LIG    1       -3.587   2.314   0.873  0.00  0.00    +0.440 HD
ENDBRANCH  13  15
ENDBRANCH   1  13
TORSDOF 3
