REMARK  Name = ZINCqH0000038PCw.0
REMARK                            x       y       z     vdW  Elec       q    Type
REMARK                         _______ _______ _______ _____ _____    ______ ____
ROOT
ATOM      1  C   LIG    1       -1.150  -0.694   0.111  0.00  0.00    +0.610 C 
ATOM      2  N   LIG    1        0.002  -0.004   0.002  0.00  0.00    -0.660 N 
ATOM      3  H   LIG    1        0.845  -0.477  -0.076  0.00  0.00    +0.420 HD
ATOM      4  O   LIG    1       -2.214  -0.104   0.124  0.00  0.00    -0.490 OA
ENDROOT
BRANCH   2   5
ATOM      5  C   LIG    1       -0.018   1.396   0.002  0.00  0.00    +0.150 A 
ATOM      6  C   LIG    1       -1.070   2.075  -0.601  0.00  0.00    +0.040 A 
ATOM      7  C   LIG    1       -1.098   3.455  -0.600  0.00  0.00    +0.060 A 
ATOM      8  C   LIG    1       -0.068   4.168  -0.007  0.00  0.00    +0.080 A 
ATOM      9  N   LIG    1        0.186   5.530   0.149  0.00  0.00    -0.640 N 
ATOM     10  H   LIG    1       -0.378   6.253  -0.168  0.00  0.00    +0.440 HD
ATOM     11  C   LIG    1        1.348   5.671   0.814  0.00  0.00    +0.690 A 
ATOM     12  N   LIG    1        1.859   4.458   1.097  0.00  0.00    -0.640 N 
ATOM     13  H   LIG    1        2.689   4.288   1.570  0.00  0.00    +0.440 HD
ATOM     14  O   LIG    1        1.860   6.734   1.113  0.00  0.00    -0.550 OA
ATOM     15  C   LIG    1        0.994   3.489   0.595  0.00  0.00    +0.110 A 
ATOM     16  C   LIG    1        1.016   2.103   0.598  0.00  0.00    +0.010 A 
ENDBRANCH   2   5
BRANCH   1  19
ATOM     17  C   LIG    1       -1.243  -2.814  -2.274  0.00  0.00    +0.210 C 
ATOM     18  C   LIG    1       -1.161  -3.092  -0.795  0.00  0.00    +0.030 A 
ATOM     19  C   LIG    1       -1.122  -2.163   0.214  0.00  0.00    -0.250 A 
ATOM     20  C   LIG    1       -1.038  -3.001   1.429  0.00  0.00    +0.090 A 
ATOM     21  N   LIG    1       -1.048  -4.235   0.994  0.00  0.00    -0.320 NA
ATOM     22  O   LIG    1       -1.111  -4.291  -0.210  0.00  0.00    +0.110 OA
BRANCH  20  23
ATOM     23  C   LIG    1       -0.964  -2.542   2.837  0.00  0.00    -0.020 A 
ATOM     24  C   LIG    1       -0.963  -1.179   3.130  0.00  0.00    +0.050 A 
ATOM     25  C   LIG    1       -0.899  -0.757   4.442  0.00  0.00    +0.030 A 
ATOM     26  C   LIG    1       -0.825  -1.684   5.467  0.00  0.00    +0.050 A 
ATOM     27  C   LIG    1       -0.820  -3.038   5.183  0.00  0.00    +0.030 A 
ATOM     28  C   LIG    1       -0.889  -3.472   3.874  0.00  0.00    -0.010 A 
ATOM     29 CL   LIG    1       -0.882  -5.171   3.519  0.00  0.00    -0.040 Cl
ENDBRANCH  20  23
ENDBRANCH   1  19
TORSDOF 3
