REMARK  Name = ZINCrg000000qNEL.0
REMARK                            x       y       z     vdW  Elec       q    Type
REMARK                         _______ _______ _______ _____ _____    ______ ____
ROOT
ATOM      1  N   LIG    1        4.972   5.497  -0.018  0.00  0.00    -0.570 N 
ATOM      2  C   LIG    1        4.829   4.182  -0.279  0.00  0.00    +0.520 C 
ATOM      3  O   LIG    1        5.805   3.502  -0.517  0.00  0.00    -0.480 OA
ENDROOT
BRANCH   1   7
ATOM      4  C   LIG    1        8.783   7.164   0.268  0.00  0.00    +0.130 A 
ATOM      5  C   LIG    1        7.950   7.514  -0.785  0.00  0.00    +0.000 A 
ATOM      6  C   LIG    1        6.688   6.962  -0.880  0.00  0.00    +0.060 A 
ATOM      7  C   LIG    1        6.253   6.057   0.079  0.00  0.00    +0.100 A 
ATOM      8  C   LIG    1        7.084   5.712   1.135  0.00  0.00    +0.070 A 
ATOM      9  C   LIG    1        8.348   6.260   1.226  0.00  0.00    -0.070 A 
BRANCH   4  11
ATOM     10  C   LIG    1       10.829   7.303   1.472  0.00  0.00    +0.250 C 
ATOM     11  O   LIG    1       10.026   7.708   0.362  0.00  0.00    -0.320 OA
ENDBRANCH   4  11
ENDBRANCH   1   7
BRANCH   2  12
ATOM     12  C   LIG    1        3.458   3.558  -0.275  0.00  0.00    +0.230 C 
BRANCH  12  13
ATOM     13  O   LIG    1        3.568   2.165  -0.577  0.00  0.00    -0.250 OA
BRANCH  13  14
ATOM     14  C   LIG    1        2.416   1.450  -0.613  0.00  0.00    +0.180 A 
ATOM     15  C   LIG    1        1.202   2.072  -0.364  0.00  0.00    -0.090 A 
ATOM     16  C   LIG    1        0.030   1.343  -0.402  0.00  0.00    +0.080 A 
ATOM     17  C   LIG    1        0.056  -0.012  -0.688  0.00  0.00    -0.030 A 
ATOM     18  C   LIG    1        1.254  -0.646  -0.939  0.00  0.00    +0.080 A 
ATOM     19  C   LIG    1        2.447   0.079  -0.904  0.00  0.00    -0.170 A 
BRANCH  19  20
ATOM     20  C   LIG    1        3.733  -0.594  -1.170  0.00  0.00    +0.560 C 
ATOM     21  O   LIG    1        4.769   0.041  -1.139  0.00  0.00    -0.510 OA
ATOM     22  N   LIG    1        3.758  -1.912  -1.448  0.00  0.00    -0.860 N 
ATOM     23  H   LIG    1        4.604  -2.355  -1.623  0.00  0.00    +0.410 HD
ATOM     24  H   LIG    1        2.931  -2.419  -1.473  0.00  0.00    +0.400 HD
ENDBRANCH  19  20
ENDBRANCH  13  14
ENDBRANCH  12  13
ENDBRANCH   2  12
BRANCH   1  25
ATOM     25  C   LIG    1        3.788   6.340   0.166  0.00  0.00    +0.310 C 
BRANCH  25  26
ATOM     26  C   LIG    1        3.393   6.350   1.644  0.00  0.00    +0.040 C 
BRANCH  26  27
ATOM     27  C   LIG    1        2.175   7.217   1.833  0.00  0.00    +0.520 C 
ATOM     28  O   LIG    1        1.672   7.772   0.879  0.00  0.00    -0.540 OA
ATOM     29  N   LIG    1        1.645   7.376   3.061  0.00  0.00    -0.850 N 
ATOM     30  H   LIG    1        0.861   7.934   3.183  0.00  0.00    +0.400 HD
ATOM     31  H   LIG    1        2.047   6.932   3.824  0.00  0.00    +0.400 HD
ENDBRANCH  26  27
ENDBRANCH  25  26
ENDBRANCH   1  25
TORSDOF 9
