REMARK  Name = ZINCvU0000000Gga.0
REMARK                            x       y       z     vdW  Elec       q    Type
REMARK                         _______ _______ _______ _____ _____    ______ ____
ROOT
ATOM      1  C   LIG    1       -0.203   1.062   0.103  0.00  0.00    +0.500 A 
ATOM      2  N   LIG    1        0.959   1.698   0.068  0.00  0.00    -0.550 NA
ATOM      3  C   LIG    1        2.098   1.025   0.071  0.00  0.00    +0.210 A 
ATOM      4  C   LIG    1        2.065  -0.360   0.113  0.00  0.00    -0.220 A 
ATOM      5  C   LIG    1        0.832  -0.993   0.149  0.00  0.00    +0.210 A 
ATOM      6  C   LIG    1        0.748  -2.497   0.196  0.00  0.00    +0.160 C 
ATOM      7  C   LIG    1        3.415   1.756   0.032  0.00  0.00    +0.140 C 
ATOM      8  N   LIG    1       -0.270  -0.261   0.143  0.00  0.00    -0.530 NA
ENDROOT
BRANCH   1  12
ATOM      9  N   LIG    1       -3.273   3.615  -1.005  0.00  0.00    -0.530 NA
ATOM     10  C   LIG    1       -2.410   4.016   0.116  0.00  0.00    +0.190 C 
ATOM     11  C   LIG    1       -1.094   3.238   0.046  0.00  0.00    +0.230 C 
ATOM     12  N   LIG    1       -1.376   1.797   0.092  0.00  0.00    -0.460 N 
ATOM     13  C   LIG    1       -2.238   1.396  -1.029  0.00  0.00    +0.220 C 
ATOM     14  C   LIG    1       -3.555   2.173  -0.959  0.00  0.00    +0.200 C 
BRANCH   9  15
ATOM     15  C   LIG    1       -4.517   4.395  -1.017  0.00  0.00    +0.230 C 
BRANCH  15  23
ATOM     16  C   LIG    1       -3.454   5.770  -3.325  0.00  0.00    +0.100 C 
ATOM     17  C   LIG    1       -4.681   4.905  -3.462  0.00  0.00    -0.050 A 
ATOM     18  C   LIG    1       -5.294   4.766  -4.692  0.00  0.00    +0.010 A 
ATOM     19  C   LIG    1       -6.424   3.978  -4.817  0.00  0.00    -0.030 A 
ATOM     20  C   LIG    1       -6.936   3.324  -3.711  0.00  0.00    +0.010 A 
ATOM     21  C   LIG    1       -6.319   3.459  -2.481  0.00  0.00    +0.030 A 
ATOM     22 CL   LIG    1       -7.198   3.807  -6.362  0.00  0.00    -0.070 Cl
ATOM     23  C   LIG    1       -5.190   4.248  -2.357  0.00  0.00    -0.080 A 
ENDBRANCH  15  23
ENDBRANCH   9  15
ENDBRANCH   1  12
BRANCH   4  24
ATOM     24  C   LIG    1        3.342  -1.161   0.118  0.00  0.00    +0.150 C 
BRANCH  24  25
ATOM     25  C   LIG    1        3.747  -1.469  -1.300  0.00  0.00    -0.070 A 
ATOM     26  C   LIG    1        3.301  -2.627  -1.909  0.00  0.00    +0.020 A 
ATOM     27  C   LIG    1        3.669  -2.909  -3.212  0.00  0.00    +0.020 A 
ATOM     28  C   LIG    1        4.491  -2.036  -3.902  0.00  0.00    -0.040 A 
ATOM     29  C   LIG    1        4.941  -0.880  -3.290  0.00  0.00    +0.020 A 
ATOM     30 CL   LIG    1        4.960  -2.392  -5.535  0.00  0.00    -0.070 Cl
ATOM     31  C   LIG    1        4.568  -0.597  -1.989  0.00  0.00    +0.020 A 
ENDBRANCH  24  25
ENDBRANCH   4  24
TORSDOF 5
