REMARK  Name = ZINCvU0000000Bte.0
REMARK                            x       y       z     vdW  Elec       q    Type
REMARK                         _______ _______ _______ _____ _____    ______ ____
ROOT
ATOM      1  C   LIG    1       -1.943   1.443   1.414  0.00  0.00    +0.250 C 
ATOM      2  C   LIG    1       -2.665   1.856   0.127  0.00  0.00    +0.180 C 
ATOM      3  N   LIG    1       -1.903   1.375  -1.034  0.00  0.00    -0.520 NA
ATOM      4  C   LIG    1       -0.574   1.998  -1.094  0.00  0.00    +0.170 C 
ATOM      5  C   LIG    1        0.234   1.591   0.143  0.00  0.00    +0.270 C 
ATOM      6  N   LIG    1       -0.548   1.919   1.345  0.00  0.00    -0.620 N 
ATOM      7  C   LIG    1       -0.006   2.635   2.350  0.00  0.00    +0.700 C 
ATOM      8  N   LIG    1        1.231   3.154   2.216  0.00  0.00    -0.690 N 
ATOM      9  H   LIG    1        1.761   2.947   1.431  0.00  0.00    +0.400 HD
ATOM     10  O   LIG    1       -0.632   2.812   3.377  0.00  0.00    -0.540 OA
ENDROOT
BRANCH   8  11
ATOM     11  C   LIG    1        1.749   3.991   3.210  0.00  0.00    +0.170 A 
ATOM     12  C   LIG    1        0.893   4.740   4.006  0.00  0.00    +0.030 A 
ATOM     13  C   LIG    1        1.412   5.565   4.983  0.00  0.00    +0.030 A 
ATOM     14  C   LIG    1        2.783   5.650   5.173  0.00  0.00    -0.090 A 
ATOM     15  C   LIG    1        3.309   6.572   6.244  0.00  0.00    +0.050 C 
ATOM     16  C   LIG    1        4.761   6.214   6.568  0.00  0.00    +0.220 C 
ATOM     17  O   LIG    1        5.488   6.112   5.339  0.00  0.00    -0.370 OA
ATOM     18  C   LIG    1        5.131   4.965   4.569  0.00  0.00    +0.270 C 
ATOM     19  C   LIG    1        3.636   4.905   4.386  0.00  0.00    -0.100 A 
ATOM     20  C   LIG    1        3.120   4.073   3.406  0.00  0.00    -0.030 A 
ENDBRANCH   8  11
BRANCH   1  21
ATOM     21  C   LIG    1       -2.640   2.075   2.620  0.00  0.00    +0.030 C 
BRANCH  21  23
ATOM     22  C   LIG    1       -2.828   2.026   5.111  0.00  0.00    +0.010 C 
ATOM     23  C   LIG    1       -2.284   1.290   3.884  0.00  0.00    +0.010 C 
ATOM     24  C   LIG    1       -2.905  -0.106   3.810  0.00  0.00    -0.010 C 
ENDBRANCH  21  23
ENDBRANCH   1  21
BRANCH   3  25
ATOM     25  C   LIG    1       -2.647   1.599  -2.280  0.00  0.00    +0.270 C 
BRANCH  25  26
ATOM     26  C   LIG    1       -2.946   3.068  -2.430  0.00  0.00    -0.120 A 
ATOM     27  C   LIG    1       -4.118   3.591  -1.915  0.00  0.00    +0.040 A 
ATOM     28  C   LIG    1       -4.391   4.939  -2.048  0.00  0.00    +0.020 A 
ATOM     29  C   LIG    1       -3.496   5.764  -2.705  0.00  0.00    -0.030 A 
ATOM     30  C   LIG    1       -2.325   5.240  -3.225  0.00  0.00    +0.020 A 
ATOM     31 CL   LIG    1       -3.841   7.457  -2.879  0.00  0.00    -0.070 Cl
ATOM     32  C   LIG    1       -2.051   3.893  -3.087  0.00  0.00    +0.030 A 
ENDBRANCH  25  26
ENDBRANCH   3  25
TORSDOF 5
