REMARK  Name = ZINCvU0000000FFc.0
REMARK                            x       y       z     vdW  Elec       q    Type
REMARK                         _______ _______ _______ _____ _____    ______ ____
ROOT
ATOM      1  C   LIG    1       -0.020   1.296   0.055  0.00  0.00    +0.160 A 
ATOM      2  N   LIG    1       -0.004  -0.017   0.039  0.00  0.00    -0.280 NA
ATOM      3  N   LIG    1        1.207  -0.446   0.032  0.00  0.00    -0.240 NA
ATOM      4  C   LIG    1        2.042   0.570   0.044  0.00  0.00    +0.250 A 
ATOM      5  N   LIG    1        1.281   1.718   0.059  0.00  0.00    -0.450 N 
ENDROOT
BRANCH   4   6
ATOM      6  C   LIG    1        3.511   0.495   0.042  0.00  0.00    +0.070 A 
ATOM      7  C   LIG    1        4.256  -0.608  -0.253  0.00  0.00    +0.040 A 
ATOM      8  C   LIG    1        5.607  -0.229  -0.135  0.00  0.00    +0.020 A 
ATOM      9  C   LIG    1        5.623   1.070   0.230  0.00  0.00    -0.020 A 
ATOM     10 BR   LIG    1        7.173   2.107   0.542  0.00  0.00    +0.070 Br
ATOM     11  O   LIG    1        4.356   1.504   0.336  0.00  0.00    -0.160 OA
ENDBRANCH   4   6
BRANCH   1  12
ATOM     12  S   LIG    1       -1.451   2.324   0.063  0.00  0.00    +0.080 S 
BRANCH  12  14
ATOM     13  C   LIG    1       -2.689   0.252   1.341  0.00  0.00    +0.090 C 
ATOM     14  C   LIG    1       -2.746   1.060   0.043  0.00  0.00    +0.020 C 
BRANCH  14  15
ATOM     15  C   LIG    1       -4.094   1.723  -0.077  0.00  0.00    +0.540 C 
ATOM     16  N   LIG    1       -5.157   1.016  -0.510  0.00  0.00    -0.570 N 
ATOM     17  C   LIG    1       -4.979  -0.362  -0.975  0.00  0.00    +0.300 C 
ATOM     18  O   LIG    1       -4.222   2.893   0.216  0.00  0.00    -0.510 OA
BRANCH  16  19
ATOM     19  C   LIG    1       -6.429   1.599  -0.516  0.00  0.00    +0.130 A 
ATOM     20  C   LIG    1       -7.426   1.101   0.313  0.00  0.00    +0.010 A 
ATOM     21  C   LIG    1       -8.679   1.681   0.308  0.00  0.00    +0.020 A 
ATOM     22  C   LIG    1       -8.945   2.749  -0.529  0.00  0.00    +0.010 A 
ATOM     23  C   LIG    1       -7.956   3.244  -1.359  0.00  0.00    +0.020 A 
ATOM     24  C   LIG    1       -6.699   2.672  -1.355  0.00  0.00    +0.020 A 
ENDBRANCH  16  19
ENDBRANCH  14  15
ENDBRANCH  12  14
ENDBRANCH   1  12
BRANCH   5  25
ATOM     25  C   LIG    1        1.763   3.101   0.076  0.00  0.00    +0.370 C 
BRANCH  25  26
ATOM     26  C   LIG    1        1.931   3.557   1.502  0.00  0.00    -0.130 A 
ATOM     27  C   LIG    1        0.879   4.166   2.161  0.00  0.00    +0.040 A 
ATOM     28  C   LIG    1        1.031   4.580   3.471  0.00  0.00    +0.010 A 
ATOM     29  C   LIG    1        2.238   4.395   4.119  0.00  0.00    +0.030 A 
ATOM     30  C   LIG    1        3.292   3.791   3.458  0.00  0.00    +0.010 A 
ATOM     31  C   LIG    1        3.138   3.372   2.150  0.00  0.00    +0.030 A 
ENDBRANCH  25  26
ENDBRANCH   5  25
TORSDOF 7
