REMARK  Name = ZINCqH00000008bl.0
REMARK                            x       y       z     vdW  Elec       q    Type
REMARK                         _______ _______ _______ _____ _____    ______ ____
ROOT
ATOM      1  C   LIG    1        0.987   6.142  -2.131  0.00  0.00    +0.140 A 
ATOM      2  N   LIG    1        0.519   6.549  -3.289  0.00  0.00    -0.290 NA
ATOM      3  N   LIG    1       -0.766   6.529  -3.271  0.00  0.00    -0.280 NA
ATOM      4  C   LIG    1       -1.192   6.107  -2.114  0.00  0.00    +0.230 A 
ATOM      5  N   LIG    1       -0.090   5.843  -1.347  0.00  0.00    -0.450 N 
ENDROOT
BRANCH   4   6
ATOM      6  C   LIG    1       -2.630   5.942  -1.697  0.00  0.00    +0.030 C 
ATOM      7  C   LIG    1       -3.701   6.101  -2.778  0.00  0.00    +0.070 C 
ATOM      8  C   LIG    1       -3.518   7.188  -1.716  0.00  0.00    +0.050 C 
ENDBRANCH   4   6
BRANCH   1   9
ATOM      9  S   LIG    1        2.684   6.006  -1.677  0.00  0.00    +0.080 S 
BRANCH   9  10
ATOM     10  C   LIG    1        3.466   6.570  -3.209  0.00  0.00    +0.110 C 
BRANCH  10  12
ATOM     11  N   LIG    1        5.758   6.916  -4.070  0.00  0.00    -0.600 N 
ATOM     12  C   LIG    1        4.964   6.536  -3.050  0.00  0.00    +0.540 C 
ATOM     13  O   LIG    1        5.455   6.168  -2.004  0.00  0.00    -0.520 OA
BRANCH  11  14
ATOM     14  C   LIG    1        5.165   7.362  -5.333  0.00  0.00    +0.270 C 
ATOM     15  C   LIG    1        4.937   8.874  -5.285  0.00  0.00    +0.020 C 
ENDBRANCH  11  14
BRANCH  11  16
ATOM     16  C   LIG    1        7.215   6.884  -3.916  0.00  0.00    +0.330 C 
BRANCH  16  18
ATOM     17  C   LIG    1        8.175   5.362  -5.566  0.00  0.00    +0.020 C 
ATOM     18  C   LIG    1        7.735   5.536  -4.344  0.00  0.00    -0.140 C 
ATOM     19  C   LIG    1        7.751   4.389  -3.367  0.00  0.00    +0.090 C 
ENDBRANCH  16  18
ENDBRANCH  11  16
ENDBRANCH  10  12
ENDBRANCH   9  10
ENDBRANCH   1   9
BRANCH   5  20
ATOM     20  C   LIG    1       -0.070   5.347   0.031  0.00  0.00    +0.370 C 
BRANCH  20  21
ATOM     21  C   LIG    1       -0.050   3.840   0.023  0.00  0.00    -0.120 A 
ATOM     22  C   LIG    1        1.156   3.165   0.008  0.00  0.00    +0.040 A 
ATOM     23  C   LIG    1        1.175   1.783   0.000  0.00  0.00    +0.010 A 
ATOM     24  C   LIG    1       -0.013   1.076   0.008  0.00  0.00    +0.020 A 
ATOM     25  C   LIG    1       -1.219   1.751   0.017  0.00  0.00    +0.010 A 
ATOM     26  C   LIG    1       -1.238   3.133   0.030  0.00  0.00    +0.020 A 
ENDBRANCH  20  21
ENDBRANCH   5  20
TORSDOF 9
