REMARK  Name = ZINCtV000002wh40.0
REMARK                            x       y       z     vdW  Elec       q    Type
REMARK                         _______ _______ _______ _____ _____    ______ ____
ROOT
ATOM      1  C   LIG    1       -1.660  -1.969   0.007  0.00  0.00    -0.250 A 
ATOM      2  C   LIG    1       -2.888  -2.603   0.021  0.00  0.00    +0.130 A 
ATOM      3  N   LIG    1       -2.674  -3.932   0.007  0.00  0.00    -0.400 N 
ATOM      4  C   LIG    1       -1.333  -4.199  -0.007  0.00  0.00    +0.020 A 
ATOM      5  C   LIG    1       -0.716  -5.573  -0.020  0.00  0.00    +0.140 C 
ATOM      6  C   LIG    1       -4.233  -1.924   0.044  0.00  0.00    +0.150 C 
ATOM      7  C   LIG    1       -0.654  -3.040  -0.007  0.00  0.00    +0.020 A 
ENDROOT
BRANCH   3   8
ATOM      8  C   LIG    1       -3.683  -4.906   0.013  0.00  0.00    +0.110 A 
ATOM      9  C   LIG    1       -4.551  -5.014  -1.065  0.00  0.00    +0.090 A 
ATOM     10  C   LIG    1       -5.540  -5.978  -1.060  0.00  0.00    +0.070 A 
ATOM     11  C   LIG    1       -5.675  -6.827   0.024  0.00  0.00    +0.010 A 
ATOM     12  C   LIG    1       -4.815  -6.717   1.103  0.00  0.00    -0.170 A 
ATOM     13 CL   LIG    1       -6.924  -8.032   0.031  0.00  0.00    -0.030 Cl
ATOM     14  C   LIG    1       -3.820  -5.759   1.100  0.00  0.00    +0.110 A 
BRANCH  12  15
ATOM     15  C   LIG    1       -4.964  -7.644   2.282  0.00  0.00    +0.510 C 
ATOM     16  F   LIG    1       -4.807  -8.967   1.857  0.00  0.00    -0.170 F 
ATOM     17  F   LIG    1       -6.234  -7.482   2.845  0.00  0.00    -0.170 F 
ATOM     18  F   LIG    1       -3.988  -7.342   3.239  0.00  0.00    -0.170 F 
ENDBRANCH  12  15
ENDBRANCH   3   8
BRANCH   1  19
ATOM     19  C   LIG    1       -1.412  -0.526   0.013  0.00  0.00    +0.450 C 
ATOM     20  O   LIG    1       -2.345   0.250   0.026  0.00  0.00    -0.460 OA
BRANCH  19  21
ATOM     21  C   LIG    1        0.002  -0.004   0.002  0.00  0.00    +0.120 C 
BRANCH  21  22
ATOM     22  S   LIG    1       -0.022   1.806   0.012  0.00  0.00    +0.020 S 
BRANCH  22  23
ATOM     23  C   LIG    1        1.708   2.135  -0.003  0.00  0.00    +0.290 C 
ATOM     24  S   LIG    1        2.826   0.839  -0.020  0.00  0.00    -0.580 S 
BRANCH  23  25
ATOM     25  N   LIG    1        2.152   3.408  -0.000  0.00  0.00    -0.500 N 
BRANCH  25  27
ATOM     26  C   LIG    1        0.876   4.896   1.463  0.00  0.00    +0.040 C 
ATOM     27  C   LIG    1        1.195   4.517   0.015  0.00  0.00    +0.270 C 
ENDBRANCH  25  27
BRANCH  25  28
ATOM     28  C   LIG    1        3.591   3.682  -0.013  0.00  0.00    +0.290 C 
ATOM     29  C   LIG    1        4.078   3.785  -1.459  0.00  0.00    +0.050 C 
ENDBRANCH  25  28
ENDBRANCH  23  25
ENDBRANCH  22  23
ENDBRANCH  21  22
ENDBRANCH  19  21
ENDBRANCH   1  19
TORSDOF 9
