REMARK  Name = ZINCtV00000L6jg2.0
REMARK                            x       y       z     vdW  Elec       q    Type
REMARK                         _______ _______ _______ _____ _____    ______ ____
ROOT
ATOM      1  O   LIG    1        2.193   4.204  -0.324  0.00  0.00    -0.480 OA
ATOM      2  C   LIG    1        1.165   3.574  -0.159  0.00  0.00    +0.560 C 
ATOM      3  N   LIG    1       -0.001   4.224   0.026  0.00  0.00    -0.670 N 
ATOM      4  H   LIG    1       -0.831   3.725   0.080  0.00  0.00    +0.410 HD
ENDROOT
BRANCH   2   5
ATOM      5  C   LIG    1        1.195   2.101  -0.163  0.00  0.00    -0.140 A 
ATOM      6  C   LIG    1        0.017   1.373   0.026  0.00  0.00    +0.070 A 
ATOM      7  C   LIG    1        0.052  -0.004   0.022  0.00  0.00    -0.010 A 
ATOM      8  C   LIG    1        1.250  -0.674  -0.168  0.00  0.00    +0.070 A 
ATOM      9  C   LIG    1        2.422   0.029  -0.354  0.00  0.00    -0.020 A 
ATOM     10  C   LIG    1        2.408   1.419  -0.354  0.00  0.00    -0.040 A 
BRANCH  10  11
ATOM     11  S   LIG    1        3.903   2.320  -0.593  0.00  0.00    +0.020 S 
BRANCH  11  12
ATOM     12  C   LIG    1        5.143   1.010  -0.787  0.00  0.00    +0.080 C 
BRANCH  12  13
ATOM     13  C   LIG    1        6.499   1.630  -1.003  0.00  0.00    -0.110 A 
ATOM     14  C   LIG    1        7.309   1.916   0.079  0.00  0.00    +0.060 A 
ATOM     15  C   LIG    1        8.553   2.486  -0.119  0.00  0.00    +0.000 A 
ATOM     16  C   LIG    1        8.989   2.769  -1.399  0.00  0.00    +0.060 A 
ATOM     17  C   LIG    1        8.181   2.484  -2.484  0.00  0.00    -0.010 A 
ATOM     18  C   LIG    1        6.937   1.909  -2.287  0.00  0.00    +0.110 A 
ATOM     19  F   LIG    1        6.149   1.624  -3.347  0.00  0.00    -0.130 F 
ENDBRANCH  12  13
ENDBRANCH  11  12
ENDBRANCH  10  11
ENDBRANCH   2   5
BRANCH   3  20
ATOM     20  C   LIG    1       -0.014   5.617   0.139  0.00  0.00    +0.170 A 
ATOM     21  C   LIG    1        1.051   6.273   0.745  0.00  0.00    +0.020 A 
ATOM     22  C   LIG    1        1.043   7.647   0.854  0.00  0.00    +0.090 A 
ATOM     23  C   LIG    1       -0.041   8.378   0.366  0.00  0.00    -0.050 A 
ATOM     24  C   LIG    1       -1.112   7.715  -0.237  0.00  0.00    +0.060 A 
ATOM     25  C   LIG    1       -1.095   6.342  -0.349  0.00  0.00    -0.010 A 
BRANCH  23  26
ATOM     26  C   LIG    1       -0.055   9.851   0.486  0.00  0.00    +0.120 A 
ATOM     27  N   LIG    1        0.883  10.575   1.027  0.00  0.00    -0.470 NA
ATOM     28  C   LIG    1        0.699  11.875   1.046  0.00  0.00    +0.220 A 
ATOM     29  C   LIG    1       -0.442  12.309   0.502  0.00  0.00    -0.070 A 
ATOM     30  S   LIG    1       -1.341  10.912  -0.086  0.00  0.00    +0.090 S 
ENDBRANCH  23  26
ENDBRANCH   3  20
TORSDOF 6
