REMARK  Name = ZINCpk00000y6w4D.0
REMARK                            x       y       z     vdW  Elec       q    Type
REMARK                         _______ _______ _______ _____ _____    ______ ____
ROOT
ATOM      1  C   LIG    1       -4.664   1.972   0.867  0.00  0.00    +0.260 C 
ATOM      2  C   LIG    1       -3.655   2.459  -0.173  0.00  0.00    +0.280 C 
ATOM      3  N   LIG    1       -2.444   1.629  -0.078  0.00  0.00    -0.600 N 
ATOM      4  C   LIG    1       -2.606   0.166  -0.087  0.00  0.00    +0.280 C 
ATOM      5  C   LIG    1       -3.666  -0.210   0.954  0.00  0.00    +0.230 C 
ATOM      6  C   LIG    1       -1.223   2.191   0.020  0.00  0.00    +0.610 C 
ATOM      7  O   LIG    1       -1.117   3.396   0.147  0.00  0.00    -0.530 OA
ATOM      8  O   LIG    1       -4.847   0.561   0.722  0.00  0.00    -0.360 OA
ENDROOT
BRANCH   6   9
ATOM      9  C   LIG    1       -0.015   1.345  -0.026  0.00  0.00    +0.010 A 
ATOM     10  C   LIG    1        1.266   1.764   0.198  0.00  0.00    +0.190 A 
ATOM     11  N   LIG    1        2.074   0.677   0.052  0.00  0.00    -0.360 N 
ATOM     12  C   LIG    1        3.426   0.515   0.161  0.00  0.00    +0.090 A 
ATOM     13  C   LIG    1        3.992  -0.693  -0.036  0.00  0.00    +0.010 A 
ATOM     14  C   LIG    1        3.196  -1.806  -0.356  0.00  0.00    +0.060 A 
ATOM     15  C   LIG    1        1.849  -1.662  -0.468  0.00  0.00    +0.070 A 
ATOM     16  C   LIG    1        4.294   1.699   0.503  0.00  0.00    +0.140 C 
ATOM     17  C   LIG    1        1.270  -0.392  -0.259  0.00  0.00    +0.240 A 
ATOM     18  N   LIG    1        0.017   0.028  -0.302  0.00  0.00    -0.470 NA
ENDBRANCH   6   9
BRANCH   1  23
ATOM     19  N   LIG    1       -6.490   3.667   1.430  0.00  0.00    -0.470 N 
ATOM     20  C   LIG    1       -7.683   3.995   0.877  0.00  0.00    +0.380 A 
ATOM     21  N   LIG    1       -7.856   3.220  -0.159  0.00  0.00    -0.300 NA
ATOM     22  N   LIG    1       -6.845   2.435  -0.287  0.00  0.00    -0.260 NA
ATOM     23  C   LIG    1       -5.981   2.674   0.661  0.00  0.00    +0.170 A 
BRANCH  19  25
ATOM     24  C   LIG    1       -4.911   5.376   2.186  0.00  0.00    +0.050 C 
ATOM     25  C   LIG    1       -5.874   4.267   2.616  0.00  0.00    +0.310 C 
ENDBRANCH  19  25
ENDBRANCH   1  23
TORSDOF 3
