REMARK  Name = ZINCqH0000000obY.0
REMARK                            x       y       z     vdW  Elec       q    Type
REMARK                         _______ _______ _______ _____ _____    ______ ____
ROOT
ATOM      1  C   LIG    1       -1.193  -0.736   0.089  0.00  0.00    +0.270 A 
ATOM      2  N   LIG    1       -2.373  -0.200   0.113  0.00  0.00    -0.460 NA
ATOM      3  C   LIG    1       -3.401  -1.023   0.201  0.00  0.00    +0.100 A 
ATOM      4  C   LIG    1       -3.074  -2.316   0.253  0.00  0.00    -0.060 A 
ATOM      5  S   LIG    1       -1.318  -2.439   0.174  0.00  0.00    +0.160 S 
ENDROOT
BRANCH   1   8
ATOM      6  C   LIG    1        1.290   2.083   0.063  0.00  0.00    +0.120 C 
ATOM      7  C   LIG    1       -0.009   1.319   0.032  0.00  0.00    +0.510 C 
ATOM      8  N   LIG    1        0.002  -0.028  -0.000  0.00  0.00    -0.480 N 
ATOM      9  O   LIG    1       -1.064   1.917   0.031  0.00  0.00    -0.460 OA
BRANCH   8  10
ATOM     10  C   LIG    1        1.216  -0.716  -0.123  0.00  0.00    +0.110 A 
ATOM     11  C   LIG    1        1.677  -1.505   0.922  0.00  0.00    +0.010 A 
ATOM     12  C   LIG    1        2.875  -2.182   0.797  0.00  0.00    +0.040 A 
ATOM     13  C   LIG    1        3.614  -2.074  -0.366  0.00  0.00    +0.020 A 
ATOM     14  C   LIG    1        3.158  -1.287  -1.408  0.00  0.00    -0.070 A 
ATOM     15  C   LIG    1        3.967  -1.172  -2.674  0.00  0.00    +0.100 C 
ATOM     16  C   LIG    1        1.958  -0.613  -1.292  0.00  0.00    +0.020 A 
ENDBRANCH   8  10
ENDBRANCH   1   8
BRANCH   3  17
ATOM     17  C   LIG    1       -4.828  -0.542   0.239  0.00  0.00    +0.210 C 
BRANCH  17  18
ATOM     18  S   LIG    1       -5.475  -0.438  -1.449  0.00  0.00    +0.060 S 
BRANCH  18  19
ATOM     19  C   LIG    1       -7.109   0.132  -1.116  0.00  0.00    +0.210 A 
ATOM     20  N   LIG    1       -7.622   0.383   0.069  0.00  0.00    -0.330 NA
ATOM     21  N   LIG    1       -8.838   0.783  -0.043  0.00  0.00    -0.030 NA
ATOM     22  N   LIG    1       -9.185   0.816  -1.284  0.00  0.00    -0.080 NA
ATOM     23  N   LIG    1       -8.070   0.399  -2.031  0.00  0.00    -0.330 N 
BRANCH  23  24
ATOM     24  C   LIG    1       -7.970   0.276  -3.487  0.00  0.00    +0.210 C 
ATOM     25  C   LIG    1       -9.126   0.828  -4.324  0.00  0.00    +0.090 C 
ATOM     26  C   LIG    1       -8.937  -0.683  -4.184  0.00  0.00    +0.070 C 
ENDBRANCH  23  24
ENDBRANCH  18  19
ENDBRANCH  17  18
ENDBRANCH   3  17
TORSDOF 6
