REMARK  Name = ZINCpk00000kgXPU.0
REMARK                            x       y       z     vdW  Elec       q    Type
REMARK                         _______ _______ _______ _____ _____    ______ ____
ROOT
ATOM      1  C   LIG    1        1.716  -0.734   1.313  0.00  0.00    +0.520 C 
ATOM      2  N   LIG    1        2.609   0.254   1.101  0.00  0.00    -0.730 N 
ATOM      3  H   LIG    1        3.374   0.349   1.689  0.00  0.00    +0.400 HD
ATOM      4  O   LIG    1        0.758  -0.853   0.578  0.00  0.00    -0.520 OA
ENDROOT
BRANCH   1   5
ATOM      5  C   LIG    1        1.904  -1.686   2.466  0.00  0.00    +0.120 C 
BRANCH   5   8
ATOM      6  C   LIG    1       -0.189  -4.771   1.831  0.00  0.00    +0.320 A 
ATOM      7  C   LIG    1        0.873  -3.877   1.791  0.00  0.00    -0.040 A 
ATOM      8  C   LIG    1        0.774  -2.683   2.484  0.00  0.00    +0.010 A 
ATOM      9  C   LIG    1       -0.386  -2.427   3.201  0.00  0.00    -0.060 A 
ATOM     10  C   LIG    1       -1.405  -3.360   3.192  0.00  0.00    +0.300 A 
ATOM     11  N   LIG    1       -1.282  -4.489   2.522  0.00  0.00    -0.540 NA
BRANCH   6  13
ATOM     12  C   LIG    1       -1.230  -6.822   1.237  0.00  0.00    +0.260 C 
ATOM     13  O   LIG    1       -0.105  -5.945   1.156  0.00  0.00    -0.310 OA
ENDBRANCH   6  13
ENDBRANCH   5   8
ENDBRANCH   1   5
BRANCH   2  14
ATOM     14  C   LIG    1        2.422   1.182  -0.016  0.00  0.00    +0.270 C 
BRANCH  14  15
ATOM     15  C   LIG    1        3.495   2.271   0.042  0.00  0.00    +0.220 C 
ATOM     16  C   LIG    1        4.808   1.873  -0.648  0.00  0.00    +0.050 C 
ATOM     17  C   LIG    1        4.796   3.334  -1.118  0.00  0.00    +0.280 C 
ATOM     18  N   LIG    1        3.331   3.311  -0.986  0.00  0.00    -0.640 N 
ATOM     19  C   LIG    1        2.295   3.956  -1.556  0.00  0.00    +0.520 C 
ATOM     20  O   LIG    1        1.167   3.767  -1.153  0.00  0.00    -0.510 OA
BRANCH  19  21
ATOM     21  C   LIG    1        2.538   4.914  -2.694  0.00  0.00    +0.200 C 
ATOM     22  F   LIG    1        2.414   6.229  -2.232  0.00  0.00    -0.190 F 
BRANCH  21  23
ATOM     23  C   LIG    1        1.509   4.664  -3.799  0.00  0.00    +0.070 C 
BRANCH  23  24
ATOM     24  C   LIG    1        1.831   5.549  -5.005  0.00  0.00    -0.050 C 
ATOM     25  C   LIG    1        0.800   6.609  -5.399  0.00  0.00    +0.030 C 
ATOM     26  C   LIG    1        0.985   5.361  -6.265  0.00  0.00    +0.020 C 
ENDBRANCH  23  24
ENDBRANCH  21  23
ENDBRANCH  19  21
ENDBRANCH  14  15
ENDBRANCH   2  14
TORSDOF 8
