REMARK  Name = ZINCkj000005hz30.0
REMARK                            x       y       z     vdW  Elec       q    Type
REMARK                         _______ _______ _______ _____ _____    ______ ____
ROOT
ATOM      1  S   LIG    1       -1.179   0.499   2.390  0.00  0.00    +2.700 S 
ATOM      2  O   LIG    1       -1.299  -0.770   1.761  0.00  0.00    -0.940 OA
ATOM      3  O   LIG    1       -2.247   1.123   3.090  0.00  0.00    -0.940 OA
ENDROOT
BRANCH   1   4
ATOM      4  C   LIG    1        0.153   0.362   3.535  0.00  0.00    -0.710 A 
ATOM      5  C   LIG    1       -0.005   0.801   4.835  0.00  0.00    +0.160 A 
ATOM      6  C   LIG    1        1.041   0.694   5.734  0.00  0.00    -0.130 A 
ATOM      7  C   LIG    1        2.246   0.147   5.335  0.00  0.00    +0.120 A 
ATOM      8  C   LIG    1        2.409  -0.294   4.036  0.00  0.00    -0.080 A 
ATOM      9  C   LIG    1        0.866   1.174   7.152  0.00  0.00    +0.100 C 
ATOM     10  C   LIG    1        1.360  -0.193   3.133  0.00  0.00    +0.210 A 
BRANCH  10  11
ATOM     11  O   LIG    1        1.516  -0.631   1.856  0.00  0.00    -0.320 OA
ATOM     12  C   LIG    1        2.785  -1.190   1.513  0.00  0.00    +0.260 C 
ENDBRANCH  10  11
ENDBRANCH   1   4
BRANCH   1  17
ATOM     13  C   LIG    1       -0.759   1.596  -1.228  0.00  0.00    +0.160 C 
ATOM     14  C   LIG    1       -0.898   3.118  -1.144  0.00  0.00    +0.040 C 
ATOM     15  C   LIG    1       -1.711   3.490   0.099  0.00  0.00    +0.050 C 
ATOM     16  C   LIG    1       -0.975   3.001   1.350  0.00  0.00    +0.300 C 
ATOM     17  N   LIG    1       -0.706   1.562   1.213  0.00  0.00    -0.990 NA
ATOM     18  C   LIG    1       -0.013   1.086   0.008  0.00  0.00    +0.320 C 
BRANCH  13  20
ATOM     19  C   LIG    1       -0.779   1.622  -3.627  0.00  0.00    +0.340 C 
ATOM     20  N   LIG    1       -0.006   1.239  -2.438  0.00  0.00    -0.510 N 
ATOM     21  H   LIG    1        0.159   0.243  -2.450  0.00  0.00    +0.430 HD
ATOM     22  H   LIG    1        0.878   1.726  -2.440  0.00  0.00    +0.430 HD
ENDBRANCH  13  20
ENDBRANCH   1  17
TORSDOF 4
