REMARK  Name = ZINCqH00000009df.0
REMARK                            x       y       z     vdW  Elec       q    Type
REMARK                         _______ _______ _______ _____ _____    ______ ____
ROOT
ATOM      1  C   LIG    1       -1.267  -0.760   0.010  0.00  0.00    -0.140 A 
ATOM      2  C   LIG    1       -2.487  -0.082   0.031  0.00  0.00    +0.150 A 
ATOM      3  C   LIG    1       -3.669  -0.794   0.034  0.00  0.00    +0.000 A 
ATOM      4  C   LIG    1       -3.646  -2.177   0.026  0.00  0.00    +0.170 A 
ATOM      5  C   LIG    1       -2.440  -2.856   0.011  0.00  0.00    -0.690 A 
ATOM      6  C   LIG    1       -1.252  -2.156   0.002  0.00  0.00    +0.200 A 
ENDROOT
BRANCH   5   7
ATOM      7  S   LIG    1       -2.424  -4.618   0.002  0.00  0.00    +2.700 S 
ATOM      8  O   LIG    1       -1.175  -5.004  -0.557  0.00  0.00    -0.930 OA
ATOM      9  O   LIG    1       -3.675  -5.028  -0.533  0.00  0.00    -0.930 OA
BRANCH   7  10
ATOM     10  N   LIG    1       -2.403  -5.116   1.581  0.00  0.00    -0.930 N 
ATOM     11  C   LIG    1       -3.538  -5.368   2.354  0.00  0.00    +0.160 A 
ATOM     12  C   LIG    1       -4.886  -5.267   2.006  0.00  0.00    -0.010 A 
ATOM     13  C   LIG    1       -5.866  -5.565   2.930  0.00  0.00    +0.040 A 
ATOM     14  C   LIG    1       -5.521  -5.965   4.207  0.00  0.00    -0.010 A 
ATOM     15  C   LIG    1       -4.187  -6.068   4.559  0.00  0.00    +0.050 A 
ATOM     16  C   LIG    1       -3.202  -5.771   3.638  0.00  0.00    -0.130 A 
ATOM     17  C   LIG    1       -1.694  -5.797   3.755  0.00  0.00    +0.100 C 
ATOM     18  C   LIG    1       -1.192  -5.362   2.368  0.00  0.00    +0.240 C 
ATOM     19  C   LIG    1       -0.365  -4.081   2.484  0.00  0.00    +0.040 C 
ENDBRANCH   7  10
ENDBRANCH   5   7
BRANCH   1  20
ATOM     20  C   LIG    1        0.002  -0.004   0.002  0.00  0.00    +0.510 C 
ATOM     21  O   LIG    1        1.062  -0.597  -0.011  0.00  0.00    -0.490 OA
BRANCH  20  22
ATOM     22  O   LIG    1       -0.016   1.343   0.009  0.00  0.00    -0.340 OA
BRANCH  22  23
ATOM     23  C   LIG    1        1.268   2.020   0.001  0.00  0.00    +0.300 C 
BRANCH  23  25
ATOM     24  C   LIG    1        1.441   4.223   1.040  0.00  0.00    +0.110 C 
ATOM     25  C   LIG    1        1.051   3.511   0.011  0.00  0.00    -0.090 C 
ATOM     26 CL   LIG    1        0.284   4.285  -1.340  0.00  0.00    -0.070 Cl
ENDBRANCH  23  25
ENDBRANCH  22  23
ENDBRANCH  20  22
ENDBRANCH   1  20
TORSDOF 6
