REMARK  Name = ZINCrg000000qJah.0
REMARK                            x       y       z     vdW  Elec       q    Type
REMARK                         _______ _______ _______ _____ _____    ______ ____
ROOT
ATOM      1  C   LIG    1       -4.089  -2.453  -5.602  0.00  0.00    +0.250 A 
ATOM      2  C   LIG    1       -2.922  -1.739  -5.358  0.00  0.00    -0.080 A 
ATOM      3  C   LIG    1       -2.518  -1.499  -4.064  0.00  0.00    +0.150 A 
ATOM      4  C   LIG    1       -3.276  -1.984  -2.995  0.00  0.00    -0.190 A 
ATOM      5  C   LIG    1       -4.449  -2.701  -3.245  0.00  0.00    +0.240 A 
ATOM      6  C   LIG    1       -4.849  -2.933  -4.542  0.00  0.00    -0.720 A 
ENDROOT
BRANCH   4   7
ATOM      7  C   LIG    1       -2.843  -1.734  -1.607  0.00  0.00    +0.570 C 
ATOM      8  N   LIG    1       -1.712  -1.041  -1.368  0.00  0.00    -0.720 N 
ATOM      9  H   LIG    1       -1.182  -0.707  -2.109  0.00  0.00    +0.400 HD
ATOM     10  O   LIG    1       -3.507  -2.152  -0.678  0.00  0.00    -0.530 OA
BRANCH   8  11
ATOM     11  C   LIG    1       -1.282  -0.793   0.011  0.00  0.00    +0.340 C 
BRANCH  11  12
ATOM     12  C   LIG    1        0.002  -0.004   0.002  0.00  0.00    -0.070 A 
ATOM     13  C   LIG    1       -0.017   1.382   0.010  0.00  0.00    -0.010 A 
ATOM     14  C   LIG    1        1.181   2.072   0.002  0.00  0.00    +0.260 A 
ATOM     15  N   LIG    1        2.331   1.427  -0.013  0.00  0.00    -0.480 NA
ATOM     16  C   LIG    1        2.387   0.109  -0.020  0.00  0.00    +0.260 A 
ATOM     17  C   LIG    1        1.230  -0.647  -0.013  0.00  0.00    -0.010 A 
ENDBRANCH  11  12
ENDBRANCH   8  11
ENDBRANCH   4   7
BRANCH   6  18
ATOM     18  S   LIG    1       -6.328  -3.838  -4.858  0.00  0.00    +2.700 S 
ATOM     19  O   LIG    1       -6.884  -4.153  -3.589  0.00  0.00    -0.950 OA
ATOM     20  O   LIG    1       -5.996  -4.822  -5.828  0.00  0.00    -0.940 OA
BRANCH  18  21
ATOM     21  N   LIG    1       -7.391  -2.800  -5.590  0.00  0.00    -1.000 NA
ATOM     22  C   LIG    1       -8.329  -1.992  -4.795  0.00  0.00    +0.270 C 
ATOM     23  C   LIG    1       -8.210  -0.529  -5.252  0.00  0.00    +0.210 C 
ATOM     24  O   LIG    1       -8.365  -0.468  -6.672  0.00  0.00    -0.380 OA
ATOM     25  C   LIG    1       -7.357  -1.171  -7.402  0.00  0.00    +0.210 C 
ATOM     26  C   LIG    1       -7.429  -2.662  -7.054  0.00  0.00    +0.280 C 
ENDBRANCH  18  21
ENDBRANCH   6  18
BRANCH   1  28
ATOM     27  C   LIG    1       -3.659  -2.161  -7.921  0.00  0.00    +0.270 C 
ATOM     28  O   LIG    1       -4.487  -2.683  -6.879  0.00  0.00    -0.310 OA
ENDBRANCH   1  28
TORSDOF 6
