REMARK  Name = ZINCpk000000naps.0
REMARK                            x       y       z     vdW  Elec       q    Type
REMARK                         _______ _______ _______ _____ _____    ______ ____
ROOT
ATOM      1  C   LIG    1       -0.644  -2.983   0.845  0.00  0.00    +0.500 C 
ATOM      2  N   LIG    1       -0.873  -4.308   0.926  0.00  0.00    -0.730 N 
ATOM      3  H   LIG    1       -1.618  -4.702   0.445  0.00  0.00    +0.400 HD
ATOM      4  O   LIG    1        0.287  -2.490   1.446  0.00  0.00    -0.490 OA
ENDROOT
BRANCH   1   9
ATOM      5  C   LIG    1        0.002  -0.004   0.002  0.00  0.00    +0.680 C 
ATOM      6  N   LIG    1       -1.156  -0.694   0.009  0.00  0.00    -0.620 N 
ATOM      7  C   LIG    1       -2.588  -0.359   0.031  0.00  0.00    +0.290 C 
ATOM      8  C   LIG    1       -2.839  -1.704   0.720  0.00  0.00    +0.070 C 
ATOM      9  C   LIG    1       -1.543  -2.112   0.005  0.00  0.00    +0.260 C 
ATOM     10  O   LIG    1        1.062  -0.597  -0.011  0.00  0.00    -0.540 OA
BRANCH   5  11
ATOM     11  O   LIG    1       -0.016   1.342   0.009  0.00  0.00    -0.360 OA
BRANCH  11  13
ATOM     12  C   LIG    1        2.044   1.625  -1.258  0.00  0.00    +0.040 C 
ATOM     13  C   LIG    1        1.268   2.019   0.001  0.00  0.00    +0.140 C 
ATOM     14  C   LIG    1        2.068   1.612   1.240  0.00  0.00    +0.040 C 
ATOM     15  C   LIG    1        1.047   3.533   0.011  0.00  0.00    +0.080 C 
ENDBRANCH  11  13
ENDBRANCH   5  11
ENDBRANCH   1   9
BRANCH   2  16
ATOM     16  C   LIG    1        0.002  -5.154   1.742  0.00  0.00    +0.320 C 
BRANCH  16  17
ATOM     17  C   LIG    1       -0.468  -6.584   1.664  0.00  0.00    -0.080 A 
ATOM     18  C   LIG    1       -1.388  -7.058   2.582  0.00  0.00    +0.030 A 
ATOM     19  C   LIG    1       -1.826  -8.364   2.513  0.00  0.00    +0.040 A 
ATOM     20  C   LIG    1       -1.330  -9.212   1.522  0.00  0.00    -0.120 A 
ATOM     21  C   LIG    1       -0.397  -8.729   0.602  0.00  0.00    +0.090 A 
ATOM     22  C   LIG    1        0.028  -7.419   0.679  0.00  0.00    +0.040 A 
BRANCH  20  23
ATOM     23  C   LIG    1       -1.790 -10.615   1.446  0.00  0.00    +0.570 C 
ATOM     24  N   LIG    1       -2.691 -11.078   2.335  0.00  0.00    -0.590 N 
ATOM     25  H   LIG    1       -3.037 -10.490   3.025  0.00  0.00    +0.410 HD
ATOM     26  O   LIG    1       -1.356 -11.351   0.581  0.00  0.00    -0.510 OA
BRANCH  24  27
ATOM     27  O   LIG    1       -3.132 -12.421   2.263  0.00  0.00    -0.310 OA
ATOM     28  H   LIG    1       -3.777 -12.661   2.942  0.00  0.00    +0.390 HD
ENDBRANCH  24  27
ENDBRANCH  20  23
ENDBRANCH  16  17
ENDBRANCH   2  16
TORSDOF 7
