REMARK  Name = ZINCrD00000hQ74z.0
REMARK                            x       y       z     vdW  Elec       q    Type
REMARK                         _______ _______ _______ _____ _____    ______ ____
ROOT
ATOM      1  C   LIG    1       -1.325   4.464  -0.624  0.00  0.00    +0.000 C 
ENDROOT
BRANCH   1   2
ATOM      2  C   LIG    1       -0.715   5.374  -1.692  0.00  0.00    +0.270 C 
BRANCH   2   4
ATOM      3  C   LIG    1       -1.318   6.261  -3.880  0.00  0.00    +0.520 C 
ATOM      4  N   LIG    1       -1.646   5.502  -2.815  0.00  0.00    -0.720 N 
ATOM      5  H   LIG    1       -2.499   5.041  -2.793  0.00  0.00    +0.410 HD
ATOM      6  O   LIG    1       -0.251   6.838  -3.907  0.00  0.00    -0.540 OA
BRANCH   3   7
ATOM      7  C   LIG    1       -2.276   6.393  -5.035  0.00  0.00    +0.050 C 
BRANCH   7   8
ATOM      8  C   LIG    1       -1.665   7.303  -6.103  0.00  0.00    +0.130 C 
BRANCH   8   9
ATOM      9  C   LIG    1       -2.638   7.437  -7.276  0.00  0.00    +0.040 C 
ATOM     10  N   LIG    1       -4.074   7.316  -7.013  0.00  0.00    -0.120 NA
ATOM     11  N   LIG    1       -3.554   6.329  -7.557  0.00  0.00    -0.120 NA
BRANCH   9  12
ATOM     12  C   LIG    1       -2.178   8.319  -8.438  0.00  0.00    +0.120 C 
BRANCH  12  13
ATOM     13  C   LIG    1       -3.260   8.345  -9.519  0.00  0.00    +0.160 C 
BRANCH  13  15
ATOM     14  C   LIG    1       -2.464   9.870 -11.529  0.00  0.00    +0.030 C 
ATOM     15  C   LIG    1       -2.817   9.193 -10.637  0.00  0.00    -0.190 C 
ENDBRANCH  13  15
ENDBRANCH  12  13
ENDBRANCH   9  12
ENDBRANCH   8   9
ENDBRANCH   7   8
ENDBRANCH   3   7
ENDBRANCH   2   4
ENDBRANCH   1   2
BRANCH   1  16
ATOM     16  C   LIG    1       -0.305   4.229   0.491  0.00  0.00    +0.090 C 
BRANCH  16  17
ATOM     17  C   LIG    1       -0.860   3.237   1.480  0.00  0.00    -0.030 A 
ATOM     18  C   LIG    1       -1.511   3.683   2.615  0.00  0.00    +0.010 A 
ATOM     19  C   LIG    1       -2.016   2.772   3.524  0.00  0.00    +0.050 A 
ATOM     20  C   LIG    1       -1.873   1.417   3.297  0.00  0.00    +0.020 A 
ATOM     21  C   LIG    1       -1.227   0.971   2.159  0.00  0.00    +0.070 A 
ATOM     22  C   LIG    1       -0.722   1.881   1.250  0.00  0.00    -0.180 A 
BRANCH  22  23
ATOM     23  C   LIG    1       -0.017   1.395   0.010  0.00  0.00    +0.510 C 
ATOM     24  F   LIG    1       -0.694   1.858  -1.124  0.00  0.00    -0.170 F 
ATOM     25  F   LIG    1        1.296   1.879  -0.000  0.00  0.00    -0.170 F 
ATOM     26  F   LIG    1        0.002  -0.004   0.002  0.00  0.00    -0.180 F 
ENDBRANCH  22  23
ENDBRANCH  16  17
ENDBRANCH   1  16
BRANCH   1  27
ATOM     27  C   LIG    1       -2.574   5.129  -0.041  0.00  0.00    +0.180 C 
BRANCH  27  28
ATOM     28  O   LIG    1       -3.572   5.242  -1.057  0.00  0.00    -0.570 OA
ATOM     29  H   LIG    1       -4.393   5.656  -0.758  0.00  0.00    +0.380 HD
ENDBRANCH  27  28
ENDBRANCH   1  27
TORSDOF 13
