REMARK  Name = ZINCrD0000075VuL.0
REMARK                            x       y       z     vdW  Elec       q    Type
REMARK                         _______ _______ _______ _____ _____    ______ ____
ROOT
ATOM      1  O   LIG    1        0.842   3.650  -1.204  0.00  0.00    -0.510 OA
ATOM      2  C   LIG    1        1.774   2.932  -0.900  0.00  0.00    +0.590 C 
ATOM      3  N   LIG    1        1.561   1.629  -0.632  0.00  0.00    -0.590 N 
ATOM      4  C   LIG    1        0.197   1.082  -0.579  0.00  0.00    +0.300 C 
ATOM      5  C   LIG    1        0.135  -0.159  -1.476  0.00  0.00    +0.170 C 
ATOM      6  N   LIG    1        1.196  -1.097  -1.084  0.00  0.00    -0.530 NA
ATOM      7  C   LIG    1        2.527  -0.511  -1.289  0.00  0.00    +0.170 C 
ATOM      8  C   LIG    1        2.688   0.716  -0.385  0.00  0.00    +0.300 C 
ENDROOT
BRANCH   2   9
ATOM      9  C   LIG    1        3.147   3.492  -0.824  0.00  0.00    +0.290 A 
ATOM     10  N   LIG    1        3.484   4.455  -1.657  0.00  0.00    -0.450 NA
ATOM     11  C   LIG    1        4.710   4.985  -1.613  0.00  0.00    +0.150 A 
ATOM     12  C   LIG    1        5.106   6.016  -2.480  0.00  0.00    +0.050 A 
ATOM     13  C   LIG    1        6.370   6.516  -2.396  0.00  0.00    +0.060 A 
ATOM     14  C   LIG    1        7.279   6.022  -1.462  0.00  0.00    +0.030 A 
ATOM     15  C   LIG    1        6.930   5.021  -0.605  0.00  0.00    +0.060 A 
ATOM     16  C   LIG    1        5.638   4.482  -0.662  0.00  0.00    -0.150 A 
ATOM     17  C   LIG    1        5.220   3.448   0.197  0.00  0.00    +0.390 A 
ATOM     18  N   LIG    1        3.990   2.995   0.080  0.00  0.00    -0.500 NA
ENDBRANCH   2   9
BRANCH   6  19
ATOM     19  C   LIG    1        1.064  -2.371  -1.802  0.00  0.00    +0.240 C 
BRANCH  19  20
ATOM     20  C   LIG    1        2.006  -3.384  -1.204  0.00  0.00    -0.110 A 
ATOM     21  C   LIG    1        3.293  -3.510  -1.699  0.00  0.00    +0.110 A 
ATOM     22  C   LIG    1        4.159  -4.438  -1.145  0.00  0.00    -0.010 A 
ATOM     23  C   LIG    1        3.735  -5.245  -0.107  0.00  0.00    +0.060 A 
ATOM     24  C   LIG    1        2.449  -5.123   0.384  0.00  0.00    +0.020 A 
ATOM     25  F   LIG    1        3.705  -2.725  -2.719  0.00  0.00    -0.130 F 
ATOM     26  C   LIG    1        1.583  -4.193  -0.165  0.00  0.00    +0.010 A 
ATOM     27 CL   LIG    1       -0.032  -4.040   0.452  0.00  0.00    -0.040 Cl
ENDBRANCH  19  20
ENDBRANCH   6  19
TORSDOF 3
