REMARK  Name = ZINCpe000015v3Xq.0
REMARK                            x       y       z     vdW  Elec       q    Type
REMARK                         _______ _______ _______ _____ _____    ______ ____
ROOT
ATOM      1  C   LIG    1        0.000  -0.688  -1.197  0.00  0.00    +0.620 A 
ATOM      2  N   LIG    1       -0.025  -0.017  -2.346  0.00  0.00    -0.630 NA
ATOM      3  C   LIG    1       -0.022  -0.671  -3.495  0.00  0.00    +0.440 A 
ATOM      4  N   LIG    1       -0.004  -1.992  -3.507  0.00  0.00    -0.630 NA
ATOM      5  C   LIG    1        0.016  -2.670  -2.362  0.00  0.00    +0.630 A 
ATOM      6  N   LIG    1        0.018  -2.016  -1.205  0.00  0.00    -0.650 NA
ENDROOT
BRANCH   3   7
ATOM      7  C   LIG    1       -0.044   0.093  -4.794  0.00  0.00    +0.080 C 
ATOM      8  C   LIG    1       -1.296  -0.288  -5.588  0.00  0.00    +0.040 C 
ATOM      9  C   LIG    1       -1.318   0.487  -6.907  0.00  0.00    +0.010 C 
ATOM     10  C   LIG    1       -0.071   0.141  -7.723  0.00  0.00    +0.000 C 
ATOM     11  C   LIG    1        1.180   0.521  -6.929  0.00  0.00    +0.010 C 
ATOM     12  C   LIG    1        1.203  -0.254  -5.610  0.00  0.00    +0.030 C 
ENDBRANCH   3   7
BRANCH   5  13
ATOM     13  N   LIG    1        0.034  -4.049  -2.376  0.00  0.00    -0.800 N 
ATOM     14  H   LIG    1        0.033  -4.526  -3.220  0.00  0.00    +0.420 HD
ATOM     15  H   LIG    1        0.049  -4.543  -1.540  0.00  0.00    +0.420 HD
ENDBRANCH   5  13
BRANCH   1  17
ATOM     16  C   LIG    1       -0.018   1.461   0.010  0.00  0.00    +0.320 C 
ATOM     17  N   LIG    1        0.002  -0.004   0.002  0.00  0.00    -0.580 N 
BRANCH  17  18
ATOM     18  C   LIG    1        0.024  -0.743   1.267  0.00  0.00    +0.310 C 
BRANCH  18  19
ATOM     19  C   LIG    1       -1.411  -1.020   1.720  0.00  0.00    +0.100 C 
ATOM     20  C   LIG    1       -2.186   0.293   1.768  0.00  0.00    +0.050 C 
ATOM     21  C   LIG    1       -3.677   0.014   1.969  0.00  0.00    -0.330 C 
ATOM     22  S   LIG    1       -3.917  -0.783   3.583  0.00  0.00    +2.420 S 
ATOM     23  C   LIG    1       -2.780  -2.195   3.457  0.00  0.00    -0.310 C 
ATOM     24  O   LIG    1       -3.445   0.091   4.599  0.00  0.00    -0.940 OA
ATOM     25  O   LIG    1       -5.247  -1.276   3.654  0.00  0.00    -0.940 OA
ATOM     26  C   LIG    1       -1.384  -1.679   3.097  0.00  0.00    +0.110 C 
BRANCH  19  27
ATOM     27  O   LIG    1       -2.037  -1.903   0.788  0.00  0.00    -0.540 OA
ATOM     28  H   LIG    1       -2.083  -1.555  -0.113  0.00  0.00    +0.370 HD
ENDBRANCH  19  27
ENDBRANCH  18  19
ENDBRANCH  17  18
ENDBRANCH   1  17
TORSDOF 6
