REMARK  Name = ZINCrD00000F5LE6.0
REMARK                            x       y       z     vdW  Elec       q    Type
REMARK                         _______ _______ _______ _____ _____    ______ ____
ROOT
ATOM      1  N   LIG    1       -3.483  -1.471  -2.805  0.00  0.00    -0.990 NA
ENDROOT
BRANCH   1   2
ATOM      2  S   LIG    1       -4.366  -2.854  -2.587  0.00  0.00    +2.630 S 
ATOM      3  O   LIG    1       -4.899  -2.727  -1.276  0.00  0.00    -0.940 OA
ATOM      4  O   LIG    1       -3.463  -3.902  -2.912  0.00  0.00    -0.950 OA
BRANCH   2   5
ATOM      5  C   LIG    1       -5.689  -2.747  -3.824  0.00  0.00    -0.650 C 
ATOM      6  C   LIG    1       -5.827  -3.907  -4.813  0.00  0.00    +0.110 C 
ATOM      7  C   LIG    1       -5.275  -2.560  -5.285  0.00  0.00    +0.100 C 
BRANCH   5   9
ATOM      8  C   LIG    1       -7.575  -2.836  -2.189  0.00  0.00    +0.020 C 
ATOM      9  C   LIG    1       -6.973  -2.057  -3.360  0.00  0.00    +0.090 C 
ENDBRANCH   5   9
ENDBRANCH   2   5
ENDBRANCH   1   2
BRANCH   1  10
ATOM     10  C   LIG    1       -2.452  -1.416  -3.844  0.00  0.00    +0.300 C 
BRANCH  10  11
ATOM     11  C   LIG    1       -1.111  -1.039  -3.212  0.00  0.00    +0.010 C 
ATOM     12  C   LIG    1       -0.632  -2.183  -2.317  0.00  0.00    +0.230 C 
ATOM     13  O   LIG    1        0.725  -1.925  -1.938  0.00  0.00    -0.370 OA
ATOM     14  C   LIG    1        1.646  -2.072  -3.017  0.00  0.00    +0.280 C 
ATOM     15  C   LIG    1        1.192  -1.264  -4.205  0.00  0.00    -0.110 A 
ATOM     16  C   LIG    1        2.099  -1.005  -5.221  0.00  0.00    +0.020 A 
ATOM     17  C   LIG    1        1.715  -0.273  -6.327  0.00  0.00    +0.000 A 
ATOM     18  C   LIG    1        0.422   0.205  -6.423  0.00  0.00    +0.000 A 
ATOM     19  C   LIG    1       -0.482  -0.051  -5.410  0.00  0.00    +0.000 A 
ATOM     20  C   LIG    1       -0.098  -0.785  -4.300  0.00  0.00    -0.070 A 
ENDBRANCH  10  11
ENDBRANCH   1  10
BRANCH   1  21
ATOM     21  C   LIG    1       -3.733  -0.301  -1.959  0.00  0.00    +0.300 C 
BRANCH  21  22
ATOM     22  C   LIG    1       -4.646   0.678  -2.699  0.00  0.00    -0.030 C 
ATOM     23  C   LIG    1       -3.895   1.277  -3.892  0.00  0.00    +0.000 C 
ATOM     24  C   LIG    1       -4.788   2.313  -4.579  0.00  0.00    +0.200 C 
ATOM     25  O   LIG    1       -5.163   3.318  -3.635  0.00  0.00    -0.380 OA
ATOM     26  C   LIG    1       -5.909   2.824  -2.521  0.00  0.00    +0.210 C 
ATOM     27  C   LIG    1       -5.061   1.808  -1.751  0.00  0.00    +0.010 C 
ENDBRANCH  21  22
ENDBRANCH   1  21
TORSDOF 7
