REMARK  Name = ZINCqH0000002Dir.0
REMARK                            x       y       z     vdW  Elec       q    Type
REMARK                         _______ _______ _______ _____ _____    ______ ____
ROOT
ATOM      1  C   LIG    1      -11.656   0.372  -2.477  0.00  0.00    +0.000 A 
ATOM      2  N   LIG    1      -11.182   1.071  -1.493  0.00  0.00    -0.290 NA
ATOM      3  N   LIG    1       -9.808   1.155  -1.431  0.00  0.00    -0.280 NA
ATOM      4  C   LIG    1       -9.166   0.534  -2.370  0.00  0.00    +0.020 A 
ATOM      5  S   LIG    1      -10.322  -0.249  -3.442  0.00  0.00    +0.160 S 
ENDROOT
BRANCH   1   6
ATOM      6  S   LIG    1      -13.366   0.090  -2.797  0.00  0.00    +0.110 S 
BRANCH   6   7
ATOM      7  C   LIG    1      -14.187   0.992  -1.454  0.00  0.00    +0.100 C 
BRANCH   7  10
ATOM      8  N   LIG    1      -16.500   1.435  -0.697  0.00  0.00    -0.720 N 
ATOM      9  H   LIG    1      -16.128   1.954   0.033  0.00  0.00    +0.410 HD
ATOM     10  C   LIG    1      -15.681   0.845  -1.590  0.00  0.00    +0.530 C 
ATOM     11  O   LIG    1      -16.145   0.196  -2.503  0.00  0.00    -0.520 OA
BRANCH   8  12
ATOM     12  C   LIG    1      -17.952   1.293  -0.830  0.00  0.00    +0.260 C 
BRANCH  12  14
ATOM     13  C   LIG    1      -20.161   1.904   0.165  0.00  0.00    +0.030 C 
ATOM     14  C   LIG    1      -18.644   2.053   0.303  0.00  0.00    +0.000 C 
ENDBRANCH  12  14
ENDBRANCH   8  12
ENDBRANCH   7  10
ENDBRANCH   6   7
ENDBRANCH   1   6
BRANCH   4  15
ATOM     15  S   LIG    1       -7.413   0.476  -2.542  0.00  0.00    +0.030 S 
BRANCH  15  16
ATOM     16  C   LIG    1       -6.832   1.469  -1.138  0.00  0.00    +0.090 C 
BRANCH  16  17
ATOM     17  C   LIG    1       -5.303   1.517  -1.146  0.00  0.00    +0.070 C 
BRANCH  17  18
ATOM     18  C   LIG    1       -4.814   2.354   0.038  0.00  0.00    +0.160 C 
BRANCH  18  19
ATOM     19  C   LIG    1       -3.308   2.402   0.030  0.00  0.00    +0.280 A 
ATOM     20  N   LIG    1       -2.529   1.359   0.021  0.00  0.00    -0.490 NA
ATOM     21  C   LIG    1       -1.231   1.759   0.017  0.00  0.00    +0.050 A 
ATOM     22  C   LIG    1       -0.013   1.076   0.008  0.00  0.00    +0.070 A 
ATOM     23  C   LIG    1        1.161   1.776   0.001  0.00  0.00    +0.000 A 
ATOM     24  C   LIG    1        1.157   3.163   0.007  0.00  0.00    +0.030 A 
ATOM     25  C   LIG    1       -0.034   3.859   0.022  0.00  0.00    +0.010 A 
ATOM     26  C   LIG    1       -1.236   3.164   0.030  0.00  0.00    +0.050 A 
ATOM     27  N   LIG    1       -2.564   3.541   0.044  0.00  0.00    -0.600 N 
ATOM     28  H   LIG    1       -2.904   4.449   0.051  0.00  0.00    +0.420 HD
ENDBRANCH  18  19
ENDBRANCH  17  18
ENDBRANCH  16  17
ENDBRANCH  15  16
ENDBRANCH   4  15
TORSDOF 10
