REMARK  Name = ZINCrg00000IYUHT.0
REMARK                            x       y       z     vdW  Elec       q    Type
REMARK                         _______ _______ _______ _____ _____    ______ ____
ROOT
ATOM      1  C   LIG    1       -8.812   4.155   5.168  0.00  0.00    +0.100 A 
ATOM      2  C   LIG    1       -7.556   4.193   5.743  0.00  0.00    -0.030 A 
ATOM      3  C   LIG    1       -6.554   3.330   5.314  0.00  0.00    -0.070 A 
ATOM      4  C   LIG    1       -6.819   2.424   4.311  0.00  0.00    -0.090 A 
ATOM      5  C   LIG    1       -5.784   1.454   3.809  0.00  0.00    +0.350 C 
ATOM      6  N   LIG    1       -4.466   1.808   4.347  0.00  0.00    -0.600 N 
ATOM      7  C   LIG    1       -4.393   2.164   5.774  0.00  0.00    +0.290 C 
ATOM      8  C   LIG    1       -3.368   1.812   3.566  0.00  0.00    +0.610 C 
ATOM      9  O   LIG    1       -2.278   2.048   4.051  0.00  0.00    -0.520 OA
ATOM     10  C   LIG    1       -8.078   2.385   3.727  0.00  0.00    -0.030 A 
ATOM     11  C   LIG    1       -5.208   3.439   5.982  0.00  0.00    +0.080 C 
ATOM     12  C   LIG    1       -9.076   3.243   4.150  0.00  0.00    +0.100 A 
ENDROOT
BRANCH   8  13
ATOM     13  C   LIG    1       -3.488   1.530   2.121  0.00  0.00    +0.010 A 
ATOM     14  N   LIG    1       -4.577   1.153   1.480  0.00  0.00    -0.250 NA
ATOM     15  N   LIG    1       -4.321   0.996   0.232  0.00  0.00    -0.370 N 
ATOM     16  H   LIG    1       -4.969   0.724  -0.437  0.00  0.00    +0.450 HD
ATOM     17  C   LIG    1       -3.017   1.265  -0.018  0.00  0.00    +0.020 A 
ATOM     18  C   LIG    1       -2.358   1.178  -1.368  0.00  0.00    +0.180 C 
ATOM     19  C   LIG    1       -1.056   1.978  -1.389  0.00  0.00    -0.310 C 
ATOM     20  S   LIG    1       -0.017   1.453   0.007  0.00  0.00    +2.420 S 
ATOM     21  O   LIG    1        1.191   2.201  -0.017  0.00  0.00    -0.930 OA
ATOM     22  O   LIG    1        0.043   0.034   0.022  0.00  0.00    -0.920 OA
ATOM     23  C   LIG    1       -1.022   2.011   1.415  0.00  0.00    -0.210 C 
ATOM     24  C   LIG    1       -2.458   1.612   1.157  0.00  0.00    -0.130 A 
ENDBRANCH   8  13
BRANCH   1  26
ATOM     25  C   LIG    1       -9.441   5.910   6.645  0.00  0.00    +0.250 C 
ATOM     26  O   LIG    1       -9.785   5.003   5.596  0.00  0.00    -0.310 OA
ENDBRANCH   1  26
BRANCH  12  27
ATOM     27  O   LIG    1      -10.307   3.199   3.573  0.00  0.00    -0.310 OA
ATOM     28  C   LIG    1      -10.502   2.237   2.534  0.00  0.00    +0.240 C 
ENDBRANCH  12  27
TORSDOF 3
