REMARK  Name = ZINCrg00000IYUHT.1
REMARK                            x       y       z     vdW  Elec       q    Type
REMARK                         _______ _______ _______ _____ _____    ______ ____
ROOT
ATOM      1  C   LIG    1       -0.837  -7.375   3.616  0.00  0.00    +0.110 A 
ATOM      2  C   LIG    1        0.325  -7.319   2.869  0.00  0.00    -0.030 A 
ATOM      3  C   LIG    1        0.435  -6.441   1.796  0.00  0.00    -0.060 A 
ATOM      4  C   LIG    1       -0.627  -5.628   1.470  0.00  0.00    -0.100 A 
ATOM      5  C   LIG    1       -0.579  -4.664   0.311  0.00  0.00    +0.320 C 
ATOM      6  N   LIG    1        0.796  -4.560  -0.188  0.00  0.00    -0.610 N 
ATOM      7  C   LIG    1        1.553  -5.812  -0.352  0.00  0.00    +0.300 C 
ATOM      8  C   LIG    1        1.344  -3.366  -0.490  0.00  0.00    +0.600 C 
ATOM      9  O   LIG    1        2.459  -3.313  -0.974  0.00  0.00    -0.500 OA
ATOM     10  C   LIG    1       -1.795  -5.679   2.220  0.00  0.00    -0.030 A 
ATOM     11  C   LIG    1        1.737  -6.428   1.040  0.00  0.00    +0.070 C 
ATOM     12  C   LIG    1       -1.906  -6.546   3.290  0.00  0.00    +0.100 A 
ENDROOT
BRANCH   8  13
ATOM     13  C   LIG    1        0.593  -2.126  -0.236  0.00  0.00    -0.010 A 
ATOM     14  C   LIG    1        1.102  -0.921   0.203  0.00  0.00    -0.120 A 
ATOM     15  C   LIG    1        2.541  -0.613   0.522  0.00  0.00    -0.230 C 
ATOM     16  S   LIG    1        2.753   1.193   0.536  0.00  0.00    +2.430 S 
ATOM     17  C   LIG    1        1.306   1.701   1.512  0.00  0.00    -0.310 C 
ATOM     18  C   LIG    1        0.034   1.389   0.725  0.00  0.00    +0.200 C 
ATOM     19  O   LIG    1        2.605   1.679  -0.791  0.00  0.00    -0.920 OA
ATOM     20  O   LIG    1        3.929   1.509   1.267  0.00  0.00    -0.930 OA
ATOM     21  C   LIG    1        0.017  -0.054   0.294  0.00  0.00    +0.030 A 
ATOM     22  N   LIG    1       -1.052  -0.725  -0.070  0.00  0.00    -0.250 NA
ATOM     23  N   LIG    1       -0.753  -1.933  -0.385  0.00  0.00    -0.370 N 
ATOM     24  H   LIG    1       -1.385  -2.606  -0.683  0.00  0.00    +0.450 HD
ENDBRANCH   8  13
BRANCH   1  26
ATOM     25  C   LIG    1        0.205  -9.055   4.939  0.00  0.00    +0.240 C 
ATOM     26  O   LIG    1       -0.934  -8.236   4.665  0.00  0.00    -0.300 OA
ENDBRANCH   1  26
BRANCH  12  27
ATOM     27  O   LIG    1       -3.053  -6.590   4.020  0.00  0.00    -0.300 OA
ATOM     28  C   LIG    1       -4.107  -5.710   3.625  0.00  0.00    +0.240 C 
ENDBRANCH  12  27
TORSDOF 3
