REMARK  Name = ZINCb70000003WKO.0
REMARK                            x       y       z     vdW  Elec       q    Type
REMARK                         _______ _______ _______ _____ _____    ______ ____
ROOT
ATOM      1  C   LIG    1       -0.011   0.140  -4.627  0.00  0.00    +0.100 C 
ATOM      2  C   LIG    1       -0.757   1.102  -3.678  0.00  0.00    +0.020 C 
ATOM      3  C   LIG    1       -2.183   0.580  -3.512  0.00  0.00    +0.270 C 
ATOM      4  O   LIG    1       -2.828   1.285  -2.448  0.00  0.00    -0.350 OA
ATOM      5  C   LIG    1       -2.183   1.047  -1.192  0.00  0.00    +0.280 C 
ATOM      6  C   LIG    1       -0.759   1.597  -1.242  0.00  0.00    +0.020 C 
ATOM      7  C   LIG    1       -0.800   3.127  -1.161  0.00  0.00    +0.120 C 
ATOM      8  C   LIG    1       -0.793   2.478  -4.352  0.00  0.00    +0.110 C 
ATOM      9  N   LIG    1       -0.028   1.154  -2.420  0.00  0.00    -0.490 N 
ATOM     10  H   LIG    1        0.357   0.225  -2.231  0.00  0.00    +0.420 HD
ATOM     11  H   LIG    1        0.786   1.762  -2.543  0.00  0.00    +0.430 HD
ENDROOT
BRANCH   6  12
ATOM     12  C   LIG    1       -0.013   1.086   0.008  0.00  0.00    +0.210 C 
BRANCH  12  13
ATOM     13  O   LIG    1       -0.682   1.547   1.184  0.00  0.00    -0.550 OA
ATOM     14  H   LIG    1       -0.266   1.262   2.009  0.00  0.00    +0.410 HD
ENDBRANCH  12  13
ENDBRANCH   6  12
TORSDOF 2
