REMARK  Name = ZINCrH00000No4R9.2
REMARK                            x       y       z     vdW  Elec       q    Type
REMARK                         _______ _______ _______ _____ _____    ______ ____
ROOT
ATOM      1  N   LIG    1       -3.021   1.213  -1.877  0.00  0.00    -0.500 NA
ENDROOT
BRANCH   1   2
ATOM      2  C   LIG    1       -4.150   0.622  -2.609  0.00  0.00    +0.280 C 
BRANCH   2   6
ATOM      3  C   LIG    1       -3.659   1.102  -6.300  0.00  0.00    +0.310 A 
ATOM      4  N   LIG    1       -4.305   2.234  -6.292  0.00  0.00    -0.530 NA
ATOM      5  S   LIG    1       -4.798   2.518  -4.694  0.00  0.00    +0.270 S 
ATOM      6  C   LIG    1       -4.114   1.080  -4.044  0.00  0.00    -0.130 A 
ATOM      7  C   LIG    1       -3.532   0.450  -5.088  0.00  0.00    -0.020 A 
BRANCH   3   9
ATOM      8  C   LIG    1       -3.316   1.351  -8.640  0.00  0.00    +0.260 C 
ATOM      9  O   LIG    1       -3.131   0.591  -7.444  0.00  0.00    -0.300 OA
ENDBRANCH   3   9
ENDBRANCH   2   6
ENDBRANCH   1   2
BRANCH   1  10
ATOM     10  C   LIG    1       -3.231   2.651  -1.659  0.00  0.00    +0.180 C 
BRANCH  10  11
ATOM     11  C   LIG    1       -1.901   3.390  -1.815  0.00  0.00    +0.040 C 
BRANCH  11  12
ATOM     12  C   LIG    1       -2.126   4.891  -1.624  0.00  0.00    -0.050 C 
ATOM     13  C   LIG    1       -1.229   5.618  -0.620  0.00  0.00    +0.010 C 
ATOM     14  C   LIG    1       -2.698   5.355  -0.282  0.00  0.00    +0.000 C 
ENDBRANCH  11  12
BRANCH  11  15
ATOM     15  C   LIG    1       -1.335   3.133  -3.213  0.00  0.00    +0.160 C 
BRANCH  15  16
ATOM     16  O   LIG    1       -0.992   1.751  -3.341  0.00  0.00    -0.530 OA
ATOM     17  H   LIG    1       -0.556   1.530  -4.175  0.00  0.00    +0.360 HD
ENDBRANCH  15  16
ENDBRANCH  11  15
ENDBRANCH  10  11
ENDBRANCH   1  10
BRANCH   1  18
ATOM     18  C   LIG    1       -2.794   0.515  -0.605  0.00  0.00    +0.220 C 
BRANCH  18  19
ATOM     19  C   LIG    1       -1.542   1.046   0.043  0.00  0.00    -0.060 A 
ATOM     20  C   LIG    1       -0.319   0.657  -0.411  0.00  0.00    +0.060 A 
ATOM     21  C   LIG    1        0.849   1.144   0.174  0.00  0.00    +0.030 A 
ATOM     22  C   LIG    1        0.801   2.017   1.217  0.00  0.00    +0.030 A 
ATOM     23  C   LIG    1       -0.444   2.438   1.717  0.00  0.00    +0.130 A 
ATOM     24  N   LIG    1       -0.522   3.295   2.740  0.00  0.00    -0.470 NA
ATOM     25  C   LIG    1       -1.680   3.691   3.210  0.00  0.00    +0.290 A 
ATOM     26  C   LIG    1       -2.883   3.242   2.670  0.00  0.00    -0.030 A 
ATOM     27  C   LIG    1       -2.874   2.364   1.623  0.00  0.00    +0.060 A 
ATOM     28  C   LIG    1       -1.629   1.941   1.121  0.00  0.00    -0.090 A 
ENDBRANCH  18  19
ENDBRANCH   1  18
TORSDOF 10
