REMARK  Name = ZINCqH0000007GvD.0
REMARK                            x       y       z     vdW  Elec       q    Type
REMARK                         _______ _______ _______ _____ _____    ______ ____
ROOT
ATOM      1  N   LIG    1        0.837  -0.485   1.111  0.00  0.00    -0.490 N 
ATOM      2  C   LIG    1        0.002  -0.004   0.002  0.00  0.00    +0.190 C 
ATOM      3  C   LIG    1       -0.019   1.528   0.010  0.00  0.00    +0.290 C 
ATOM      4  N   LIG    1        1.369   2.014  -0.000  0.00  0.00    -0.620 N 
ATOM      5  C   LIG    1        2.304   1.472   0.998  0.00  0.00    +0.290 C 
ATOM      6  C   LIG    1        1.774   2.932  -0.900  0.00  0.00    +0.520 C 
ATOM      7  O   LIG    1        0.990   3.369  -1.716  0.00  0.00    -0.540 OA
ATOM      8  C   LIG    1        2.233  -0.058   0.950  0.00  0.00    +0.190 C 
ENDROOT
BRANCH   1  13
ATOM      9  C   LIG    1        1.378  -3.905   2.351  0.00  0.00    +0.150 A 
ATOM     10  C   LIG    1        0.573  -4.628   1.481  0.00  0.00    -0.100 A 
ATOM     11  C   LIG    1       -0.140  -3.975   0.493  0.00  0.00    +0.080 A 
ATOM     12  C   LIG    1       -0.054  -2.602   0.369  0.00  0.00    -0.080 A 
ATOM     13  C   LIG    1        0.750  -1.874   1.236  0.00  0.00    +0.150 A 
ATOM     14  C   LIG    1        1.472  -2.528   2.225  0.00  0.00    -0.040 A 
BRANCH   9  16
ATOM     15  C   LIG    1        1.940  -5.969   3.389  0.00  0.00    +0.250 C 
ATOM     16  O   LIG    1        2.079  -4.549   3.321  0.00  0.00    -0.320 OA
ENDBRANCH   9  16
ENDBRANCH   1  13
BRANCH   6  17
ATOM     17  C   LIG    1        3.201   3.417  -0.893  0.00  0.00    +0.070 C 
BRANCH  17  18
ATOM     18  C   LIG    1        3.395   4.447  -2.007  0.00  0.00    +0.060 C 
BRANCH  18  19
ATOM     19  C   LIG    1        4.822   4.932  -2.000  0.00  0.00    +0.430 C 
ATOM     20  O   LIG    1        5.608   4.495  -1.183  0.00  0.00    -0.450 OA
BRANCH  19  21
ATOM     21  C   LIG    1        5.246   5.893  -2.942  0.00  0.00    -0.310 A 
ATOM     22  C   LIG    1        6.512   6.414  -3.033  0.00  0.00    +0.130 A 
ATOM     23  C   LIG    1        6.649   7.330  -4.044  0.00  0.00    +0.010 A 
ATOM     24  C   LIG    1        5.535   7.564  -4.756  0.00  0.00    -0.160 A 
ATOM     25 CL   LIG    1        5.431   8.678  -6.083  0.00  0.00    +0.000 Cl
ATOM     26  S   LIG    1        4.234   6.620  -4.183  0.00  0.00    +0.290 S 
ENDBRANCH  19  21
ENDBRANCH  18  19
ENDBRANCH  17  18
ENDBRANCH   6  17
TORSDOF 6
