REMARK  Name = ZINCnE00000rhnoc.0
REMARK                            x       y       z     vdW  Elec       q    Type
REMARK                         _______ _______ _______ _____ _____    ______ ____
ROOT
ATOM      1  O   LIG    1       -0.822  -0.455  -2.076  0.00  0.00    -0.550 OA
ATOM      2  C   LIG    1       -1.132   0.720  -2.138  0.00  0.00    +0.540 C 
ATOM      3  N   LIG    1       -0.732   1.575  -1.176  0.00  0.00    -0.600 N 
ATOM      4  C   LIG    1       -0.018   1.084   0.011  0.00  0.00    +0.270 C 
ATOM      5  C   LIG    1       -0.745   1.579   1.266  0.00  0.00    +0.030 C 
ATOM      6  C   LIG    1       -0.889   3.102   1.200  0.00  0.00    -0.120 C 
ATOM      7  C   LIG    1       -1.720   3.487  -0.026  0.00  0.00    +0.040 C 
ATOM      8  C   LIG    1       -1.001   3.014  -1.294  0.00  0.00    +0.250 C 
ENDROOT
BRANCH   6   9
ATOM      9  C   LIG    1       -1.576   3.595   2.447  0.00  0.00    +0.500 C 
ATOM     10  O   LIG    1       -2.264   4.601   2.407  0.00  0.00    -0.690 OA
ATOM     11  O   LIG    1       -1.444   2.988   3.496  0.00  0.00    -0.690 OA
ENDBRANCH   6   9
BRANCH   2  12
ATOM     12  C   LIG    1       -1.939   1.205  -3.260  0.00  0.00    -0.060 C 
ATOM     13  C   LIG    1       -2.426   0.335  -4.166  0.00  0.00    +0.100 C 
BRANCH  13  14
ATOM     14  C   LIG    1       -3.238   0.823  -5.293  0.00  0.00    -0.050 A 
ATOM     15  C   LIG    1       -3.745  -0.077  -6.235  0.00  0.00    +0.050 A 
ATOM     16  C   LIG    1       -4.505   0.387  -7.288  0.00  0.00    +0.030 A 
ATOM     17  C   LIG    1       -4.765   1.740  -7.415  0.00  0.00    +0.020 A 
ATOM     18  C   LIG    1       -4.266   2.638  -6.486  0.00  0.00    -0.030 A 
ATOM     19 CL   LIG    1       -4.600   4.334  -6.655  0.00  0.00    -0.070 Cl
ATOM     20  C   LIG    1       -3.509   2.188  -5.424  0.00  0.00    +0.040 A 
ENDBRANCH  13  14
ENDBRANCH   2  12
BRANCH   6  21
ATOM     21  C   LIG    1        0.498   3.738   1.096  0.00  0.00    +0.010 C 
BRANCH  21  22
ATOM     22  C   LIG    1        1.329   3.353   2.322  0.00  0.00    +0.220 C 
ATOM     23  F   LIG    1        2.597   3.935   2.228  0.00  0.00    -0.230 F 
ENDBRANCH  21  22
ENDBRANCH   6  21
TORSDOF 5
