REMARK  Name = ZINCrD0000074blT.0
REMARK                            x       y       z     vdW  Elec       q    Type
REMARK                         _______ _______ _______ _____ _____    ______ ____
ROOT
ATOM      1  C   LIG    1        2.369   7.222  -3.719  0.00  0.00    +0.070 C 
ATOM      2  C   LIG    1        1.164   7.855  -3.020  0.00  0.00    +0.180 C 
ENDROOT
BRANCH   2   3
ATOM      3  C   LIG    1        1.086   7.355  -1.601  0.00  0.00    +0.520 C 
ATOM      4  N   LIG    1        0.847   6.051  -1.358  0.00  0.00    -0.720 N 
ATOM      5  H   LIG    1        0.725   5.435  -2.097  0.00  0.00    +0.400 HD
ATOM      6  O   LIG    1        1.239   8.126  -0.677  0.00  0.00    -0.510 OA
BRANCH   4   7
ATOM      7  C   LIG    1        0.771   5.565   0.022  0.00  0.00    +0.340 C 
BRANCH   7   8
ATOM      8  C   LIG    1        0.496   4.083   0.018  0.00  0.00    -0.100 A 
ATOM      9  C   LIG    1       -0.808   3.624   0.028  0.00  0.00    +0.050 A 
ATOM     10  C   LIG    1       -1.065   2.265   0.019  0.00  0.00    +0.040 A 
ATOM     11  C   LIG    1       -0.016   1.361   0.009  0.00  0.00    +0.040 A 
ATOM     12  O   LIG    1        0.002  -0.004   0.002  0.00  0.00    -0.310 OA
ATOM     13  C   LIG    1        1.336  -0.373   0.399  0.00  0.00    +0.430 C 
ATOM     14  O   LIG    1        2.139   0.749  -0.014  0.00  0.00    -0.310 OA
ATOM     15  C   LIG    1        1.297   1.824  -0.001  0.00  0.00    +0.030 A 
ATOM     16  C   LIG    1        1.548   3.186   0.004  0.00  0.00    +0.060 A 
ENDBRANCH   7   8
ENDBRANCH   4   7
ENDBRANCH   2   3
BRANCH   2  17
ATOM     17  O   LIG    1        1.309   9.277  -3.017  0.00  0.00    -0.320 OA
BRANCH  17  18
ATOM     18  C   LIG    1        0.793   9.947  -4.068  0.00  0.00    +0.500 C 
ATOM     19  O   LIG    1        0.235   9.340  -4.962  0.00  0.00    -0.510 OA
BRANCH  18  20
ATOM     20  C   LIG    1        0.904  11.404  -4.131  0.00  0.00    -0.040 C 
ATOM     21  C   LIG    1        0.388  12.075  -5.182  0.00  0.00    +0.130 C 
BRANCH  21  22
ATOM     22  C   LIG    1        0.499  13.540  -5.246  0.00  0.00    -0.070 A 
ATOM     23  C   LIG    1        1.134  14.242  -4.217  0.00  0.00    +0.060 A 
ATOM     24  C   LIG    1        1.240  15.615  -4.287  0.00  0.00    +0.020 A 
ATOM     25  C   LIG    1        0.710  16.300  -5.367  0.00  0.00    +0.050 A 
ATOM     26  C   LIG    1        0.074  15.615  -6.387  0.00  0.00    +0.030 A 
ATOM     27  C   LIG    1       -0.035  14.240  -6.335  0.00  0.00    -0.010 A 
ATOM     28 CL   LIG    1       -0.832  13.381  -7.616  0.00  0.00    -0.050 Cl
ENDBRANCH  21  22
ENDBRANCH  18  20
ENDBRANCH  17  18
ENDBRANCH   2  17
TORSDOF 7
