REMARK  Name = ZINCrD0000073Cug.0
REMARK                            x       y       z     vdW  Elec       q    Type
REMARK                         _______ _______ _______ _____ _____    ______ ____
ROOT
ATOM      1  C   LIG    1        4.025  -2.098  -0.126  0.00  0.00    +0.420 C 
ENDROOT
BRANCH   1   5
ATOM      2  C   LIG    1        2.037   0.896  -0.196  0.00  0.00    +0.220 A 
ATOM      3  N   LIG    1        3.235   1.348   0.070  0.00  0.00    -0.360 NA
ATOM      4  O   LIG    1        4.025   0.429   0.125  0.00  0.00    +0.100 OA
ATOM      5  C   LIG    1        3.397  -0.728  -0.106  0.00  0.00    +0.170 A 
ATOM      6  N   LIG    1        2.134  -0.448  -0.306  0.00  0.00    -0.440 NA
BRANCH   2  11
ATOM      7  C   LIG    1       -0.303   3.840  -0.335  0.00  0.00    +0.130 A 
ATOM      8  C   LIG    1       -1.508   3.213  -0.620  0.00  0.00    -0.050 A 
ATOM      9  C   LIG    1       -1.558   1.839  -0.771  0.00  0.00    +0.060 A 
ATOM     10  C   LIG    1       -0.411   1.084  -0.630  0.00  0.00    +0.030 A 
ATOM     11  C   LIG    1        0.802   1.706  -0.344  0.00  0.00    +0.010 A 
ATOM     12  C   LIG    1        0.853   3.090  -0.197  0.00  0.00    +0.020 A 
BRANCH   7  14
ATOM     13  C   LIG    1       -1.488   5.902  -0.348  0.00  0.00    +0.250 C 
ATOM     14  O   LIG    1       -0.258   5.191  -0.192  0.00  0.00    -0.310 OA
ENDBRANCH   7  14
ENDBRANCH   2  11
ENDBRANCH   1   5
BRANCH   1  15
ATOM     15  O   LIG    1        4.475  -2.405  -1.472  0.00  0.00    -0.340 OA
BRANCH  15  16
ATOM     16  C   LIG    1        5.063  -3.601  -1.663  0.00  0.00    +0.520 C 
ATOM     17  O   LIG    1        5.197  -4.368  -0.730  0.00  0.00    -0.480 OA
BRANCH  16  18
ATOM     18  C   LIG    1        5.546  -3.982  -3.006  0.00  0.00    -0.070 A 
ATOM     19  C   LIG    1        5.394  -3.103  -4.080  0.00  0.00    +0.090 A 
ATOM     20  C   LIG    1        5.847  -3.465  -5.332  0.00  0.00    +0.100 A 
ATOM     21  C   LIG    1        6.451  -4.695  -5.524  0.00  0.00    -0.020 A 
ATOM     22  C   LIG    1        6.604  -5.571  -4.464  0.00  0.00    -0.020 A 
ATOM     23  C   LIG    1        7.263  -6.908  -4.682  0.00  0.00    +0.140 C 
ATOM     24  C   LIG    1        6.161  -5.219  -3.206  0.00  0.00    +0.100 A 
BRANCH  21  25
ATOM     25  N   LIG    1        6.934  -5.076  -6.870  0.00  0.00    +0.020 N 
ATOM     26  O   LIG    1        7.569  -6.104  -7.021  0.00  0.00    -0.140 OA
ATOM     27  O   LIG    1        6.696  -4.362  -7.828  0.00  0.00    -0.150 OA
ENDBRANCH  21  25
ENDBRANCH  16  18
ENDBRANCH  15  16
ENDBRANCH   1  15
TORSDOF 7
