REMARK  Name = ZINCkj00000a7UGq.1
REMARK                            x       y       z     vdW  Elec       q    Type
REMARK                         _______ _______ _______ _____ _____    ______ ____
ROOT
ATOM      1  O   LIG    1        3.867   2.732  -1.161  0.00  0.00    -0.930 OA
ATOM      2  S   LIG    1        2.929   2.178  -2.074  0.00  0.00    +2.590 S 
ATOM      3  C   LIG    1        2.045   0.794  -1.288  0.00  0.00    -0.340 C 
ATOM      4  C   LIG    1        1.415   1.367   0.027  0.00  0.00    +0.310 C 
ATOM      5  N   LIG    1       -0.018   0.998   0.007  0.00  0.00    -0.400 N 
ATOM      6  C   LIG    1       -0.908   1.515  -1.064  0.00  0.00    +0.260 C 
ATOM      7  C   LIG    1       -0.811   3.090  -0.916  0.00  0.00    +0.060 C 
ATOM      8  C   LIG    1       -0.578   3.581  -2.365  0.00  0.00    +0.020 C 
ATOM      9  C   LIG    1        0.640   3.031  -3.119  0.00  0.00    +0.290 C 
ATOM     10  H   LIG    1       -0.068  -0.009  -0.023  0.00  0.00    +0.420 HD
ATOM     11  O   LIG    1        3.340   1.807  -3.383  0.00  0.00    -0.920 OA
ATOM     12  N   LIG    1        1.864   3.433  -2.344  0.00  0.00    -1.110 NA
ATOM     13  H   LIG    1        2.020   4.338  -2.030  0.00  0.00    +0.440 HD
ENDROOT
BRANCH   5  14
ATOM     14  C   LIG    1       -0.595   1.417   1.291  0.00  0.00    +0.260 C 
BRANCH  14  15
ATOM     15  C   LIG    1        0.020   0.588   2.421  0.00  0.00    +0.100 C 
BRANCH  15  16
ATOM     16  C   LIG    1       -0.664   0.924   3.720  0.00  0.00    -0.120 A 
ATOM     17  C   LIG    1       -0.172   1.941   4.518  0.00  0.00    +0.060 A 
ATOM     18  C   LIG    1       -0.803   2.253   5.707  0.00  0.00    -0.010 A 
ATOM     19  C   LIG    1       -1.921   1.540   6.106  0.00  0.00    +0.120 A 
ATOM     20  C   LIG    1       -2.409   0.519   5.309  0.00  0.00    -0.010 A 
ATOM     21  F   LIG    1       -2.535   1.841   7.271  0.00  0.00    -0.130 F 
ATOM     22  C   LIG    1       -1.780   0.211   4.117  0.00  0.00    +0.060 A 
ENDBRANCH  15  16
ENDBRANCH  14  15
ENDBRANCH   5  14
TORSDOF 3
