REMARK  Name = ZINCkj00000a7UGq.0
REMARK                            x       y       z     vdW  Elec       q    Type
REMARK                         _______ _______ _______ _____ _____    ______ ____
ROOT
ATOM      1  O   LIG    1       -0.604   5.064  -2.559  0.00  0.00    -0.920 OA
ATOM      2  S   LIG    1       -0.743   3.651  -2.614  0.00  0.00    +2.590 S 
ATOM      3  C   LIG    1       -1.061   2.995  -0.944  0.00  0.00    -0.360 C 
ATOM      4  C   LIG    1       -0.945   1.438  -1.057  0.00  0.00    +0.320 C 
ATOM      5  N   LIG    1       -0.012   1.005   0.008  0.00  0.00    -0.400 N 
ATOM      6  C   LIG    1        1.400   1.465  -0.003  0.00  0.00    +0.270 C 
ATOM      7  C   LIG    1        1.962   0.940  -1.389  0.00  0.00    +0.060 C 
ATOM      8  C   LIG    1        2.689   2.172  -1.981  0.00  0.00    +0.030 C 
ATOM      9  C   LIG    1        1.872   3.456  -2.178  0.00  0.00    +0.290 C 
ATOM     10  H   LIG    1        0.002  -0.004   0.002  0.00  0.00    +0.430 HD
ATOM     11  O   LIG    1       -1.637   3.056  -3.544  0.00  0.00    -0.930 OA
ATOM     12  N   LIG    1        0.756   3.135  -3.134  0.00  0.00    -1.110 NA
ATOM     13  H   LIG    1        0.895   2.671  -3.974  0.00  0.00    +0.440 HD
ENDROOT
BRANCH   5  14
ATOM     14  C   LIG    1       -0.595   1.417   1.291  0.00  0.00    +0.240 C 
BRANCH  14  15
ATOM     15  C   LIG    1       -1.962   0.754   1.467  0.00  0.00    +0.100 C 
BRANCH  15  16
ATOM     16  C   LIG    1       -2.561   1.177   2.784  0.00  0.00    -0.120 A 
ATOM     17  C   LIG    1       -2.317   0.433   3.923  0.00  0.00    +0.060 A 
ATOM     18  C   LIG    1       -2.861   0.823   5.133  0.00  0.00    -0.010 A 
ATOM     19  C   LIG    1       -3.658   1.953   5.200  0.00  0.00    +0.120 A 
ATOM     20  C   LIG    1       -3.905   2.694   4.057  0.00  0.00    -0.010 A 
ATOM     21  F   LIG    1       -4.194   2.332   6.381  0.00  0.00    -0.130 F 
ATOM     22  C   LIG    1       -3.357   2.305   2.850  0.00  0.00    +0.050 A 
ENDBRANCH  15  16
ENDBRANCH  14  15
ENDBRANCH   5  14
TORSDOF 3
