REMARK  Name = ZINCpe00000FUg6y.0
REMARK                            x       y       z     vdW  Elec       q    Type
REMARK                         _______ _______ _______ _____ _____    ______ ____
ROOT
ATOM      1  C   LIG    1       -2.995   6.703   1.571  0.00  0.00    +0.330 C 
ATOM      2  C   LIG    1       -2.329   5.670   0.661  0.00  0.00    +0.000 C 
ATOM      3  C   LIG    1       -3.378   4.635   0.237  0.00  0.00    +0.050 C 
ATOM      4  C   LIG    1       -4.401   5.325  -0.670  0.00  0.00    +0.090 C 
ATOM      5  C   LIG    1       -4.867   6.603  -0.034  0.00  0.00    +0.520 C 
ATOM      6  O   LIG    1       -5.892   7.106  -0.442  0.00  0.00    -0.540 OA
ATOM      7  N   LIG    1       -4.214   7.214   0.955  0.00  0.00    -0.600 N 
ATOM      8  C   LIG    1       -4.753   8.483   1.452  0.00  0.00    +0.300 C 
ENDROOT
BRANCH   2   9
ATOM      9  C   LIG    1       -1.214   4.984   1.406  0.00  0.00    +0.540 C 
ATOM     10  N   LIG    1       -0.273   4.297   0.728  0.00  0.00    -0.610 N 
ATOM     11  C   LIG    1       -0.325   4.210  -0.746  0.00  0.00    +0.260 C 
ATOM     12  C   LIG    1        1.066   4.299  -1.329  0.00  0.00    +0.230 C 
ATOM     13  O   LIG    1        1.617   2.982  -1.418  0.00  0.00    -0.360 OA
ATOM     14  C   LIG    1        2.188   2.446  -0.290  0.00  0.00    +0.250 C 
ATOM     15  C   LIG    1        1.154   2.276   0.838  0.00  0.00    +0.240 C 
ATOM     16  F   LIG    1        1.677   1.431   1.823  0.00  0.00    -0.190 F 
ATOM     17  F   LIG    1       -0.013   1.709   0.315  0.00  0.00    -0.180 F 
ATOM     18  C   LIG    1        0.830   3.618   1.450  0.00  0.00    +0.290 C 
ATOM     19  O   LIG    1       -1.163   5.049   2.616  0.00  0.00    -0.520 OA
ENDBRANCH   2   9
BRANCH   1  25
ATOM     20  C   LIG    1       -2.029   7.757   4.321  0.00  0.00    +0.360 C 
ATOM     21  N   LIG    1       -1.627   8.291   3.018  0.00  0.00    -0.350 N 
ATOM     22  N   LIG    1       -0.744   9.357   2.801  0.00  0.00    -0.280 NA
ATOM     23  C   LIG    1       -0.638   9.544   1.511  0.00  0.00    +0.220 A 
ATOM     24  C   LIG    1       -1.445   8.602   0.865  0.00  0.00    -0.120 A 
ATOM     25  C   LIG    1       -2.039   7.842   1.814  0.00  0.00    +0.070 A 
ENDBRANCH   1  25
TORSDOF 2
