REMARK  Name = ZINCqH00000386eA.0
REMARK                            x       y       z     vdW  Elec       q    Type
REMARK                         _______ _______ _______ _____ _____    ______ ____
ROOT
ATOM      1  C   LIG    1        0.018   1.096   0.019  0.00  0.00    +0.280 C 
ENDROOT
BRANCH   1   5
ATOM      2  N   LIG    1       -0.159   2.198  -3.468  0.00  0.00    -0.460 N 
ATOM      3  C   LIG    1        0.114   3.408  -2.650  0.00  0.00    +0.180 C 
ATOM      4  C   LIG    1       -0.611   3.144  -1.312  0.00  0.00    +0.030 C 
ATOM      5  C   LIG    1       -0.727   1.608  -1.215  0.00  0.00    -0.020 C 
ATOM      6  C   LIG    1       -0.062   1.074  -2.502  0.00  0.00    +0.200 C 
BRANCH   2  14
ATOM      7  C   LIG    1       -0.100   4.179  -5.509  0.00  0.00    +0.100 C 
ATOM      8  C   LIG    1        0.847   3.007  -5.508  0.00  0.00    -0.090 A 
ATOM      9  C   LIG    1        1.780   2.871  -6.517  0.00  0.00    +0.050 A 
ATOM     10  C   LIG    1        2.649   1.796  -6.517  0.00  0.00    +0.000 A 
ATOM     11  C   LIG    1        2.588   0.853  -5.506  0.00  0.00    -0.020 A 
ATOM     12  C   LIG    1        1.660   0.987  -4.490  0.00  0.00    -0.020 A 
ATOM     13 CL   LIG    1        3.682  -0.496  -5.510  0.00  0.00    -0.070 Cl
ATOM     14  C   LIG    1        0.783   2.063  -4.491  0.00  0.00    +0.110 A 
ENDBRANCH   2  14
ENDBRANCH   1   5
BRANCH   1  15
ATOM     15  N   LIG    1       -0.656   1.573   1.229  0.00  0.00    -0.710 N 
ATOM     16  H   LIG    1       -1.450   2.126   1.156  0.00  0.00    +0.410 HD
ATOM     17  C   LIG    1       -0.174   1.244   2.444  0.00  0.00    +0.600 C 
ATOM     18  O   LIG    1        0.820   0.551   2.535  0.00  0.00    -0.510 OA
BRANCH  17  19
ATOM     19  C   LIG    1       -0.857   1.727   3.669  0.00  0.00    -0.020 A 
ATOM     20  N   LIG    1       -1.931   2.482   3.734  0.00  0.00    -0.340 NA
ATOM     21  O   LIG    1       -2.251   2.705   4.884  0.00  0.00    +0.130 OA
ATOM     22  C   LIG    1       -1.415   2.126   5.745  0.00  0.00    -0.030 A 
ATOM     23  C   LIG    1       -1.427   2.139   7.251  0.00  0.00    +0.160 C 
ATOM     24  C   LIG    1       -0.526   1.002   7.750  0.00  0.00    +0.030 C 
ATOM     25  C   LIG    1        0.831   1.069   7.043  0.00  0.00    +0.020 C 
ATOM     26  C   LIG    1        0.659   0.685   5.567  0.00  0.00    +0.120 C 
ATOM     27  C   LIG    1       -0.486   1.476   5.005  0.00  0.00    -0.150 A 
ENDBRANCH  17  19
ENDBRANCH   1  15
TORSDOF 4
