REMARK  Name = ZINCnE000004RaWQ.0
REMARK                            x       y       z     vdW  Elec       q    Type
REMARK                         _______ _______ _______ _____ _____    ______ ____
ROOT
ATOM      1  C   LIG    1        1.742  -3.603  -1.725  0.00  0.00    +0.290 C 
ENDROOT
BRANCH   1  10
ATOM      2  N   LIG    1        0.966  -3.943  -4.124  0.00  0.00    -0.480 N 
ATOM      3  C   LIG    1        0.150  -4.833  -4.794  0.00  0.00    +0.050 A 
ATOM      4  C   LIG    1       -0.244  -4.975  -6.117  0.00  0.00    +0.010 A 
ATOM      5  C   LIG    1       -1.094  -6.002  -6.470  0.00  0.00    +0.020 A 
ATOM      6  C   LIG    1       -1.557  -6.892  -5.511  0.00  0.00    +0.000 A 
ATOM      7  C   LIG    1       -1.180  -6.766  -4.204  0.00  0.00    +0.060 A 
ATOM      8  C   LIG    1       -0.319  -5.734  -3.824  0.00  0.00    +0.050 A 
ATOM      9  N   LIG    1        0.228  -5.359  -2.638  0.00  0.00    -0.490 NA
ATOM     10  C   LIG    1        0.974  -4.309  -2.814  0.00  0.00    +0.300 A 
BRANCH   2  12
ATOM     11  C   LIG    1        3.076  -3.275  -5.166  0.00  0.00    +0.030 C 
ATOM     12  C   LIG    1        1.689  -2.813  -4.715  0.00  0.00    +0.300 C 
ENDBRANCH   2  12
ENDBRANCH   1  10
BRANCH   1  13
ATOM     13  N   LIG    1        0.901  -2.553  -1.136  0.00  0.00    -0.680 NA
ATOM     14  H   LIG    1        0.069  -2.945  -0.722  0.00  0.00    +0.350 HD
BRANCH  13  15
ATOM     15  C   LIG    1        1.656  -1.764  -0.153  0.00  0.00    +0.260 C 
BRANCH  15  16
ATOM     16  C   LIG    1        1.091  -0.368  -0.088  0.00  0.00    -0.050 A 
ATOM     17  C   LIG    1       -0.219  -0.122  -0.135  0.00  0.00    -0.050 A 
ATOM     18  S   LIG    1       -0.497   1.612  -0.033  0.00  0.00    +0.030 S 
ATOM     19  C   LIG    1        1.232   1.913   0.071  0.00  0.00    -0.070 A 
ATOM     20  C   LIG    1        1.892   0.755   0.026  0.00  0.00    +0.070 A 
ENDBRANCH  15  16
BRANCH  15  21
ATOM     21  C   LIG    1        1.546  -2.423   1.223  0.00  0.00    -0.090 C 
BRANCH  21  22
ATOM     22  C   LIG    1        2.451  -1.711   2.195  0.00  0.00    +0.500 C 
ATOM     23  O   LIG    1        2.429  -2.007   3.378  0.00  0.00    -0.700 OA
ATOM     24  O   LIG    1        3.206  -0.839   1.799  0.00  0.00    -0.690 OA
ENDBRANCH  21  22
ENDBRANCH  15  21
ENDBRANCH  13  15
ENDBRANCH   1  13
TORSDOF 7
