REMARK  Name = ZINCrD000000fO27.0
REMARK                            x       y       z     vdW  Elec       q    Type
REMARK                         _______ _______ _______ _____ _____    ______ ____
ROOT
ATOM      1  C   LIG    1        0.223   1.044  -0.406  0.00  0.00    +0.590 C 
ATOM      2  N   LIG    1        0.436  -0.286  -0.463  0.00  0.00    -0.730 N 
ATOM      3  H   LIG    1        1.334  -0.638  -0.361  0.00  0.00    +0.390 HD
ATOM      4  O   LIG    1       -0.903   1.486  -0.539  0.00  0.00    -0.520 OA
ENDROOT
BRANCH   1   9
ATOM      5  C   LIG    1        2.585   3.797   0.101  0.00  0.00    -0.260 A 
ATOM      6  C   LIG    1        3.417   2.690   0.145  0.00  0.00    +0.100 A 
ATOM      7  N   LIG    1        2.668   1.591  -0.025  0.00  0.00    -0.530 N 
ATOM      8  H   LIG    1        3.001   0.680  -0.033  0.00  0.00    +0.420 HD
ATOM      9  C   LIG    1        1.350   1.960  -0.190  0.00  0.00    -0.070 A 
ATOM     10  C   LIG    1        4.910   2.716   0.355  0.00  0.00    +0.160 C 
ATOM     11  C   LIG    1        1.270   3.318  -0.114  0.00  0.00    -0.030 A 
ATOM     12  C   LIG    1        0.020   4.151  -0.233  0.00  0.00    +0.120 C 
BRANCH   5  14
ATOM     13  C   LIG    1        3.073   5.820   1.618  0.00  0.00    +0.070 C 
ATOM     14  C   LIG    1        2.989   5.199   0.247  0.00  0.00    +0.440 C 
ATOM     15  O   LIG    1        3.255   5.860  -0.735  0.00  0.00    -0.450 OA
ENDBRANCH   5  14
ENDBRANCH   1   9
BRANCH   2  16
ATOM     16  C   LIG    1       -0.689  -1.199  -0.678  0.00  0.00    +0.280 C 
BRANCH  16  17
ATOM     17  C   LIG    1       -0.178  -2.641  -0.700  0.00  0.00    +0.000 C 
ATOM     18  C   LIG    1        0.677  -2.899  -1.963  0.00  0.00    +0.030 C 
ATOM     19  C   LIG    1        0.290  -4.316  -2.427  0.00  0.00    +0.190 C 
ATOM     20  N   LIG    1       -0.702  -4.834  -1.461  0.00  0.00    -0.480 N 
ATOM     21  C   LIG    1       -1.353  -3.637  -0.863  0.00  0.00    +0.200 C 
BRANCH  20  22
ATOM     22  C   LIG    1       -1.642  -5.651  -2.097  0.00  0.00    +0.100 A 
ATOM     23  C   LIG    1       -2.433  -5.138  -3.115  0.00  0.00    +0.010 A 
ATOM     24  C   LIG    1       -3.361  -5.947  -3.743  0.00  0.00    +0.040 A 
ATOM     25  C   LIG    1       -3.503  -7.268  -3.357  0.00  0.00    +0.070 A 
ATOM     26  C   LIG    1       -2.714  -7.784  -2.340  0.00  0.00    +0.080 A 
ATOM     27  F   LIG    1       -2.854  -9.074  -1.965  0.00  0.00    -0.120 F 
ATOM     28  F   LIG    1       -4.412  -8.056  -3.972  0.00  0.00    -0.130 F 
ATOM     29  C   LIG    1       -1.780  -6.979  -1.714  0.00  0.00    +0.050 A 
ENDBRANCH  20  22
ENDBRANCH  16  17
ENDBRANCH   2  16
TORSDOF 5
