REMARK  Name = ZINCrD000000C9ae.0
REMARK                            x       y       z     vdW  Elec       q    Type
REMARK                         _______ _______ _______ _____ _____    ______ ____
ROOT
ATOM      1  C   LIG    1       -6.213   2.874  -3.979  0.00  0.00    -0.120 A 
ATOM      2  C   LIG    1       -5.963   1.666  -3.326  0.00  0.00    +0.080 A 
ATOM      3  C   LIG    1       -5.504   1.671  -2.025  0.00  0.00    +0.050 A 
ATOM      4  C   LIG    1       -5.290   2.870  -1.368  0.00  0.00    -0.100 A 
ATOM      5  C   LIG    1       -5.540   4.071  -2.008  0.00  0.00    +0.040 A 
ATOM      6  C   LIG    1       -5.995   4.080  -3.311  0.00  0.00    +0.040 A 
ENDROOT
BRANCH   1   8
ATOM      7  O   LIG    1       -6.895   1.825  -5.952  0.00  0.00    -0.510 OA
ATOM      8  C   LIG    1       -6.706   2.877  -5.373  0.00  0.00    +0.560 C 
ATOM      9  N   LIG    1       -6.946   4.045  -6.001  0.00  0.00    -0.670 N 
ATOM     10  H   LIG    1       -6.859   4.882  -5.518  0.00  0.00    +0.410 HD
BRANCH   9  11
ATOM     11  C   LIG    1       -7.319   4.051  -7.348  0.00  0.00    +0.140 A 
ATOM     12  C   LIG    1       -6.894   5.076  -8.184  0.00  0.00    -0.010 A 
ATOM     13  C   LIG    1       -7.261   5.077  -9.515  0.00  0.00    +0.030 A 
ATOM     14  C   LIG    1       -8.058   4.062 -10.015  0.00  0.00    -0.010 A 
ATOM     15  C   LIG    1       -8.486   3.043  -9.185  0.00  0.00    +0.030 A 
ATOM     16  C   LIG    1       -8.119   3.034  -7.853  0.00  0.00    +0.020 A 
ENDBRANCH   9  11
ENDBRANCH   1   8
BRANCH   4  17
ATOM     17  C   LIG    1       -4.788   2.868   0.053  0.00  0.00    +0.430 C 
BRANCH  17  18
ATOM     18  N   LIG    1       -3.323   2.886   0.053  0.00  0.00    -0.450 N 
ATOM     19  N   LIG    1       -2.473   1.771   0.040  0.00  0.00    -0.240 NA
ATOM     20  C   LIG    1       -1.244   2.208   0.049  0.00  0.00    +0.320 A 
ATOM     21  O   LIG    1       -1.257   3.559   0.057  0.00  0.00    -0.260 OA
ATOM     22  C   LIG    1       -2.533   3.981   0.060  0.00  0.00    +0.610 A 
ATOM     23  O   LIG    1       -2.908   5.139   0.067  0.00  0.00    -0.470 OA
BRANCH  20  24
ATOM     24  C   LIG    1       -0.037   1.366   0.043  0.00  0.00    +0.020 A 
ATOM     25  C   LIG    1        1.250   1.812   0.041  0.00  0.00    +0.050 A 
ATOM     26  C   LIG    1        2.074   0.671   0.030  0.00  0.00    -0.060 A 
ATOM     27  C   LIG    1        1.262  -0.405   0.026  0.00  0.00    +0.230 A 
ATOM     28  O   LIG    1       -0.013   0.018   0.034  0.00  0.00    -0.150 OA
ENDBRANCH  20  24
ENDBRANCH  17  18
ENDBRANCH   4  17
TORSDOF 5
