REMARK  Name = ZINCpe000000SyCi.0
REMARK                            x       y       z     vdW  Elec       q    Type
REMARK                         _______ _______ _______ _____ _____    ______ ____
ROOT
ATOM      1  C   LIG    1        1.401   1.607  -0.003  0.00  0.00    +0.520 C 
ATOM      2  N   LIG    1        2.214   1.372   1.046  0.00  0.00    -0.620 N 
ATOM      3  C   LIG    1        1.777   0.522   2.164  0.00  0.00    +0.300 C 
ATOM      4  C   LIG    1        2.858  -0.541   2.413  0.00  0.00    +0.200 C 
ATOM      5  N   LIG    1        4.154   0.122   2.607  0.00  0.00    -0.470 N 
ATOM      6  C   LIG    1        4.569   0.847   1.399  0.00  0.00    +0.210 C 
ATOM      7  C   LIG    1        3.560   1.962   1.106  0.00  0.00    +0.290 C 
ATOM      8  O   LIG    1        1.805   2.245  -0.952  0.00  0.00    -0.530 OA
ENDROOT
BRANCH   1  14
ATOM      9  C   LIG    1       -4.782   2.605  -0.080  0.00  0.00    +0.090 C 
ATOM     10  C   LIG    1       -3.935   1.759  -0.995  0.00  0.00    +0.510 C 
ATOM     11  N   LIG    1       -2.780   1.230  -0.546  0.00  0.00    -0.620 N 
ATOM     12  C   LIG    1       -1.943   0.403  -1.426  0.00  0.00    +0.280 C 
ATOM     13  C   LIG    1       -0.522   0.974  -1.435  0.00  0.00    +0.040 C 
ATOM     14  C   LIG    1       -0.010   1.077   0.004  0.00  0.00    -0.010 C 
ATOM     15  C   LIG    1       -0.907   2.028   0.799  0.00  0.00    +0.030 C 
ATOM     16  C   LIG    1       -2.333   1.469   0.833  0.00  0.00    +0.270 C 
ATOM     17  O   LIG    1       -4.293   1.555  -2.136  0.00  0.00    -0.540 OA
ENDBRANCH   1  14
BRANCH   5  18
ATOM     18  C   LIG    1        5.127  -0.791   2.999  0.00  0.00    +0.320 A 
ATOM     19  C   LIG    1        4.921  -1.573   4.130  0.00  0.00    +0.010 A 
ATOM     20  C   LIG    1        5.906  -2.488   4.506  0.00  0.00    +0.050 A 
ATOM     21  C   LIG    1        7.068  -2.570   3.728  0.00  0.00    -0.010 A 
ATOM     22  C   LIG    1        7.195  -1.754   2.623  0.00  0.00    +0.310 A 
ATOM     23  N   LIG    1        6.242  -0.903   2.293  0.00  0.00    -0.500 NA
BRANCH  20  24
ATOM     24  C   LIG    1        5.736  -3.318   5.661  0.00  0.00    +0.250 C 
ATOM     25  N   LIG    1        5.601  -3.976   6.577  0.00  0.00    -0.390 NA
ENDBRANCH  20  24
ENDBRANCH   5  18
TORSDOF 3
