REMARK  Name = ZINCqH0000008syt.0
REMARK                            x       y       z     vdW  Elec       q    Type
REMARK                         _______ _______ _______ _____ _____    ______ ____
ROOT
ATOM      1  N   LIG    1        3.271   4.698   2.678  0.00  0.00    -0.730 N 
ATOM      2  H   LIG    1        2.852   5.573   2.705  0.00  0.00    +0.410 HD
ENDROOT
BRANCH   1   3
ATOM      3  C   LIG    1        3.915   4.197   3.811  0.00  0.00    +0.260 A 
ATOM      4  C   LIG    1        4.516   2.945   3.773  0.00  0.00    -0.110 A 
ATOM      5  C   LIG    1        5.154   2.450   4.894  0.00  0.00    +0.100 A 
ATOM      6  C   LIG    1        5.197   3.198   6.054  0.00  0.00    -0.130 A 
ATOM      7  C   LIG    1        4.598   4.449   6.098  0.00  0.00    +0.170 A 
ATOM      8  C   LIG    1        3.962   4.952   4.975  0.00  0.00    -0.080 A 
BRANCH   7   9
ATOM      9  O   LIG    1        4.641   5.184   7.241  0.00  0.00    -0.300 OA
BRANCH   9  10
ATOM     10  C   LIG    1        5.319   4.606   8.358  0.00  0.00    +0.240 C 
BRANCH  10  11
ATOM     11  C   LIG    1        5.264   5.572   9.544  0.00  0.00    +0.460 C 
ATOM     12  F   LIG    1        5.884   6.776   9.194  0.00  0.00    -0.170 F 
ATOM     13  F   LIG    1        5.928   5.006  10.638  0.00  0.00    -0.170 F 
ATOM     14  F   LIG    1        3.929   5.816   9.884  0.00  0.00    -0.170 F 
ENDBRANCH  10  11
ENDBRANCH   9  10
ENDBRANCH   7   9
ENDBRANCH   1   3
BRANCH   1  16
ATOM     15  C   LIG    1        4.506   4.137   0.643  0.00  0.00    +0.070 C 
ATOM     16  C   LIG    1        3.227   3.903   1.448  0.00  0.00    +0.340 C 
BRANCH  16  17
ATOM     17  C   LIG    1        2.033   4.316   0.625  0.00  0.00    +0.240 A 
ATOM     18  N   LIG    1        1.652   5.540   0.372  0.00  0.00    -0.320 NA
ATOM     19  N   LIG    1        0.593   5.544  -0.354  0.00  0.00    -0.030 NA
ATOM     20  N   LIG    1        0.230   4.335  -0.618  0.00  0.00    -0.070 NA
ATOM     21  N   LIG    1        1.161   3.489   0.009  0.00  0.00    -0.320 N 
BRANCH  21  22
ATOM     22  C   LIG    1        1.177   2.086   0.002  0.00  0.00    +0.120 A 
ATOM     23  C   LIG    1       -0.017   1.377   0.010  0.00  0.00    +0.050 A 
ATOM     24  C   LIG    1        0.002  -0.004   0.002  0.00  0.00    +0.040 A 
ATOM     25  C   LIG    1        1.208  -0.680  -0.013  0.00  0.00    +0.040 A 
ATOM     26  C   LIG    1        2.398   0.023  -0.020  0.00  0.00    +0.040 A 
ATOM     27  C   LIG    1        2.386   1.404  -0.013  0.00  0.00    +0.020 A 
ENDBRANCH  21  22
ENDBRANCH  16  17
ENDBRANCH   1  16
TORSDOF 7
