REMARK  Name = ZINCpk00000kVLr1.0
REMARK                            x       y       z     vdW  Elec       q    Type
REMARK                         _______ _______ _______ _____ _____    ______ ____
ROOT
ATOM      1  C   LIG    1        0.576   2.934  -2.981  0.00  0.00    +0.510 C 
ATOM      2  N   LIG    1       -0.122   2.836  -4.130  0.00  0.00    -0.730 N 
ATOM      3  H   LIG    1       -0.099   2.013  -4.643  0.00  0.00    +0.400 HD
ATOM      4  O   LIG    1        0.547   3.963  -2.340  0.00  0.00    -0.500 OA
ENDROOT
BRANCH   2   5
ATOM      5  C   LIG    1       -0.916   3.972  -4.604  0.00  0.00    +0.260 C 
ATOM      6  C   LIG    1       -2.038   3.479  -5.535  0.00  0.00    +0.050 C 
ATOM      7  C   LIG    1       -1.798   4.146  -6.905  0.00  0.00    -0.020 C 
ATOM      8  C   LIG    1       -0.971   5.412  -6.572  0.00  0.00    +0.000 C 
ATOM      9  C   LIG    1       -0.034   4.921  -5.441  0.00  0.00    +0.150 C 
BRANCH   9  10
ATOM     10  O   LIG    1        0.411   6.022  -4.646  0.00  0.00    -0.550 OA
ATOM     11  H   LIG    1        0.970   6.651  -5.122  0.00  0.00    +0.380 HD
ENDBRANCH   9  10
BRANCH   7  12
ATOM     12  C   LIG    1       -3.129   4.531  -7.554  0.00  0.00    +0.310 C 
BRANCH  12  13
ATOM     13  N   LIG    1       -2.877   5.134  -8.865  0.00  0.00    -0.460 N 
ATOM     14  C   LIG    1       -2.684   6.465  -9.123  0.00  0.00    +0.120 A 
ATOM     15  C   LIG    1       -2.484   6.579 -10.450  0.00  0.00    +0.140 A 
ATOM     16  N   LIG    1       -2.562   5.354 -10.988  0.00  0.00    -0.490 NA
ATOM     17  C   LIG    1       -2.797   4.483 -10.045  0.00  0.00    +0.380 A 
ENDBRANCH  12  13
ENDBRANCH   7  12
ENDBRANCH   2   5
BRANCH   1  18
ATOM     18  C   LIG    1        1.393   1.765  -2.494  0.00  0.00    +0.100 C 
BRANCH  18  24
ATOM     19  C   LIG    1        1.396   1.989  -0.001  0.00  0.00    -0.080 A 
ATOM     20  C   LIG    1        2.019   2.320   1.188  0.00  0.00    +0.030 A 
ATOM     21  C   LIG    1        3.317   2.798   1.178  0.00  0.00    +0.010 A 
ATOM     22  C   LIG    1        3.990   2.946  -0.020  0.00  0.00    +0.020 A 
ATOM     23  C   LIG    1        3.366   2.615  -1.209  0.00  0.00    +0.020 A 
ATOM     24  C   LIG    1        2.071   2.132  -1.199  0.00  0.00    -0.050 A 
BRANCH  19  25
ATOM     25  C   LIG    1       -0.018   1.468   0.010  0.00  0.00    +0.240 C 
BRANCH  25  27
ATOM     26  N   LIG    1        0.018  -1.140  -0.004  0.00  0.00    -0.420 NA
ATOM     27  C   LIG    1        0.002  -0.004   0.002  0.00  0.00    +0.200 C 
ENDBRANCH  25  27
ENDBRANCH  19  25
ENDBRANCH  18  24
ENDBRANCH   1  18
TORSDOF 8
