REMARK  Name = ZINCrg00001Jdv5L.0
REMARK                            x       y       z     vdW  Elec       q    Type
REMARK                         _______ _______ _______ _____ _____    ______ ____
ROOT
ATOM      1  C   LIG    1       -0.764   8.409   2.300  0.00  0.00    +0.160 C 
ATOM      2  C   LIG    1        0.426   7.431   2.406  0.00  0.00    +0.060 C 
ATOM      3  C   LIG    1       -0.172   6.120   1.826  0.00  0.00    -0.030 C 
ATOM      4  C   LIG    1       -1.127   6.686   0.744  0.00  0.00    +0.240 C 
ATOM      5  O   LIG    1       -1.662   7.893   1.310  0.00  0.00    -0.370 OA
ENDROOT
BRANCH   3   6
ATOM      6  C   LIG    1        0.901   5.261   1.208  0.00  0.00    +0.530 C 
ATOM      7  N   LIG    1        0.577   4.078   0.649  0.00  0.00    -0.720 N 
ATOM      8  H   LIG    1       -0.345   3.779   0.645  0.00  0.00    +0.410 HD
ATOM      9  O   LIG    1        2.055   5.634   1.213  0.00  0.00    -0.530 OA
BRANCH   7  10
ATOM     10  C   LIG    1        1.620   3.242   0.048  0.00  0.00    +0.340 C 
ATOM     11  C   LIG    1        1.864   3.690  -1.395  0.00  0.00    +0.040 C 
BRANCH  10  12
ATOM     12  C   LIG    1        1.178   1.802   0.059  0.00  0.00    +0.060 A 
ATOM     13  N   LIG    1       -0.060   1.379   0.081  0.00  0.00    -0.290 NA
ATOM     14  N   LIG    1       -0.045  -0.021   0.084  0.00  0.00    -0.370 N 
ATOM     15  C   LIG    1        1.243  -0.423   0.062  0.00  0.00    +0.240 A 
ATOM     16  C   LIG    1       -1.220  -0.896   0.105  0.00  0.00    +0.360 C 
ATOM     17  C   LIG    1        2.020   0.685   0.046  0.00  0.00    -0.110 A 
ENDBRANCH  10  12
ENDBRANCH   7  10
ENDBRANCH   3   6
BRANCH   1  18
ATOM     18  C   LIG    1       -0.264   9.791   1.876  0.00  0.00    +0.270 C 
BRANCH  18  20
ATOM     19  C   LIG    1       -1.173  12.029   1.554  0.00  0.00    +0.590 C 
ATOM     20  N   LIG    1       -1.379  10.741   1.894  0.00  0.00    -0.720 N 
ATOM     21  H   LIG    1       -2.266  10.443   2.150  0.00  0.00    +0.410 HD
ATOM     22  O   LIG    1       -0.046  12.424   1.324  0.00  0.00    -0.520 OA
BRANCH  19  25
ATOM     23  C   LIG    1       -2.052  14.078   3.767  0.00  0.00    +0.120 C 
ATOM     24  C   LIG    1       -2.703  13.857   2.426  0.00  0.00    -0.110 A 
ATOM     25  C   LIG    1       -2.308  12.953   1.463  0.00  0.00    -0.050 A 
ATOM     26  N   LIG    1       -3.176  13.073   0.401  0.00  0.00    -0.420 N 
ATOM     27  C   LIG    1       -4.088  14.033   0.693  0.00  0.00    +0.180 A 
ATOM     28  C   LIG    1       -3.123  12.293  -0.838  0.00  0.00    +0.320 C 
ATOM     29  C   LIG    1       -3.820  14.531   1.924  0.00  0.00    -0.060 A 
ENDBRANCH  19  25
ENDBRANCH  18  20
ENDBRANCH   1  18
TORSDOF 6
