REMARK  Name = ZINCtV000002KzfS.0
REMARK                            x       y       z     vdW  Elec       q    Type
REMARK                         _______ _______ _______ _____ _____    ______ ____
ROOT
ATOM      1  C   LIG    1       -0.773   9.158   1.484  0.00  0.00    +0.450 C 
ATOM      2  O   LIG    1       -1.270   9.013   2.581  0.00  0.00    -0.460 OA
ENDROOT
BRANCH   1   6
ATOM      3  C   LIG    1        0.969   6.197  -2.279  0.00  0.00    +0.140 C 
ATOM      4  C   LIG    1        0.376   6.692  -0.986  0.00  0.00    +0.020 A 
ATOM      5  C   LIG    1        0.208   7.982  -0.649  0.00  0.00    +0.010 A 
ATOM      6  C   LIG    1       -0.400   7.986   0.689  0.00  0.00    -0.260 A 
ATOM      7  C   LIG    1       -0.551   6.658   1.041  0.00  0.00    +0.130 A 
ATOM      8  C   LIG    1       -1.140   6.147   2.330  0.00  0.00    +0.150 C 
ATOM      9  N   LIG    1       -0.078   5.900   0.033  0.00  0.00    -0.390 N 
BRANCH   9  10
ATOM     10  C   LIG    1       -0.059   4.499   0.026  0.00  0.00    +0.110 A 
ATOM     11  C   LIG    1        1.152   3.820   0.011  0.00  0.00    +0.050 A 
ATOM     12  C   LIG    1        1.168   2.439   0.004  0.00  0.00    +0.050 A 
ATOM     13  C   LIG    1       -0.021   1.732   0.012  0.00  0.00    -0.030 A 
ATOM     14  C   LIG    1       -1.230   2.406   0.021  0.00  0.00    +0.050 A 
ATOM     15 CL   LIG    1        0.002  -0.004   0.002  0.00  0.00    -0.050 Cl
ATOM     16  C   LIG    1       -1.251   3.787   0.033  0.00  0.00    +0.040 A 
ENDBRANCH   9  10
ENDBRANCH   1   6
BRANCH   1  17
ATOM     17  C   LIG    1       -0.541  10.543   0.939  0.00  0.00    +0.080 C 
BRANCH  17  18
ATOM     18  S   LIG    1       -1.103  11.769   2.147  0.00  0.00    +0.050 S 
BRANCH  18  19
ATOM     19  C   LIG    1       -0.724  13.253   1.276  0.00  0.00    +0.200 A 
ATOM     20  C   LIG    1       -1.006  14.519   1.852  0.00  0.00    -0.160 A 
ATOM     21  C   LIG    1       -0.674  15.655   1.109  0.00  0.00    +0.100 A 
ATOM     22  S   LIG    1       -1.102  17.099   2.015  0.00  0.00    +0.170 S 
ATOM     23  C   LIG    1       -1.720  16.154   3.358  0.00  0.00    -0.170 A 
ATOM     24  C   LIG    1       -2.304  16.745   4.615  0.00  0.00    +0.140 C 
ATOM     25  N   LIG    1       -0.123  15.504  -0.102  0.00  0.00    -0.500 NA
ATOM     26  C   LIG    1        0.113  14.309  -0.594  0.00  0.00    +0.540 A 
ATOM     27  C   LIG    1       -1.598  14.860   3.131  0.00  0.00    -0.070 A 
ATOM     28  C   LIG    1       -2.039  13.817   4.126  0.00  0.00    +0.140 C 
ATOM     29  N   LIG    1       -0.176  13.205   0.070  0.00  0.00    -0.530 NA
ENDBRANCH  18  19
ENDBRANCH  17  18
ENDBRANCH   1  17
TORSDOF 5
