REMARK  Name = ZINCrH000004jNzB.0
REMARK                            x       y       z     vdW  Elec       q    Type
REMARK                         _______ _______ _______ _____ _____    ______ ____
ROOT
ATOM      1  C   LIG    1       -0.140   7.467  -5.865  0.00  0.00    +0.490 C 
ATOM      2  N   LIG    1        0.751   7.133  -4.910  0.00  0.00    -0.640 N 
ATOM      3  H   LIG    1        1.702   7.207  -5.086  0.00  0.00    +0.420 HD
ATOM      4  O   LIG    1       -1.329   7.375  -5.644  0.00  0.00    -0.450 OA
ENDROOT
BRANCH   2   5
ATOM      5  C   LIG    1        0.306   6.683  -3.672  0.00  0.00    +0.270 A 
ATOM      6  N   LIG    1       -0.938   6.549  -3.334  0.00  0.00    -0.470 NA
ATOM      7  C   LIG    1       -1.181   6.107  -2.114  0.00  0.00    +0.250 A 
ATOM      8  C   LIG    1       -0.091   5.857  -1.387  0.00  0.00    -0.230 A 
ATOM      9  S   LIG    1        1.321   6.234  -2.371  0.00  0.00    +0.130 S 
BRANCH   8  10
ATOM     10  C   LIG    1       -0.070   5.347   0.031  0.00  0.00    +0.190 C 
BRANCH  10  11
ATOM     11  C   LIG    1       -0.050   3.840   0.023  0.00  0.00    -0.080 A 
ATOM     12  C   LIG    1        1.156   3.165   0.008  0.00  0.00    +0.010 A 
ATOM     13  C   LIG    1        1.175   1.783   0.000  0.00  0.00    +0.000 A 
ATOM     14  C   LIG    1       -0.013   1.076   0.008  0.00  0.00    +0.000 A 
ATOM     15  C   LIG    1       -1.219   1.751   0.017  0.00  0.00    +0.000 A 
ATOM     16  C   LIG    1       -1.238   3.133   0.030  0.00  0.00    +0.010 A 
ENDBRANCH  10  11
ENDBRANCH   8  10
ENDBRANCH   2   5
BRANCH   1  17
ATOM     17  C   LIG    1        0.342   7.955  -7.207  0.00  0.00    +0.350 C 
BRANCH  17  19
ATOM     18  C   LIG    1       -1.442   7.178  -8.835  0.00  0.00    +0.320 C 
ATOM     19  N   LIG    1       -0.810   8.250  -8.062  0.00  0.00    -0.980 NA
BRANCH  19  20
ATOM     20  S   LIG    1       -1.399   9.795  -8.154  0.00  0.00    +2.720 S 
ATOM     21  O   LIG    1       -0.998  10.449  -6.958  0.00  0.00    -0.940 OA
ATOM     22  O   LIG    1       -2.755   9.684  -8.562  0.00  0.00    -0.930 OA
BRANCH  20  23
ATOM     23  C   LIG    1       -0.548  10.600  -9.470  0.00  0.00    -0.800 A 
ATOM     24  C   LIG    1       -0.943  10.617 -10.744  0.00  0.00    +0.190 A 
ATOM     25  C   LIG    1       -0.111  11.315 -11.603  0.00  0.00    +0.010 A 
ATOM     26  C   LIG    1        0.960  11.864 -11.026  0.00  0.00    -0.110 A 
ATOM     27 CL   LIG    1        2.174  12.793 -11.848  0.00  0.00    +0.010 Cl
ATOM     28  S   LIG    1        0.949  11.509  -9.303  0.00  0.00    +0.270 S 
ENDBRANCH  20  23
ENDBRANCH  19  20
ENDBRANCH  17  19
ENDBRANCH   1  17
TORSDOF 7
