REMARK  Name = ZINCpe00000VVjWe.1
REMARK                            x       y       z     vdW  Elec       q    Type
REMARK                         _______ _______ _______ _____ _____    ______ ____
ROOT
ATOM      1  C   LIG    1        8.218   2.933  -1.196  0.00  0.00    +0.280 C 
ATOM      2  C   LIG    1        7.300   2.380  -0.094  0.00  0.00    +0.280 C 
ATOM      3  N   LIG    1        5.918   2.775  -0.408  0.00  0.00    -0.610 N 
ATOM      4  C   LIG    1        5.653   4.191  -0.704  0.00  0.00    +0.250 C 
ATOM      5  C   LIG    1        6.649   4.657  -1.771  0.00  0.00    +0.230 C 
ATOM      6  C   LIG    1        4.923   1.866  -0.418  0.00  0.00    +0.530 C 
ATOM      7  O   LIG    1        5.161   0.702  -0.171  0.00  0.00    -0.520 OA
ATOM      8  O   LIG    1        7.976   4.334  -1.349  0.00  0.00    -0.360 OA
ENDROOT
BRANCH   1  11
ATOM      9  C   LIG    1       11.646   1.866  -0.777  0.00  0.00    +0.300 A 
ATOM     10  N   LIG    1       10.466   1.790  -1.336  0.00  0.00    -0.530 NA
ATOM     11  C   LIG    1        9.657   2.709  -0.810  0.00  0.00    +0.230 A 
ATOM     12  N   LIG    1       10.316   3.389   0.091  0.00  0.00    -0.280 NA
ATOM     13  N   LIG    1       11.614   2.853   0.135  0.00  0.00    -0.480 N 
ATOM     14  H   LIG    1       12.343   3.142   0.706  0.00  0.00    +0.440 HD
BRANCH   9  16
ATOM     15  C   LIG    1       14.117   1.822  -0.978  0.00  0.00    +0.040 C 
ATOM     16  C   LIG    1       12.835   0.996  -1.098  0.00  0.00    +0.090 C 
ATOM     17  C   LIG    1       12.889  -0.176  -0.116  0.00  0.00    +0.060 C 
ENDBRANCH   9  16
ENDBRANCH   1  11
BRANCH   6  18
ATOM     18  C   LIG    1        3.513   2.295  -0.736  0.00  0.00    +0.000 C 
ATOM     19  C   LIG    1        3.000   3.321   0.301  0.00  0.00    +0.070 C 
ATOM     20  C   LIG    1        1.541   2.966   0.483  0.00  0.00    +0.520 C 
ATOM     21  N   LIG    1        1.300   1.736  -0.001  0.00  0.00    -0.590 N 
ATOM     22  O   LIG    1        0.709   3.688   0.991  0.00  0.00    -0.520 OA
ATOM     23  C   LIG    1        2.523   1.124  -0.534  0.00  0.00    +0.300 C 
BRANCH  21  24
ATOM     24  C   LIG    1       -0.013   1.086   0.008  0.00  0.00    +0.210 C 
ATOM     25  C   LIG    1       -1.136   1.773   0.788  0.00  0.00    +0.040 C 
ATOM     26  C   LIG    1       -1.150   1.781  -0.743  0.00  0.00    +0.000 C 
ENDBRANCH  21  24
ENDBRANCH   6  18
TORSDOF 4
