REMARK  Name = ZINCpe00000VVjWe.0
REMARK                            x       y       z     vdW  Elec       q    Type
REMARK                         _______ _______ _______ _____ _____    ______ ____
ROOT
ATOM      1  C   LIG    1       -1.468   0.592   4.524  0.00  0.00    +0.260 C 
ATOM      2  C   LIG    1       -1.151   1.787   3.610  0.00  0.00    +0.300 C 
ATOM      3  N   LIG    1       -0.410   1.287   2.441  0.00  0.00    -0.610 N 
ATOM      4  C   LIG    1        0.765   0.433   2.681  0.00  0.00    +0.250 C 
ATOM      5  C   LIG    1        0.358  -0.691   3.640  0.00  0.00    +0.230 C 
ATOM      6  C   LIG    1       -0.792   1.605   1.189  0.00  0.00    +0.530 C 
ATOM      7  O   LIG    1       -1.763   2.310   1.012  0.00  0.00    -0.520 OA
ATOM      8  O   LIG    1       -0.260  -0.122   4.797  0.00  0.00    -0.360 OA
ENDROOT
BRANCH   1  12
ATOM      9  C   LIG    1       -3.368   1.412   7.511  0.00  0.00    +0.200 A 
ATOM     10  N   LIG    1       -2.307   2.164   7.627  0.00  0.00    -0.290 NA
ATOM     11  N   LIG    1       -1.528   1.970   6.622  0.00  0.00    -0.260 NA
ATOM     12  C   LIG    1       -2.060   1.093   5.816  0.00  0.00    +0.170 A 
ATOM     13  N   LIG    1       -3.241   0.711   6.359  0.00  0.00    -0.570 N 
ATOM     14  H   LIG    1       -3.869   0.066   5.996  0.00  0.00    +0.430 HD
BRANCH   9  16
ATOM     15  C   LIG    1       -5.634   2.279   8.021  0.00  0.00    +0.040 C 
ATOM     16  C   LIG    1       -4.520   1.337   8.480  0.00  0.00    +0.100 C 
ATOM     17  C   LIG    1       -5.052  -0.096   8.531  0.00  0.00    +0.040 C 
ENDBRANCH   9  16
ENDBRANCH   1  12
BRANCH   6  18
ATOM     18  C   LIG    1       -0.013   1.086   0.008  0.00  0.00    +0.000 C 
ATOM     19  C   LIG    1        1.423   1.659  -0.003  0.00  0.00    +0.080 C 
ATOM     20  C   LIG    1        1.326   2.888  -0.879  0.00  0.00    +0.520 C 
ATOM     21  N   LIG    1        0.192   2.853  -1.600  0.00  0.00    -0.590 N 
ATOM     22  O   LIG    1        2.151   3.776  -0.925  0.00  0.00    -0.520 OA
ATOM     23  C   LIG    1       -0.582   1.638  -1.317  0.00  0.00    +0.310 C 
BRANCH  21  24
ATOM     24  C   LIG    1       -0.219   3.893  -2.546  0.00  0.00    +0.210 C 
ATOM     25  C   LIG    1        0.796   4.990  -2.875  0.00  0.00    +0.040 C 
ATOM     26  C   LIG    1       -0.417   5.308  -1.997  0.00  0.00    +0.000 C 
ENDBRANCH  21  24
ENDBRANCH   6  18
TORSDOF 4
