REMARK  Name = ZINCpe00000VVjWe.2
REMARK                            x       y       z     vdW  Elec       q    Type
REMARK                         _______ _______ _______ _____ _____    ______ ____
ROOT
ATOM      1  C   LIG    1       -0.013   1.086   0.008  0.00  0.00    +0.250 C 
ATOM      2  C   LIG    1       -0.748   1.595  -1.237  0.00  0.00    +0.290 C 
ATOM      3  N   LIG    1        0.061   1.266  -2.421  0.00  0.00    -0.610 N 
ATOM      4  C   LIG    1        1.484   1.642  -2.412  0.00  0.00    +0.250 C 
ATOM      5  C   LIG    1        2.111   1.130  -1.110  0.00  0.00    +0.230 C 
ATOM      6  C   LIG    1       -0.485   0.639  -3.482  0.00  0.00    +0.530 C 
ATOM      7  O   LIG    1       -1.659   0.338  -3.470  0.00  0.00    -0.520 OA
ATOM      8  O   LIG    1        1.328   1.582  -0.002  0.00  0.00    -0.350 OA
ENDROOT
BRANCH   1  13
ATOM      9  C   LIG    1       -1.252   2.772   2.964  0.00  0.00    +0.230 A 
ATOM     10  N   LIG    1       -2.096   1.774   2.952  0.00  0.00    -0.300 NA
ATOM     11  N   LIG    1       -1.769   0.979   1.842  0.00  0.00    -0.470 N 
ATOM     12  H   LIG    1       -2.212   0.163   1.560  0.00  0.00    +0.440 HD
ATOM     13  C   LIG    1       -0.720   1.573   1.246  0.00  0.00    +0.280 A 
ATOM     14  N   LIG    1       -0.417   2.645   1.933  0.00  0.00    -0.500 NA
BRANCH   9  16
ATOM     15  C   LIG    1       -2.559   4.631   3.955  0.00  0.00    +0.050 C 
ATOM     16  C   LIG    1       -1.224   3.884   3.981  0.00  0.00    +0.100 C 
ATOM     17  C   LIG    1       -0.996   3.295   5.374  0.00  0.00    +0.050 C 
ENDBRANCH   9  16
ENDBRANCH   1  13
BRANCH   6  18
ATOM     18  C   LIG    1        0.365   0.313  -4.683  0.00  0.00    +0.000 C 
ATOM     19  C   LIG    1        0.804   1.601  -5.417  0.00  0.00    +0.070 C 
ATOM     20  C   LIG    1        0.762   1.226  -6.882  0.00  0.00    +0.520 C 
ATOM     21  N   LIG    1        0.049   0.100  -7.051  0.00  0.00    -0.590 N 
ATOM     22  O   LIG    1        1.295   1.852  -7.774  0.00  0.00    -0.520 OA
ATOM     23  C   LIG    1       -0.467  -0.401  -5.771  0.00  0.00    +0.310 C 
BRANCH  21  24
ATOM     24  C   LIG    1       -0.183  -0.545  -8.345  0.00  0.00    +0.210 C 
ATOM     25  C   LIG    1        0.591  -0.009  -9.551  0.00  0.00    +0.040 C 
ATOM     26  C   LIG    1       -0.908   0.268  -9.420  0.00  0.00    +0.000 C 
ENDBRANCH  21  24
ENDBRANCH   6  18
TORSDOF 4
