REMARK  Name = ZINCnE000008J7ry.1
REMARK                            x       y       z     vdW  Elec       q    Type
REMARK                         _______ _______ _______ _____ _____    ______ ____
ROOT
ATOM      1  S   LIG    1       -2.098   2.318   3.676  0.00  0.00    +2.620 S 
ATOM      2  O   LIG    1       -2.704   3.140   4.664  0.00  0.00    -1.040 OA
ATOM      3  O   LIG    1       -1.082   1.370   3.971  0.00  0.00    -1.030 OA
ENDROOT
BRANCH   1   4
ATOM      4  C   LIG    1       -1.425   3.408   2.466  0.00  0.00    -0.700 A 
ATOM      5  C   LIG    1       -1.533   4.775   2.633  0.00  0.00    +0.190 A 
ATOM      6  C   LIG    1       -1.006   5.633   1.687  0.00  0.00    -0.140 A 
ATOM      7  C   LIG    1       -0.367   5.122   0.564  0.00  0.00    +0.280 A 
ATOM      8  C   LIG    1       -0.254   3.749   0.397  0.00  0.00    -0.180 A 
ATOM      9  C   LIG    1       -0.787   2.892   1.346  0.00  0.00    +0.270 A 
BRANCH   7  10
ATOM     10  N   LIG    1        0.166   5.989  -0.392  0.00  0.00    -0.870 N 
ATOM     11  H   LIG    1        0.612   5.632  -1.176  0.00  0.00    +0.400 HD
ATOM     12  H   LIG    1        0.090   6.949  -0.273  0.00  0.00    +0.400 HD
ENDBRANCH   7  10
BRANCH   9  13
ATOM     13  O   LIG    1       -0.682   1.547   1.184  0.00  0.00    -0.280 OA
ATOM     14  C   LIG    1       -0.013   1.086   0.008  0.00  0.00    +0.230 C 
ENDBRANCH   9  13
ENDBRANCH   1   4
BRANCH   1  15
ATOM     15  N   LIG    1       -3.326   1.477   2.950  0.00  0.00    -1.090 NA
BRANCH  15  19
ATOM     16  C   LIG    1       -5.481  -1.349   5.119  0.00  0.00    -0.200 A 
ATOM     17  C   LIG    1       -5.792  -1.113   3.792  0.00  0.00    +0.030 A 
ATOM     18  C   LIG    1       -5.079  -0.177   3.070  0.00  0.00    -0.080 A 
ATOM     19  C   LIG    1       -4.049   0.529   3.677  0.00  0.00    +0.280 A 
ATOM     20  C   LIG    1       -3.736   0.287   5.009  0.00  0.00    -0.180 A 
ATOM     21  C   LIG    1       -4.457  -0.647   5.727  0.00  0.00    +0.040 A 
BRANCH  16  22
ATOM     22  C   LIG    1       -6.262  -2.371   5.904  0.00  0.00    +0.050 C 
BRANCH  22  23
ATOM     23  C   LIG    1       -5.590  -3.739   5.769  0.00  0.00    +0.000 C 
BRANCH  23  25
ATOM     24  C   LIG    1       -5.710  -6.145   6.432  0.00  0.00    +0.000 C 
ATOM     25  C   LIG    1       -6.382  -4.777   6.566  0.00  0.00    -0.010 C 
ENDBRANCH  23  25
ENDBRANCH  22  23
ENDBRANCH  16  22
ENDBRANCH  15  19
ENDBRANCH   1  15
TORSDOF 8
