REMARK  Name = ZINCvU0000000Ayk.0
REMARK                            x       y       z     vdW  Elec       q    Type
REMARK                         _______ _______ _______ _____ _____    ______ ____
ROOT
ATOM      1  C   LIG    1       -0.381  -0.060  -5.260  0.00  0.00    -0.060 A 
ATOM      2  C   LIG    1       -0.391   1.319  -5.083  0.00  0.00    -0.020 A 
ATOM      3  C   LIG    1       -0.237   2.156  -6.169  0.00  0.00    +0.070 A 
ATOM      4  C   LIG    1       -0.070   1.631  -7.441  0.00  0.00    -0.010 A 
ATOM      5  C   LIG    1       -0.057   0.268  -7.637  0.00  0.00    +0.070 A 
ATOM      6  C   LIG    1       -0.207  -0.594  -6.547  0.00  0.00    -0.130 A 
ENDROOT
BRANCH   6   7
ATOM      7  C   LIG    1       -0.189  -2.054  -6.748  0.00  0.00    +0.560 C 
ATOM      8  N   LIG    1       -0.022  -2.562  -7.985  0.00  0.00    -0.670 N 
ATOM      9  H   LIG    1        0.010  -1.969  -8.753  0.00  0.00    +0.410 HD
ATOM     10  O   LIG    1       -0.325  -2.800  -5.798  0.00  0.00    -0.480 OA
BRANCH   8  11
ATOM     11  C   LIG    1        0.106  -3.943  -8.163  0.00  0.00    +0.150 A 
ATOM     12  C   LIG    1        0.737  -4.713  -7.195  0.00  0.00    +0.060 A 
ATOM     13  C   LIG    1        0.858  -6.078  -7.371  0.00  0.00    +0.040 A 
ATOM     14  C   LIG    1        0.361  -6.676  -8.514  0.00  0.00    +0.060 A 
ATOM     15  C   LIG    1       -0.263  -5.910  -9.483  0.00  0.00    -0.160 A 
ATOM     16  C   LIG    1       -0.392  -4.546  -9.310  0.00  0.00    +0.040 A 
BRANCH  15  17
ATOM     17  C   LIG    1       -0.803  -6.566 -10.728  0.00  0.00    +0.510 C 
ATOM     18  F   LIG    1       -1.908  -5.845 -11.193  0.00  0.00    -0.180 F 
ATOM     19  F   LIG    1       -1.191  -7.877 -10.434  0.00  0.00    -0.170 F 
ATOM     20  F   LIG    1        0.190  -6.584 -11.713  0.00  0.00    -0.180 F 
ENDBRANCH  15  17
ENDBRANCH   8  11
ENDBRANCH   6   7
BRANCH   1  21
ATOM     21  S   LIG    1       -0.579  -1.132  -3.875  0.00  0.00    +0.080 S 
BRANCH  21  22
ATOM     22  C   LIG    1       -0.754   0.023  -2.487  0.00  0.00    +0.020 C 
BRANCH  22  25
ATOM     23  C   LIG    1       -1.075   1.365  -0.012  0.00  0.00    +0.280 C 
ATOM     24  N   LIG    1       -1.085  -0.099  -0.039  0.00  0.00    -0.610 N 
ATOM     25  C   LIG    1       -0.934  -0.753  -1.208  0.00  0.00    +0.540 C 
ATOM     26  O   LIG    1       -0.944  -1.966  -1.230  0.00  0.00    -0.520 OA
BRANCH  24  27
ATOM     27  C   LIG    1       -1.261  -0.854   1.205  0.00  0.00    +0.240 C 
ATOM     28  C   LIG    1       -2.603  -0.486   1.840  0.00  0.00    +0.010 C 
ATOM     29  C   LIG    1       -2.786  -1.274   3.138  0.00  0.00    +0.020 C 
ATOM     30  C   LIG    1       -1.653  -0.930   4.107  0.00  0.00    +0.010 C 
ATOM     31  C   LIG    1       -0.310  -1.298   3.472  0.00  0.00    +0.020 C 
ATOM     32  C   LIG    1       -0.127  -0.510   2.173  0.00  0.00    +0.010 C 
ENDBRANCH  24  27
ENDBRANCH  22  25
ENDBRANCH  21  22
ENDBRANCH   1  21
TORSDOF 7
