REMARK  Name = ZINCrD0000073KQJ.0
REMARK                            x       y       z     vdW  Elec       q    Type
REMARK                         _______ _______ _______ _____ _____    ______ ____
ROOT
ATOM      1  C   LIG    1       -0.353  -5.267  -0.021  0.00  0.00    +0.570 C 
ATOM      2  O   LIG    1        0.103  -6.393  -0.031  0.00  0.00    -0.470 OA
ENDROOT
BRANCH   1   7
ATOM      3  C   LIG    1        1.970  -4.141  -0.038  0.00  0.00    +0.090 A 
ATOM      4  C   LIG    1        2.365  -2.842  -0.035  0.00  0.00    +0.090 A 
ATOM      5  N   LIG    1        1.237  -2.081  -0.021  0.00  0.00    -0.210 N 
ATOM      6  N   LIG    1        0.196  -2.833  -0.009  0.00  0.00    -0.200 NA
ATOM      7  C   LIG    1        0.552  -4.105  -0.024  0.00  0.00    -0.010 A 
BRANCH   5   8
ATOM      8  C   LIG    1        1.215  -0.680  -0.013  0.00  0.00    +0.130 A 
ATOM      9  C   LIG    1        0.002  -0.004   0.002  0.00  0.00    +0.040 A 
ATOM     10  C   LIG    1       -0.017   1.377   0.010  0.00  0.00    +0.040 A 
ATOM     11  C   LIG    1        1.171   2.086   0.002  0.00  0.00    +0.020 A 
ATOM     12  C   LIG    1        2.380   1.415  -0.013  0.00  0.00    +0.040 A 
ATOM     13  C   LIG    1        2.405   0.035  -0.021  0.00  0.00    +0.010 A 
ENDBRANCH   5   8
BRANCH   3  15
ATOM     14  C   LIG    1        4.178  -5.026  -0.064  0.00  0.00    +0.250 C 
ATOM     15  O   LIG    1        2.766  -5.245  -0.051  0.00  0.00    -0.270 OA
ENDBRANCH   3  15
ENDBRANCH   1   7
BRANCH   1  16
ATOM     16  O   LIG    1       -1.688  -5.082  -0.007  0.00  0.00    -0.340 OA
BRANCH  16  17
ATOM     17  C   LIG    1       -2.519  -6.273  -0.005  0.00  0.00    +0.420 C 
BRANCH  17  18
ATOM     18  C   LIG    1       -3.972  -5.871   0.011  0.00  0.00    +0.190 A 
ATOM     19  N   LIG    1       -4.730  -5.654  -1.034  0.00  0.00    -0.450 NA
ATOM     20  C   LIG    1       -5.946  -5.325  -0.539  0.00  0.00    +0.240 A 
ATOM     21  N   LIG    1       -5.851  -5.354   0.767  0.00  0.00    -0.360 NA
ATOM     22  O   LIG    1       -4.726  -5.665   1.096  0.00  0.00    +0.100 OA
BRANCH  20  23
ATOM     23  C   LIG    1       -7.152  -4.990  -1.325  0.00  0.00    -0.140 A 
ATOM     24  C   LIG    1       -8.354  -4.666  -0.806  0.00  0.00    +0.070 A 
ATOM     25  C   LIG    1       -9.329  -4.388  -1.740  0.00  0.00    +0.010 A 
ATOM     26  C   LIG    1       -8.938  -4.494  -3.014  0.00  0.00    -0.030 A 
ATOM     27  S   LIG    1       -7.245  -4.962  -3.081  0.00  0.00    +0.190 S 
ENDBRANCH  20  23
ENDBRANCH  17  18
ENDBRANCH  16  17
ENDBRANCH   1  16
TORSDOF 7
