REMARK  Name = ZINCvU0000000748.0
REMARK                            x       y       z     vdW  Elec       q    Type
REMARK                         _______ _______ _______ _____ _____    ______ ____
ROOT
ATOM      1  C   LIG    1        4.011   5.836  -0.006  0.00  0.00    +0.070 C 
ENDROOT
BRANCH   1   4
ATOM      2  N   LIG    1        6.171   7.043  -0.020  0.00  0.00    -0.630 N 
ATOM      3  H   LIG    1        5.670   7.874  -0.011  0.00  0.00    +0.430 HD
ATOM      4  C   LIG    1        5.518   5.863  -0.019  0.00  0.00    +0.530 C 
ATOM      5  O   LIG    1        6.144   4.824  -0.030  0.00  0.00    -0.450 OA
BRANCH   2  11
ATOM      6  C   LIG    1       12.336   6.970  -0.075  0.00  0.00    +0.140 A 
ATOM      7  C   LIG    1       11.989   5.623  -0.078  0.00  0.00    -0.040 A 
ATOM      8  C   LIG    1       10.671   5.242  -0.068  0.00  0.00    +0.120 A 
ATOM      9  C   LIG    1        9.646   6.211  -0.055  0.00  0.00    +0.070 A 
ATOM     10  N   LIG    1        8.310   6.025  -0.039  0.00  0.00    -0.460 NA
ATOM     11  C   LIG    1        7.556   7.068  -0.033  0.00  0.00    +0.330 A 
ATOM     12  S   LIG    1        8.533   8.530  -0.035  0.00  0.00    +0.080 S 
ATOM     13  C   LIG    1       10.006   7.562  -0.052  0.00  0.00    -0.140 A 
ATOM     14  C   LIG    1       11.347   7.935  -0.062  0.00  0.00    +0.030 A 
BRANCH   6  16
ATOM     15  C   LIG    1       14.613   6.285  -0.097  0.00  0.00    +0.240 C 
ATOM     16  O   LIG    1       13.645   7.337  -0.085  0.00  0.00    -0.310 OA
ENDBRANCH   6  16
ENDBRANCH   2  11
ENDBRANCH   1   4
BRANCH   1  17
ATOM     17  S   LIG    1        3.439   4.119  -0.009  0.00  0.00    +0.100 S 
BRANCH  17  18
ATOM     18  C   LIG    1        1.696   4.377   0.009  0.00  0.00    +0.190 A 
ATOM     19  C   LIG    1        0.805   3.274   0.012  0.00  0.00    -0.160 A 
ATOM     20  C   LIG    1        1.077   1.842   0.002  0.00  0.00    -0.030 A 
ATOM     21  C   LIG    1       -0.013   1.076   0.008  0.00  0.00    -0.010 A 
ATOM     22  S   LIG    1       -1.473   2.045   0.019  0.00  0.00    +0.190 S 
ATOM     23  C   LIG    1       -0.563   3.548   0.026  0.00  0.00    +0.100 A 
ATOM     24  N   LIG    1       -0.971   4.824   0.037  0.00  0.00    -0.490 NA
ATOM     25  C   LIG    1       -0.106   5.813   0.034  0.00  0.00    +0.540 A 
ATOM     26  N   LIG    1        1.198   5.605   0.020  0.00  0.00    -0.530 NA
BRANCH  20  27
ATOM     27  C   LIG    1        2.450   1.286  -0.014  0.00  0.00    -0.040 A 
ATOM     28  C   LIG    1        3.380   1.742  -0.947  0.00  0.00    +0.030 A 
ATOM     29  C   LIG    1        4.659   1.223  -0.954  0.00  0.00    +0.030 A 
ATOM     30  C   LIG    1        5.016   0.245  -0.043  0.00  0.00    +0.010 A 
ATOM     31  C   LIG    1        4.096  -0.216   0.882  0.00  0.00    +0.020 A 
ATOM     32  C   LIG    1        2.816   0.299   0.902  0.00  0.00    +0.020 A 
ENDBRANCH  20  27
ENDBRANCH  17  18
ENDBRANCH   1  17
TORSDOF 6
