REMARK  Name = ZINCvU00000005M0.0
REMARK                            x       y       z     vdW  Elec       q    Type
REMARK                         _______ _______ _______ _____ _____    ______ ____
ROOT
ATOM      1  C   LIG    1        5.067  -4.769  -0.940  0.00  0.00    +0.040 C 
ENDROOT
BRANCH   1   2
ATOM      2  C   LIG    1        5.877  -4.256   0.223  0.00  0.00    -0.090 A 
ATOM      3  C   LIG    1        5.761  -4.855   1.463  0.00  0.00    +0.030 A 
ATOM      4  C   LIG    1        6.507  -4.387   2.529  0.00  0.00    +0.000 A 
ATOM      5  C   LIG    1        7.361  -3.314   2.356  0.00  0.00    +0.010 A 
ATOM      6  C   LIG    1        7.473  -2.712   1.117  0.00  0.00    +0.010 A 
ATOM      7  C   LIG    1        6.730  -3.182   0.051  0.00  0.00    +0.060 A 
ENDBRANCH   1   2
BRANCH   1   9
ATOM      8  O   LIG    1        4.703  -7.096  -0.796  0.00  0.00    -0.500 OA
ATOM      9  C   LIG    1        5.423  -6.210  -1.203  0.00  0.00    +0.550 C 
ATOM     10  N   LIG    1        6.541  -6.513  -1.892  0.00  0.00    -0.660 N 
ATOM     11  H   LIG    1        7.171  -5.813  -2.127  0.00  0.00    +0.420 HD
BRANCH  10  12
ATOM     12  C   LIG    1        6.795  -7.838  -2.267  0.00  0.00    +0.140 A 
ATOM     13  C   LIG    1        8.103  -8.296  -2.360  0.00  0.00    +0.030 A 
ATOM     14  C   LIG    1        8.351  -9.604  -2.725  0.00  0.00    +0.010 A 
ATOM     15  C   LIG    1        7.297 -10.456  -3.009  0.00  0.00    +0.090 A 
ATOM     16  C   LIG    1        5.992 -10.000  -2.922  0.00  0.00    +0.010 A 
ATOM     17  F   LIG    1        7.542 -11.734  -3.372  0.00  0.00    -0.140 F 
ATOM     18  C   LIG    1        5.740  -8.694  -2.552  0.00  0.00    +0.060 A 
ENDBRANCH  10  12
ENDBRANCH   1   9
BRANCH   1  19
ATOM     19  S   LIG    1        3.304  -4.644  -0.550  0.00  0.00    +0.100 S 
BRANCH  19  20
ATOM     20  C   LIG    1        3.138  -2.894  -0.443  0.00  0.00    +0.150 A 
ATOM     21  N   LIG    1        4.092  -2.008  -0.616  0.00  0.00    -0.270 NA
ATOM     22  N   LIG    1        3.625  -0.820  -0.471  0.00  0.00    -0.260 NA
ATOM     23  C   LIG    1        2.342  -0.873  -0.188  0.00  0.00    +0.260 A 
ATOM     24  N   LIG    1        1.990  -2.204  -0.164  0.00  0.00    -0.430 N 
BRANCH  23  25
ATOM     25  C   LIG    1        1.451   0.273   0.052  0.00  0.00    -0.130 A 
ATOM     26  C   LIG    1        1.856   1.537   0.307  0.00  0.00    +0.070 A 
ATOM     27  C   LIG    1        0.832   2.441   0.499  0.00  0.00    +0.020 A 
ATOM     28  C   LIG    1       -0.400   1.931   0.404  0.00  0.00    -0.030 A 
ATOM     29  S   LIG    1       -0.307   0.210   0.052  0.00  0.00    +0.130 S 
ENDBRANCH  23  25
BRANCH  24  30
ATOM     30  C   LIG    1        0.663  -2.764   0.103  0.00  0.00    +0.190 C 
ATOM     31  C   LIG    1        0.580  -4.254   0.440  0.00  0.00    +0.080 C 
ATOM     32  C   LIG    1        0.092  -3.748  -0.920  0.00  0.00    +0.060 C 
ENDBRANCH  24  30
ENDBRANCH  19  20
ENDBRANCH   1  19
TORSDOF 7
