REMARK  Name = ZINC650000002rPy.0
REMARK                            x       y       z     vdW  Elec       q    Type
REMARK                         _______ _______ _______ _____ _____    ______ ____
ROOT
ATOM      1  C   LIG    1       -0.729   1.579   1.267  0.00  0.00    +0.000 C 
ENDROOT
BRANCH   1   3
ATOM      2  C   LIG    1       -0.772   1.460   3.762  0.00  0.00    +0.020 C 
ATOM      3  C   LIG    1        0.011   1.072   2.506  0.00  0.00    +0.220 C 
BRANCH   3   4
ATOM      4  O   LIG    1        1.313   1.660   2.557  0.00  0.00    -0.560 OA
ATOM      5  H   LIG    1        1.307   2.626   2.603  0.00  0.00    +0.380 HD
ENDBRANCH   3   4
ENDBRANCH   1   3
BRANCH   1   6
ATOM      6  C   LIG    1       -0.013   1.086   0.008  0.00  0.00    +0.260 C 
BRANCH   6   7
ATOM      7  N   LIG    1       -0.723   1.572  -1.182  0.00  0.00    -0.640 N 
ATOM      8  H   LIG    1       -1.670   1.223  -1.175  0.00  0.00    +0.430 HD
ATOM      9  H   LIG    1       -0.251   1.247  -2.012  0.00  0.00    +0.440 HD
ATOM     10  H   LIG    1       -0.737   2.581  -1.177  0.00  0.00    +0.430 HD
ENDBRANCH   6   7
ENDBRANCH   1   6
TORSDOF 4
