REMARK  Name = ZINCpe000000UyMx.0
REMARK                            x       y       z     vdW  Elec       q    Type
REMARK                         _______ _______ _______ _____ _____    ______ ____
ROOT
ATOM      1  C   LIG    1        6.670  -0.898  -0.315  0.00  0.00    +0.520 C 
ATOM      2  N   LIG    1        8.003  -0.707  -0.370  0.00  0.00    -0.720 N 
ATOM      3  H   LIG    1        8.372   0.181  -0.240  0.00  0.00    +0.400 HD
ATOM      4  O   LIG    1        6.210  -2.009  -0.477  0.00  0.00    -0.530 OA
ENDROOT
BRANCH   1   5
ATOM      5  C   LIG    1        5.752   0.268  -0.053  0.00  0.00    +0.260 C 
BRANCH   5   7
ATOM      6  C   LIG    1        4.115  -1.099   1.094  0.00  0.00    +0.240 C 
ATOM      7  N   LIG    1        4.359  -0.199  -0.042  0.00  0.00    -0.460 N 
BRANCH   7   8
ATOM      8  C   LIG    1        3.478   0.870  -0.027  0.00  0.00    +0.400 A 
ATOM      9  C   LIG    1        2.098   0.657  -0.014  0.00  0.00    -0.080 A 
ATOM     10  N   LIG    1        1.278  -0.452  -0.013  0.00  0.00    -0.570 N 
ATOM     11  H   LIG    1        1.563  -1.379  -0.020  0.00  0.00    +0.430 HD
ATOM     12  C   LIG    1        0.002  -0.004   0.002  0.00  0.00    +0.530 A 
ATOM     13  N   LIG    1       -0.016   1.300   0.009  0.00  0.00    -0.490 NA
ATOM     14  C   LIG    1        1.245   1.773  -0.000  0.00  0.00    +0.310 A 
ATOM     15  N   LIG    1        1.787   2.994   0.001  0.00  0.00    -0.500 NA
ATOM     16  C   LIG    1        3.093   3.146  -0.011  0.00  0.00    +0.540 A 
ATOM     17  N   LIG    1        3.927   2.122  -0.025  0.00  0.00    -0.560 NA
ENDBRANCH   7   8
ENDBRANCH   5   7
ENDBRANCH   1   5
BRANCH   2  18
ATOM     18  C   LIG    1        8.896  -1.841  -0.625  0.00  0.00    +0.330 C 
BRANCH  18  19
ATOM     19  C   LIG    1       10.325  -1.362  -0.636  0.00  0.00    -0.090 A 
ATOM     20  C   LIG    1       10.970  -1.141  -1.839  0.00  0.00    +0.050 A 
ATOM     21  C   LIG    1       12.278  -0.695  -1.853  0.00  0.00    +0.030 A 
ATOM     22  C   LIG    1       12.952  -0.481  -0.665  0.00  0.00    +0.050 A 
ATOM     23  C   LIG    1       12.314  -0.706   0.544  0.00  0.00    +0.030 A 
ATOM     24  O   LIG    1       12.744  -0.574   1.833  0.00  0.00    -0.310 OA
ATOM     25  C   LIG    1       11.811  -1.329   2.629  0.00  0.00    +0.430 C 
ATOM     26  O   LIG    1       10.596  -1.294   1.856  0.00  0.00    -0.300 OA
ATOM     27  C   LIG    1       10.993  -1.149   0.558  0.00  0.00    +0.050 A 
ENDBRANCH  18  19
ENDBRANCH   2  18
TORSDOF 5
