REMARK  Name = ZINCpe000000UyMx.1
REMARK                            x       y       z     vdW  Elec       q    Type
REMARK                         _______ _______ _______ _____ _____    ______ ____
ROOT
ATOM      1  C   LIG    1        4.364   5.543  -0.254  0.00  0.00    +0.510 C 
ATOM      2  N   LIG    1        4.643   6.860  -0.292  0.00  0.00    -0.720 N 
ATOM      3  H   LIG    1        3.937   7.510  -0.153  0.00  0.00    +0.400 HD
ATOM      4  O   LIG    1        5.247   4.730  -0.427  0.00  0.00    -0.520 OA
ENDROOT
BRANCH   1   5
ATOM      5  C   LIG    1        2.953   5.079   0.003  0.00  0.00    +0.250 C 
BRANCH   5   7
ATOM      6  C   LIG    1        3.673   3.056   1.122  0.00  0.00    +0.260 C 
ATOM      7  N   LIG    1        2.912   3.610  -0.005  0.00  0.00    -0.440 N 
BRANCH   7   8
ATOM      8  C   LIG    1        1.606   3.151   0.004  0.00  0.00    +0.430 A 
ATOM      9  C   LIG    1        1.329   1.773  -0.001  0.00  0.00    -0.060 A 
ATOM     10  N   LIG    1        2.085   0.649  -0.014  0.00  0.00    -0.460 NA
ATOM     11  C   LIG    1        1.308  -0.395  -0.013  0.00  0.00    +0.500 A 
ATOM     12  N   LIG    1        0.002  -0.004   0.002  0.00  0.00    -0.580 N 
ATOM     13  H   LIG    1       -0.772  -0.589   0.007  0.00  0.00    +0.430 HD
ATOM     14  C   LIG    1       -0.017   1.368   0.010  0.00  0.00    +0.290 A 
ATOM     15  N   LIG    1       -0.970   2.293   0.028  0.00  0.00    -0.540 NA
ATOM     16  C   LIG    1       -0.663   3.573   0.029  0.00  0.00    +0.560 A 
ATOM     17  N   LIG    1        0.586   4.002   0.019  0.00  0.00    -0.570 NA
ENDBRANCH   7   8
ENDBRANCH   5   7
ENDBRANCH   1   5
BRANCH   2  18
ATOM     18  C   LIG    1        6.015   7.311  -0.542  0.00  0.00    +0.330 C 
BRANCH  18  19
ATOM     19  C   LIG    1        6.057   8.818  -0.534  0.00  0.00    -0.090 A 
ATOM     20  C   LIG    1        6.071   9.515  -1.727  0.00  0.00    +0.050 A 
ATOM     21  C   LIG    1        6.103  10.898  -1.723  0.00  0.00    +0.030 A 
ATOM     22  C   LIG    1        6.135  11.588  -0.526  0.00  0.00    +0.050 A 
ATOM     23  C   LIG    1        6.127  10.895   0.674  0.00  0.00    +0.030 A 
ATOM     24  O   LIG    1        6.152  11.327   1.969  0.00  0.00    -0.310 OA
ATOM     25  C   LIG    1        6.540  10.181   2.749  0.00  0.00    +0.430 C 
ATOM     26  O   LIG    1        6.088   9.063   1.962  0.00  0.00    -0.300 OA
ATOM     27  C   LIG    1        6.088   9.503   0.670  0.00  0.00    +0.050 A 
ENDBRANCH  18  19
ENDBRANCH   2  18
TORSDOF 5
