REMARK  Name = ZINCpe000000UyMx.2
REMARK                            x       y       z     vdW  Elec       q    Type
REMARK                         _______ _______ _______ _____ _____    ______ ____
ROOT
ATOM      1  C   LIG    1       -3.651  -2.125   1.448  0.00  0.00    +0.500 C 
ATOM      2  N   LIG    1       -4.561  -3.087   1.698  0.00  0.00    -0.720 N 
ATOM      3  H   LIG    1       -5.003  -3.540   0.963  0.00  0.00    +0.400 HD
ATOM      4  O   LIG    1       -3.099  -1.558   2.367  0.00  0.00    -0.520 OA
ENDROOT
BRANCH   1   5
ATOM      5  C   LIG    1       -3.318  -1.755   0.025  0.00  0.00    +0.330 C 
BRANCH   5   7
ATOM      6  C   LIG    1       -2.723   0.712   0.031  0.00  0.00    +0.340 C 
ATOM      7  N   LIG    1       -2.308  -0.693   0.021  0.00  0.00    -0.540 N 
BRANCH   7   8
ATOM      8  C   LIG    1       -0.974  -1.015   0.007  0.00  0.00    +0.540 A 
ATOM      9  C   LIG    1        0.002  -0.004   0.002  0.00  0.00    -0.110 A 
ATOM     10  N   LIG    1       -0.016   1.339   0.009  0.00  0.00    -0.500 NA
ATOM     11  C   LIG    1        1.228   1.767  -0.000  0.00  0.00    +0.400 A 
ATOM     12  N   LIG    1        2.067   0.737  -0.014  0.00  0.00    -0.540 NA
ATOM     13  C   LIG    1        1.363  -0.385  -0.013  0.00  0.00    +0.220 A 
ATOM     14  N   LIG    1        1.666  -1.726  -0.022  0.00  0.00    -0.540 N 
ATOM     15  H   LIG    1        2.592  -2.016  -0.033  0.00  0.00    +0.430 HD
ATOM     16  C   LIG    1        0.676  -2.635  -0.017  0.00  0.00    +0.650 A 
ATOM     17  N   LIG    1       -0.586  -2.294  -0.004  0.00  0.00    -0.580 NA
ENDBRANCH   7   8
ENDBRANCH   5   7
ENDBRANCH   1   5
BRANCH   2  18
ATOM     18  C   LIG    1       -4.885  -3.447   3.081  0.00  0.00    +0.330 C 
BRANCH  18  19
ATOM     19  C   LIG    1       -5.923  -4.539   3.086  0.00  0.00    -0.090 A 
ATOM     20  C   LIG    1       -7.251  -4.229   3.313  0.00  0.00    +0.050 A 
ATOM     21  C   LIG    1       -8.208  -5.227   3.311  0.00  0.00    +0.030 A 
ATOM     22  C   LIG    1       -7.838  -6.541   3.095  0.00  0.00    +0.050 A 
ATOM     23  C   LIG    1       -6.509  -6.861   2.873  0.00  0.00    +0.030 A 
ATOM     24  O   LIG    1       -5.892  -8.055   2.637  0.00  0.00    -0.310 OA
ATOM     25  C   LIG    1       -4.494  -7.824   2.894  0.00  0.00    +0.430 C 
ATOM     26  O   LIG    1       -4.326  -6.418   2.629  0.00  0.00    -0.300 OA
ATOM     27  C   LIG    1       -5.546  -5.854   2.868  0.00  0.00    +0.050 A 
ENDBRANCH  18  19
ENDBRANCH   2  18
TORSDOF 5
