REMARK  Name = ZINCpe00000gMHmP.1
REMARK                            x       y       z     vdW  Elec       q    Type
REMARK                         _______ _______ _______ _____ _____    ______ ____
ROOT
ATOM      1  C   LIG    1       -2.242  -2.851   0.194  0.00  0.00    +0.520 C 
ATOM      2  O   LIG    1       -3.396  -2.503   0.045  0.00  0.00    -0.510 OA
ENDROOT
BRANCH   1   3
ATOM      3  C   LIG    1       -1.909  -4.283   0.279  0.00  0.00    -0.160 A 
ATOM      4  C   LIG    1       -0.582  -4.688   0.444  0.00  0.00    +0.120 A 
ATOM      5  C   LIG    1       -0.278  -6.029   0.529  0.00  0.00    -0.010 A 
ATOM      6  C   LIG    1       -1.281  -6.982   0.438  0.00  0.00    +0.100 A 
ATOM      7  C   LIG    1       -2.596  -6.598   0.268  0.00  0.00    -0.020 A 
ATOM      8  C   LIG    1       -2.923  -5.251   0.187  0.00  0.00    +0.230 A 
BRANCH   8   9
ATOM      9  N   LIG    1       -4.245  -4.862   0.017  0.00  0.00    -1.050 N 
ATOM     10  H   LIG    1       -4.457  -4.087  -0.526  0.00  0.00    +0.440 HD
BRANCH   9  11
ATOM     11  S   LIG    1       -5.460  -5.723   0.742  0.00  0.00    +2.600 S 
ATOM     12  O   LIG    1       -5.283  -7.049   0.264  0.00  0.00    -0.950 OA
ATOM     13  O   LIG    1       -6.638  -4.987   0.440  0.00  0.00    -0.940 OA
ATOM     14  C   LIG    1       -5.087  -5.628   2.514  0.00  0.00    -0.270 C 
ENDBRANCH   9  11
ENDBRANCH   8   9
ENDBRANCH   1   3
BRANCH   1  15
ATOM     15  O   LIG    1       -1.265  -1.926   0.283  0.00  0.00    -0.320 OA
BRANCH  15  16
ATOM     16  C   LIG    1       -1.666  -0.533   0.191  0.00  0.00    +0.260 C 
BRANCH  16  24
ATOM     17  C   LIG    1        1.415   4.678   1.432  0.00  0.00    +0.070 C 
ATOM     18  C   LIG    1        0.296   3.634   1.429  0.00  0.00    +0.140 C 
ATOM     19  C   LIG    1        0.592   2.570   0.366  0.00  0.00    +0.260 C 
ATOM     20  N   LIG    1       -0.581   1.688   0.253  0.00  0.00    -0.610 N 
ATOM     21  C   LIG    1       -1.900   2.313   0.069  0.00  0.00    +0.250 C 
ATOM     22  C   LIG    1       -2.075   3.391   1.151  0.00  0.00    +0.190 C 
ATOM     23  C   LIG    1       -2.174   2.727   2.526  0.00  0.00    +0.010 C 
ATOM     24  C   LIG    1       -0.450   0.348   0.310  0.00  0.00    +0.520 C 
ATOM     25  O   LIG    1        0.647  -0.148   0.457  0.00  0.00    -0.510 OA
ATOM     26  O   LIG    1       -0.948   4.269   1.125  0.00  0.00    -0.370 OA
ENDBRANCH  16  24
ENDBRANCH  15  16
ENDBRANCH   1  15
TORSDOF 6
