REMARK  Name = ZINCpk00000ebHiA.0
REMARK                            x       y       z     vdW  Elec       q    Type
REMARK                         _______ _______ _______ _____ _____    ______ ____
ROOT
ATOM      1  C   LIG    1       -0.042   1.210   0.115  0.00  0.00    +0.520 C 
ATOM      2  N   LIG    1       -1.217   1.870   0.096  0.00  0.00    -0.610 N 
ATOM      3  C   LIG    1       -1.249   3.339   0.097  0.00  0.00    +0.280 C 
ATOM      4  C   LIG    1       -2.072   3.808  -1.115  0.00  0.00    +0.280 C 
ATOM      5  N   LIG    1       -3.344   3.071  -1.131  0.00  0.00    -0.610 N 
ATOM      6  C   LIG    1       -3.312   1.602  -1.126  0.00  0.00    +0.290 C 
ATOM      7  C   LIG    1       -4.519   3.732  -1.149  0.00  0.00    +0.610 C 
ATOM      8  O   LIG    1       -5.561   3.115  -1.265  0.00  0.00    -0.510 OA
ATOM      9  C   LIG    1       -2.489   1.134   0.080  0.00  0.00    +0.290 C 
ATOM     10  O   LIG    1       -0.028  -0.003   0.118  0.00  0.00    -0.510 OA
ENDROOT
BRANCH   7  11
ATOM     11  C   LIG    1       -4.540   5.193  -1.030  0.00  0.00    -0.090 A 
ATOM     12  C   LIG    1       -5.656   5.973  -0.917  0.00  0.00    +0.050 A 
ATOM     13  C   LIG    1       -5.213   7.301  -0.827  0.00  0.00    -0.060 A 
ATOM     14  C   LIG    1       -3.863   7.276  -0.896  0.00  0.00    +0.200 A 
ATOM     15  O   LIG    1       -3.462   6.004  -1.018  0.00  0.00    -0.160 OA
ENDBRANCH   7  11
BRANCH   1  16
ATOM     16  C   LIG    1        1.254   1.978   0.124  0.00  0.00    +0.270 C 
BRANCH  16  17
ATOM     17  O   LIG    1        2.369   1.048   0.138  0.00  0.00    -0.340 OA
BRANCH  17  19
ATOM     18  O   LIG    1        3.754   2.785   0.145  0.00  0.00    -0.490 OA
ATOM     19  C   LIG    1        3.609   1.578   0.147  0.00  0.00    +0.540 C 
BRANCH  19  20
ATOM     20  C   LIG    1        4.781   0.699   0.161  0.00  0.00    -0.030 A 
ATOM     21  C   LIG    1        6.101   1.100   0.166  0.00  0.00    +0.080 A 
ATOM     22  C   LIG    1        6.883  -0.059   0.182  0.00  0.00    -0.130 A 
ATOM     23  C   LIG    1        6.045  -1.125   0.177  0.00  0.00    +0.250 A 
ATOM     24 CL   LIG    1        8.618  -0.122   0.197  0.00  0.00    -0.040 Cl
ATOM     25  N   LIG    1        4.766  -0.678   0.165  0.00  0.00    -0.520 N 
ATOM     26  H   LIG    1        3.972  -1.235   0.160  0.00  0.00    +0.430 HD
ENDBRANCH  19  20
ENDBRANCH  17  19
ENDBRANCH  16  17
ENDBRANCH   1  16
TORSDOF 5
