REMARK  Name = ZINCpk00000KfKzH.0
REMARK                            x       y       z     vdW  Elec       q    Type
REMARK                         _______ _______ _______ _____ _____    ______ ____
ROOT
ATOM      1  N   LIG    1        0.338  -0.410  -1.248  0.00  0.00    -0.560 NA
ATOM      2  C   LIG    1        1.725  -0.126  -1.610  0.00  0.00    +0.190 C 
ATOM      3  C   LIG    1        1.792   1.222  -2.293  0.00  0.00    +0.030 C 
ATOM      4  C   LIG    1        2.080   2.316  -1.250  0.00  0.00    +0.270 C 
ATOM      5  N   LIG    1        1.331   2.075  -0.001  0.00  0.00    -0.600 N 
ATOM      6  C   LIG    1       -0.048   1.632   0.008  0.00  0.00    +0.300 C 
ATOM      7  C   LIG    1        1.955   2.276   1.177  0.00  0.00    +0.600 C 
ATOM      8  O   LIG    1        3.129   2.591   1.198  0.00  0.00    -0.530 OA
ATOM      9  C   LIG    1       -0.098   0.085   0.004  0.00  0.00    +0.200 C 
ENDROOT
BRANCH   7  10
ATOM     10  C   LIG    1        1.212   2.114   2.443  0.00  0.00    +0.010 A 
ATOM     11  N   LIG    1       -0.021   1.667   2.579  0.00  0.00    -0.240 NA
ATOM     12  N   LIG    1       -0.352   1.655   3.820  0.00  0.00    -0.360 N 
ATOM     13  H   LIG    1       -1.212   1.366   4.162  0.00  0.00    +0.440 HD
ATOM     14  C   LIG    1        0.671   2.105   4.581  0.00  0.00    -0.020 A 
ATOM     15  C   LIG    1        1.076   2.386   6.011  0.00  0.00    +0.130 C 
ATOM     16  C   LIG    1        2.621   2.477   5.978  0.00  0.00    +0.050 C 
ATOM     17  C   LIG    1        2.882   2.906   4.517  0.00  0.00    +0.110 C 
ATOM     18  C   LIG    1        1.688   2.402   3.743  0.00  0.00    -0.160 A 
ENDBRANCH   7  10
BRANCH   1  19
ATOM     19  C   LIG    1        0.042  -1.843  -1.379  0.00  0.00    +0.300 C 
BRANCH  19  24
ATOM     20  N   LIG    1       -2.219  -2.055  -2.524  0.00  0.00    -0.440 N 
ATOM     21  C   LIG    1       -3.510  -2.270  -2.122  0.00  0.00    +0.110 A 
ATOM     22  C   LIG    1       -3.486  -2.385  -0.781  0.00  0.00    +0.140 A 
ATOM     23  N   LIG    1       -2.215  -2.250  -0.375  0.00  0.00    -0.490 NA
ATOM     24  C   LIG    1       -1.451  -2.046  -1.413  0.00  0.00    +0.220 A 
BRANCH  20  26
ATOM     25  C   LIG    1       -1.281  -3.208  -4.466  0.00  0.00    +0.030 C 
ATOM     26  C   LIG    1       -1.757  -1.868  -3.902  0.00  0.00    +0.290 C 
ENDBRANCH  20  26
ENDBRANCH  19  24
ENDBRANCH   1  19
TORSDOF 4
