REMARK  Name = ZINCtV00001bB37s.0
REMARK                            x       y       z     vdW  Elec       q    Type
REMARK                         _______ _______ _______ _____ _____    ______ ____
ROOT
ATOM      1  C   LIG    1       -0.226  -2.527  -0.010  0.00  0.00    -0.120 A 
ATOM      2  C   LIG    1        1.053  -2.122  -0.020  0.00  0.00    +0.110 A 
ATOM      3  C   LIG    1        1.227  -0.680  -0.013  0.00  0.00    -0.080 A 
ATOM      4  C   LIG    1        2.422   0.074  -0.019  0.00  0.00    +0.060 A 
ATOM      5  C   LIG    1        2.379   1.434  -0.011  0.00  0.00    +0.020 A 
ATOM      6  C   LIG    1        1.162   2.103   0.002  0.00  0.00    +0.050 A 
ATOM      7  C   LIG    1       -0.017   1.394   0.010  0.00  0.00    +0.050 A 
ATOM      8  C   LIG    1        0.002  -0.004   0.002  0.00  0.00    -0.140 A 
ATOM      9  S   LIG    1       -1.323  -1.161   0.008  0.00  0.00    +0.190 S 
ENDROOT
BRANCH   1  11
ATOM     10  N   LIG    1       -1.918  -4.226  -0.004  0.00  0.00    -0.210 NA
ATOM     11  C   LIG    1       -0.650  -3.930  -0.014  0.00  0.00    +0.230 C 
BRANCH  10  13
ATOM     12  C   LIG    1       -1.321  -6.636  -0.023  0.00  0.00    +0.280 C 
ATOM     13  N   LIG    1       -2.323  -5.567  -0.008  0.00  0.00    -0.460 N 
BRANCH  13  14
ATOM     14  C   LIG    1       -3.681  -5.885   0.003  0.00  0.00    +0.210 A 
ATOM     15  C   LIG    1       -4.086  -7.215  -0.006  0.00  0.00    -0.060 A 
ATOM     16  C   LIG    1       -5.431  -7.525   0.009  0.00  0.00    +0.050 A 
ATOM     17  C   LIG    1       -6.376  -6.515   0.025  0.00  0.00    -0.040 A 
ATOM     18  C   LIG    1       -5.977  -5.191   0.029  0.00  0.00    +0.050 A 
ATOM     19  C   LIG    1       -4.634  -4.872   0.018  0.00  0.00    -0.030 A 
ENDBRANCH  13  14
ENDBRANCH  10  13
ENDBRANCH   1  11
BRANCH   2  20
ATOM     20  O   LIG    1        2.099  -2.990  -0.034  0.00  0.00    -0.270 OA
BRANCH  20  21
ATOM     21  C   LIG    1        2.581  -3.387   1.159  0.00  0.00    +0.500 C 
ATOM     22  O   LIG    1        2.080  -2.970   2.185  0.00  0.00    -0.470 OA
BRANCH  21  23
ATOM     23  C   LIG    1        3.717  -4.329   1.221  0.00  0.00    -0.120 A 
ATOM     24  C   LIG    1        4.290  -4.814   0.044  0.00  0.00    +0.100 A 
ATOM     25  C   LIG    1        5.355  -5.689   0.108  0.00  0.00    +0.030 A 
ATOM     26  C   LIG    1        5.848  -6.095   1.335  0.00  0.00    +0.090 A 
ATOM     27  C   LIG    1        5.280  -5.622   2.507  0.00  0.00    -0.100 A 
ATOM     28 BR   LIG    1        5.962  -6.184   4.179  0.00  0.00    -0.030 Br
ATOM     29  C   LIG    1        4.219  -4.742   2.457  0.00  0.00    +0.120 A 
ENDBRANCH  21  23
ENDBRANCH  20  21
ENDBRANCH   2  20
TORSDOF 6
