REMARK  Name = ZINC670000003WoX.0
REMARK                            x       y       z     vdW  Elec       q    Type
REMARK                         _______ _______ _______ _____ _____    ______ ____
ROOT
ATOM      1  C   LIG    1        2.131   0.613   0.578  0.00  0.00    +0.520 C 
ATOM      2  N   LIG    1        1.304  -0.373   0.569  0.00  0.00    -0.610 NA
ATOM      3  C   LIG    1        0.002  -0.004   0.002  0.00  0.00    +0.310 C 
ATOM      4  C   LIG    1       -0.019   1.542   0.011  0.00  0.00    +0.090 C 
ATOM      5  H   LIG    1        1.518  -1.260   0.899  0.00  0.00    +0.440 HD
ATOM      6  C   LIG    1        1.496   1.858  -0.002  0.00  0.00    +0.150 C 
ENDROOT
BRANCH   1   7
ATOM      7  N   LIG    1        3.415   0.545   1.050  0.00  0.00    -0.780 NA
ATOM      8  H   LIG    1        3.984   1.331   1.024  0.00  0.00    +0.450 HD
ATOM      9  H   LIG    1        3.756  -0.289   1.409  0.00  0.00    +0.430 HD
ENDBRANCH   1   7
TORSDOF 1
