REMARK  Name = ZINCqH00000074OR.0
REMARK                            x       y       z     vdW  Elec       q    Type
REMARK                         _______ _______ _______ _____ _____    ______ ____
ROOT
ATOM      1  N   LIG    1        6.825   6.535  -0.029  0.00  0.00    -0.650 N 
ATOM      2  H   LIG    1        7.306   5.773  -0.387  0.00  0.00    +0.420 HD
ATOM      3  C   LIG    1        5.624   6.361   0.556  0.00  0.00    +0.540 C 
ATOM      4  O   LIG    1        5.069   7.296   1.092  0.00  0.00    -0.500 OA
ENDROOT
BRANCH   1  10
ATOM      5  C   LIG    1        8.759   7.978  -0.234  0.00  0.00    +0.100 A 
ATOM      6  C   LIG    1        9.301   9.250  -0.325  0.00  0.00    -0.060 A 
ATOM      7  C   LIG    1        8.474  10.357  -0.304  0.00  0.00    +0.030 A 
ATOM      8  C   LIG    1        7.105  10.200  -0.193  0.00  0.00    -0.080 A 
ATOM      9  C   LIG    1        6.556   8.935  -0.107  0.00  0.00    +0.060 A 
ATOM     10  C   LIG    1        7.379   7.819  -0.122  0.00  0.00    +0.120 A 
BRANCH   8  11
ATOM     11  C   LIG    1        6.209  11.412  -0.171  0.00  0.00    -0.020 C 
ATOM     12  C   LIG    1        5.424  11.442   1.142  0.00  0.00    +0.040 C 
ATOM     13  C   LIG    1        5.232  11.345  -1.347  0.00  0.00    +0.040 C 
ATOM     14  C   LIG    1        7.060  12.678  -0.285  0.00  0.00    +0.040 C 
ENDBRANCH   8  11
BRANCH   5  16
ATOM     15  C   LIG    1       10.975   7.127  -0.372  0.00  0.00    +0.250 C 
ATOM     16  O   LIG    1        9.571   6.888  -0.255  0.00  0.00    -0.320 OA
ENDBRANCH   5  16
ENDBRANCH   1  10
BRANCH   3  17
ATOM     17  C   LIG    1        4.971   5.002   0.545  0.00  0.00    +0.110 C 
BRANCH  17  18
ATOM     18  S   LIG    1        3.377   5.091   1.406  0.00  0.00    +0.080 S 
BRANCH  18  19
ATOM     19  C   LIG    1        2.773   3.439   1.293  0.00  0.00    +0.100 A 
ATOM     20  N   LIG    1        3.377   2.428   0.711  0.00  0.00    -0.250 NA
ATOM     21  N   LIG    1        2.661   1.363   0.810  0.00  0.00    -0.280 NA
ATOM     22  C   LIG    1        1.548   1.635   1.466  0.00  0.00    +0.200 A 
ATOM     23  C   LIG    1        0.434   0.862   1.850  0.00  0.00    +0.080 A 
ATOM     24  C   LIG    1       -0.582   1.454   2.532  0.00  0.00    +0.070 A 
ATOM     25  C   LIG    1       -0.505   2.822   2.857  0.00  0.00    +0.030 A 
ATOM     26  C   LIG    1        0.565   3.553   2.484  0.00  0.00    +0.240 A 
ATOM     27  N   LIG    1        1.593   2.975   1.792  0.00  0.00    -0.380 N 
ENDBRANCH  18  19
ENDBRANCH  17  18
ENDBRANCH   3  17
TORSDOF 6
