REMARK  Name = ZINCtV000002HWJf.0
REMARK                            x       y       z     vdW  Elec       q    Type
REMARK                         _______ _______ _______ _____ _____    ______ ____
ROOT
ATOM      1  C   LIG    1        4.838   1.071  -0.251  0.00  0.00    -0.130 A 
ATOM      2  C   LIG    1        4.859  -0.325  -0.254  0.00  0.00    +0.040 A 
ATOM      3  C   LIG    1        6.059  -0.994  -0.379  0.00  0.00    +0.030 A 
ATOM      4  C   LIG    1        7.242  -0.284  -0.490  0.00  0.00    -0.070 A 
ATOM      5  C   LIG    1        7.229   1.100  -0.483  0.00  0.00    +0.040 A 
ATOM      6  C   LIG    1        6.035   1.781  -0.365  0.00  0.00    +0.080 A 
ENDROOT
BRANCH   1   9
ATOM      7  N   LIG    1        2.402   1.106  -0.015  0.00  0.00    -0.670 N 
ATOM      8  H   LIG    1        2.418   0.138   0.048  0.00  0.00    +0.410 HD
ATOM      9  C   LIG    1        3.555   1.794  -0.124  0.00  0.00    +0.560 C 
ATOM     10  O   LIG    1        3.541   3.010  -0.117  0.00  0.00    -0.510 OA
BRANCH   7  15
ATOM     11  C   LIG    1       -2.552   3.869   0.075  0.00  0.00    +0.100 C 
ATOM     12  C   LIG    1       -1.236   3.135   0.052  0.00  0.00    -0.090 A 
ATOM     13  C   LIG    1       -1.145   1.903  -0.567  0.00  0.00    +0.050 A 
ATOM     14  C   LIG    1        0.059   1.225  -0.586  0.00  0.00    +0.000 A 
ATOM     15  C   LIG    1        1.181   1.788   0.008  0.00  0.00    +0.150 A 
ATOM     16  C   LIG    1        1.088   3.028   0.625  0.00  0.00    +0.040 A 
ATOM     17  C   LIG    1       -0.120   3.699   0.646  0.00  0.00    -0.020 A 
ATOM     18 CL   LIG    1       -0.238   5.250   1.417  0.00  0.00    -0.060 Cl
ENDBRANCH   7  15
ENDBRANCH   1   9
BRANCH   4  19
ATOM     19  C   LIG    1        8.549  -1.021  -0.620  0.00  0.00    +0.260 C 
BRANCH  19  20
ATOM     20  O   LIG    1        9.092  -1.260   0.680  0.00  0.00    -0.310 OA
BRANCH  20  21
ATOM     21  C   LIG    1       10.279  -1.920   0.742  0.00  0.00    +0.120 A 
ATOM     22  C   LIG    1       10.905  -2.334  -0.425  0.00  0.00    -0.080 A 
ATOM     23  C   LIG    1       12.113  -3.001  -0.360  0.00  0.00    +0.050 A 
ATOM     24  C   LIG    1       12.694  -3.264   0.867  0.00  0.00    -0.110 A 
ATOM     25  C   LIG    1       12.069  -2.857   2.031  0.00  0.00    +0.050 A 
ATOM     26  C   LIG    1       10.863  -2.186   1.972  0.00  0.00    -0.020 A 
BRANCH  24  27
ATOM     27  C   LIG    1       14.009  -3.995   0.935  0.00  0.00    -0.030 C 
ATOM     28  C   LIG    1       15.050  -3.110   1.624  0.00  0.00    +0.040 C 
ATOM     29  C   LIG    1       14.481  -4.330  -0.482  0.00  0.00    +0.030 C 
ATOM     30  C   LIG    1       13.832  -5.289   1.732  0.00  0.00    +0.040 C 
ENDBRANCH  24  27
ENDBRANCH  20  21
ENDBRANCH  19  20
ENDBRANCH   4  19
TORSDOF 6
