REMARK  Name = ZINCrH000004rkJM.0
REMARK                            x       y       z     vdW  Elec       q    Type
REMARK                         _______ _______ _______ _____ _____    ______ ____
ROOT
ATOM      1  N   LIG    1       -4.975   1.404   0.403  0.00  0.00    -0.560 N 
ATOM      2  C   LIG    1       -5.263   0.246   0.997  0.00  0.00    +0.510 C 
ATOM      3  C   LIG    1       -4.239  -0.815   1.286  0.00  0.00    +0.100 C 
ATOM      4  C   LIG    1       -2.833  -0.214   1.215  0.00  0.00    +0.060 C 
ATOM      5  C   LIG    1       -2.713   0.588  -0.086  0.00  0.00    +0.010 C 
ATOM      6  O   LIG    1       -6.413   0.037   1.322  0.00  0.00    -0.520 OA
ATOM      7  C   LIG    1       -3.633   1.806  -0.001  0.00  0.00    +0.350 C 
ENDROOT
BRANCH   1  12
ATOM      8  C   LIG    1       -9.245   4.994  -0.631  0.00  0.00    +0.090 C 
ATOM      9  C   LIG    1       -8.111   4.040  -0.356  0.00  0.00    -0.080 A 
ATOM     10  C   LIG    1       -8.047   2.832  -1.027  0.00  0.00    +0.020 A 
ATOM     11  C   LIG    1       -7.009   1.956  -0.777  0.00  0.00    +0.030 A 
ATOM     12  C   LIG    1       -6.028   2.290   0.148  0.00  0.00    +0.130 A 
ATOM     13  C   LIG    1       -6.098   3.501   0.824  0.00  0.00    +0.010 A 
ATOM     14  C   LIG    1       -7.136   4.375   0.566  0.00  0.00    +0.020 A 
ENDBRANCH   1  12
BRANCH   7  15
ATOM     15  C   LIG    1       -3.695   2.479  -1.349  0.00  0.00    -0.210 A 
ATOM     16  C   LIG    1       -3.139   3.654  -1.648  0.00  0.00    +0.060 A 
ATOM     17  C   LIG    1       -3.326   4.071  -2.954  0.00  0.00    +0.000 A 
ATOM     18  C   LIG    1       -4.041   3.240  -3.714  0.00  0.00    -0.040 A 
ATOM     19  S   LIG    1       -4.518   1.838  -2.765  0.00  0.00    +0.100 S 
ENDBRANCH   7  15
BRANCH   5  20
ATOM     20  C   LIG    1       -1.288   1.042  -0.271  0.00  0.00    +0.530 C 
ATOM     21  N   LIG    1       -0.298   0.132  -0.365  0.00  0.00    -0.630 N 
ATOM     22  H   LIG    1       -0.502  -0.814  -0.314  0.00  0.00    +0.420 HD
ATOM     23  O   LIG    1       -1.033   2.225  -0.335  0.00  0.00    -0.470 OA
BRANCH  21  24
ATOM     24  C   LIG    1        1.008   0.549  -0.540  0.00  0.00    +0.390 C 
ATOM     25  N   LIG    1        2.022  -0.231  -0.646  0.00  0.00    -0.570 NA
ATOM     26  C   LIG    1        3.344   0.326  -0.827  0.00  0.00    +0.260 C 
ATOM     27  C   LIG    1        3.300   1.862  -0.864  0.00  0.00    +0.060 C 
ATOM     28  S   LIG    1        1.528   2.234  -0.658  0.00  0.00    -0.080 S 
ENDBRANCH  21  24
ENDBRANCH   5  20
TORSDOF 4
