REMARK  Name = ZINCrg000000mHLt.0
REMARK                            x       y       z     vdW  Elec       q    Type
REMARK                         _______ _______ _______ _____ _____    ______ ____
ROOT
ATOM      1  C   LIG    1       -0.361   1.058   2.435  0.00  0.00    +0.550 C 
ATOM      2  N   LIG    1       -0.816   1.409   1.216  0.00  0.00    -0.720 N 
ATOM      3  H   LIG    1       -1.669   1.863   1.129  0.00  0.00    +0.400 HD
ATOM      4  O   LIG    1        0.708   0.490   2.544  0.00  0.00    -0.520 OA
ENDROOT
BRANCH   1   8
ATOM      5  C   LIG    1       -2.663   1.935   5.896  0.00  0.00    -0.660 A 
ATOM      6  C   LIG    1       -1.446   1.288   6.023  0.00  0.00    +0.130 A 
ATOM      7  C   LIG    1       -0.694   1.000   4.903  0.00  0.00    +0.070 A 
ATOM      8  C   LIG    1       -1.162   1.363   3.639  0.00  0.00    -0.080 A 
ATOM      9  C   LIG    1       -2.388   2.020   3.518  0.00  0.00    +0.030 A 
ATOM     10  C   LIG    1       -3.133   2.297   4.646  0.00  0.00    +0.120 A 
BRANCH   5  11
ATOM     11  S   LIG    1       -3.618   2.298   7.331  0.00  0.00    +2.700 S 
ATOM     12  O   LIG    1       -3.208   1.374   8.330  0.00  0.00    -0.950 OA
ATOM     13  O   LIG    1       -4.964   2.425   6.895  0.00  0.00    -0.950 OA
BRANCH  11  14
ATOM     14  N   LIG    1       -3.154   3.797   7.862  0.00  0.00    -1.120 NA
ATOM     15  H   LIG    1       -2.716   3.893   8.722  0.00  0.00    +0.420 HD
BRANCH  14  16
ATOM     16  C   LIG    1       -3.407   4.978   7.032  0.00  0.00    +0.430 C 
BRANCH  16  18
ATOM     17  C   LIG    1       -3.115   7.162   8.497  0.00  0.00    +0.060 C 
ATOM     18  C   LIG    1       -3.244   6.193   7.847  0.00  0.00    -0.210 C 
ENDBRANCH  16  18
ENDBRANCH  14  16
ENDBRANCH  11  14
ENDBRANCH   5  11
ENDBRANCH   1   8
BRANCH   2  19
ATOM     19  C   LIG    1       -0.022   1.107   0.022  0.00  0.00    +0.320 C 
BRANCH  19  20
ATOM     20  C   LIG    1       -0.749   1.600  -1.202  0.00  0.00    -0.130 A 
ATOM     21  C   LIG    1       -1.629   0.766  -1.865  0.00  0.00    +0.050 A 
ATOM     22  C   LIG    1       -2.300   1.216  -2.985  0.00  0.00    -0.020 A 
ATOM     23  C   LIG    1       -2.081   2.506  -3.452  0.00  0.00    +0.180 A 
ATOM     24  C   LIG    1       -1.192   3.340  -2.787  0.00  0.00    +0.020 A 
ATOM     25  C   LIG    1       -0.529   2.885  -1.664  0.00  0.00    +0.050 A 
BRANCH  23  26
ATOM     26  N   LIG    1       -2.755   2.964  -4.590  0.00  0.00    -0.690 N 
ATOM     27  H   LIG    1       -3.656   2.656  -4.777  0.00  0.00    +0.410 HD
ATOM     28  C   LIG    1       -2.152   3.832  -5.426  0.00  0.00    +0.700 C 
ATOM     29  O   LIG    1       -0.990   4.143  -5.246  0.00  0.00    -0.570 OA
ATOM     30  N   LIG    1       -2.836   4.356  -6.462  0.00  0.00    -0.860 N 
ATOM     31  H   LIG    1       -2.402   4.980  -7.064  0.00  0.00    +0.420 HD
ATOM     32  H   LIG    1       -3.763   4.108  -6.606  0.00  0.00    +0.400 HD
ENDBRANCH  23  26
ENDBRANCH  19  20
ENDBRANCH   2  19
TORSDOF 8
