REMARK  Name = ZINCvU00000009qh.0
REMARK                            x       y       z     vdW  Elec       q    Type
REMARK                         _______ _______ _______ _____ _____    ______ ____
ROOT
ATOM      1  C   LIG    1        0.037  -2.091  -0.636  0.00  0.00    +0.150 A 
ATOM      2  N   LIG    1        0.056  -2.010   0.674  0.00  0.00    -0.280 NA
ATOM      3  N   LIG    1        0.049  -0.778   1.037  0.00  0.00    -0.270 NA
ATOM      4  C   LIG    1        0.025  -0.002  -0.010  0.00  0.00    +0.210 A 
ATOM      5  N   LIG    1        0.011  -0.810  -1.115  0.00  0.00    -0.420 N 
ENDROOT
BRANCH   5   6
ATOM      6  C   LIG    1       -0.022  -0.408  -2.459  0.00  0.00    +0.110 A 
ATOM      7  C   LIG    1       -1.131   0.261  -2.958  0.00  0.00    +0.050 A 
ATOM      8  C   LIG    1       -1.159   0.659  -4.280  0.00  0.00    +0.060 A 
ATOM      9  C   LIG    1       -0.086   0.383  -5.110  0.00  0.00    -0.020 A 
ATOM     10  C   LIG    1        1.019  -0.288  -4.616  0.00  0.00    +0.060 A 
ATOM     11 CL   LIG    1       -0.127   0.879  -6.773  0.00  0.00    -0.050 Cl
ATOM     12  C   LIG    1        1.053  -0.684  -3.293  0.00  0.00    +0.060 A 
ENDBRANCH   5   6
BRANCH   1  13
ATOM     13  S   LIG    1        0.037  -3.569  -1.595  0.00  0.00    +0.090 S 
BRANCH  13  15
ATOM     14  C   LIG    1       -1.225  -4.718   0.537  0.00  0.00    +0.080 C 
ATOM     15  C   LIG    1        0.071  -4.803  -0.271  0.00  0.00    +0.020 C 
BRANCH  15  16
ATOM     16  C   LIG    1        0.200  -6.180  -0.871  0.00  0.00    +0.540 C 
ATOM     17  N   LIG    1        0.643  -7.204  -0.116  0.00  0.00    -0.660 N 
ATOM     18  H   LIG    1        0.943  -7.043   0.792  0.00  0.00    +0.410 HD
ATOM     19  O   LIG    1       -0.095  -6.365  -2.032  0.00  0.00    -0.500 OA
BRANCH  17  20
ATOM     20  C   LIG    1        0.672  -8.500  -0.643  0.00  0.00    +0.140 A 
ATOM     21  C   LIG    1        0.412  -9.591   0.177  0.00  0.00    -0.010 A 
ATOM     22  C   LIG    1        0.435 -10.868  -0.347  0.00  0.00    +0.030 A 
ATOM     23  C   LIG    1        0.728 -11.063  -1.685  0.00  0.00    -0.010 A 
ATOM     24  C   LIG    1        0.993  -9.980  -2.503  0.00  0.00    +0.030 A 
ATOM     25  C   LIG    1        0.966  -8.699  -1.986  0.00  0.00    +0.020 A 
ENDBRANCH  17  20
ENDBRANCH  15  16
ENDBRANCH  13  15
ENDBRANCH   1  13
BRANCH   4  26
ATOM     26  C   LIG    1        0.009   1.505  -0.004  0.00  0.00    +0.210 C 
BRANCH  26  27
ATOM     27  C   LIG    1        1.425   2.022  -0.025  0.00  0.00    -0.090 A 
ATOM     28  C   LIG    1        2.091   2.261   1.162  0.00  0.00    +0.030 A 
ATOM     29  C   LIG    1        3.391   2.731   1.143  0.00  0.00    +0.010 A 
ATOM     30  C   LIG    1        4.021   2.972  -0.064  0.00  0.00    +0.010 A 
ATOM     31  C   LIG    1        3.353   2.738  -1.251  0.00  0.00    +0.000 A 
ATOM     32  C   LIG    1        2.055   2.263  -1.232  0.00  0.00    +0.010 A 
ENDBRANCH  26  27
ENDBRANCH   4  26
TORSDOF 7
