REMARK  Name = ZINCrD000003M05o.0
REMARK                            x       y       z     vdW  Elec       q    Type
REMARK                         _______ _______ _______ _____ _____    ______ ____
ROOT
ATOM      1  C   LIG    1       -3.130  -0.930  -1.573  0.00  0.00    +0.280 A 
ATOM      2  N   LIG    1       -2.320  -1.641  -2.327  0.00  0.00    -0.280 NA
ATOM      3  N   LIG    1       -1.018  -1.402  -1.859  0.00  0.00    -0.460 N 
ATOM      4  H   LIG    1       -0.197  -1.779  -2.211  0.00  0.00    +0.450 HD
ATOM      5  C   LIG    1       -1.134  -0.549  -0.825  0.00  0.00    +0.290 A 
ATOM      6  N   LIG    1       -2.400  -0.270  -0.663  0.00  0.00    -0.490 NA
ENDROOT
BRANCH   5   7
ATOM      7  C   LIG    1        0.002  -0.004   0.002  0.00  0.00    +0.290 C 
ATOM      8  C   LIG    1       -0.019   1.543   0.011  0.00  0.00    +0.120 C 
ATOM      9  C   LIG    1        1.460   1.876  -0.002  0.00  0.00    -0.170 A 
ATOM     10  C   LIG    1        2.150   3.036   0.274  0.00  0.00    +0.060 A 
ATOM     11  C   LIG    1        3.531   3.056   0.190  0.00  0.00    -0.010 A 
ATOM     12  C   LIG    1        4.213   1.910  -0.172  0.00  0.00    +0.050 A 
ATOM     13  C   LIG    1        3.525   0.748  -0.453  0.00  0.00    +0.000 A 
ATOM     14  C   LIG    1        2.135   0.720  -0.374  0.00  0.00    +0.100 A 
ATOM     15  O   LIG    1        1.267  -0.302  -0.612  0.00  0.00    -0.310 OA
ENDBRANCH   5   7
BRANCH   1  19
ATOM     16  C   LIG    1       -7.319  -0.737  -1.928  0.00  0.00    +0.120 A 
ATOM     17  C   LIG    1       -6.616  -1.546  -2.818  0.00  0.00    +0.080 A 
ATOM     18  C   LIG    1       -5.239  -1.610  -2.702  0.00  0.00    +0.050 A 
ATOM     19  C   LIG    1       -4.606  -0.869  -1.707  0.00  0.00    +0.200 A 
ATOM     20  N   LIG    1       -5.310  -0.113  -0.874  0.00  0.00    -0.420 NA
ATOM     21  C   LIG    1       -6.621  -0.026  -0.960  0.00  0.00    +0.270 A 
BRANCH  16  28
ATOM     22  C   LIG    1       -9.181  -0.438   0.491  0.00  0.00    +0.160 C 
ATOM     23  C   LIG    1       -9.565  -0.510  -0.964  0.00  0.00    +0.090 A 
ATOM     24  C   LIG    1      -10.822  -0.452  -1.462  0.00  0.00    -0.100 A 
ATOM     25  C   LIG    1      -10.739  -0.560  -2.854  0.00  0.00    +0.090 A 
ATOM     26  N   LIG    1       -9.478  -0.674  -3.182  0.00  0.00    -0.290 NA
ATOM     27  C   LIG    1      -11.903  -0.547  -3.811  0.00  0.00    +0.160 C 
ATOM     28  N   LIG    1       -8.715  -0.642  -2.008  0.00  0.00    -0.330 N 
ENDBRANCH  16  28
ENDBRANCH   1  19
TORSDOF 3
