REMARK  Name = ZINCpe00000MJKSe.0
REMARK                            x       y       z     vdW  Elec       q    Type
REMARK                         _______ _______ _______ _____ _____    ______ ____
ROOT
ATOM      1  C   LIG    1        2.223  -4.339  -3.649  0.00  0.00    +0.160 C 
ATOM      2  C   LIG    1        1.495  -3.998  -2.345  0.00  0.00    +0.170 C 
ATOM      3  N   LIG    1        1.351  -2.539  -2.238  0.00  0.00    -0.500 NA
ATOM      4  C   LIG    1        2.665  -1.882  -2.268  0.00  0.00    +0.160 C 
ATOM      5  C   LIG    1        3.381  -2.244  -3.571  0.00  0.00    +0.230 C 
ATOM      6  O   LIG    1        3.485  -3.667  -3.674  0.00  0.00    -0.380 OA
ENDROOT
BRANCH   3   7
ATOM      7  C   LIG    1        0.606  -2.171  -1.026  0.00  0.00    +0.180 C 
ATOM      8  C   LIG    1        0.647  -0.653  -0.843  0.00  0.00    +0.070 C 
BRANCH   7   9
ATOM      9  C   LIG    1        1.232  -2.839   0.171  0.00  0.00    +0.490 C 
ATOM     10  N   LIG    1        0.477  -3.146   1.244  0.00  0.00    -0.730 N 
ATOM     11  H   LIG    1       -0.471  -2.937   1.245  0.00  0.00    +0.410 HD
ATOM     12  O   LIG    1        2.417  -3.100   0.168  0.00  0.00    -0.530 OA
BRANCH  10  13
ATOM     13  C   LIG    1        1.086  -3.795   2.407  0.00  0.00    +0.390 C 
BRANCH  13  14
ATOM     14  C   LIG    1        0.034  -4.028   3.461  0.00  0.00    -0.050 A 
ATOM     15  C   LIG    1       -0.736  -5.125   3.575  0.00  0.00    -0.030 A 
ATOM     16  C   LIG    1       -1.575  -4.922   4.695  0.00  0.00    -0.070 A 
ATOM     17  C   LIG    1       -1.274  -3.710   5.192  0.00  0.00    +0.190 A 
ATOM     18  O   LIG    1       -0.299  -3.172   4.441  0.00  0.00    -0.170 OA
ENDBRANCH  13  14
ENDBRANCH  10  13
ENDBRANCH   7   9
ENDBRANCH   3   7
BRANCH   1  19
ATOM     19  C   LIG    1        2.447  -5.850  -3.728  0.00  0.00    +0.360 C 
BRANCH  19  23
ATOM     20  C   LIG    1        2.965  -7.133  -8.550  0.00  0.00    +0.190 C 
ATOM     21  C   LIG    1        3.247  -6.746  -7.121  0.00  0.00    +0.220 A 
ATOM     22  N   LIG    1        2.344  -6.519  -6.204  0.00  0.00    -0.330 NA
ATOM     23  N   LIG    1        3.035  -6.189  -5.027  0.00  0.00    -0.380 N 
ATOM     24  C   LIG    1        4.344  -6.250  -5.327  0.00  0.00    +0.300 A 
ATOM     25  C   LIG    1        5.483  -5.981  -4.378  0.00  0.00    +0.190 C 
ATOM     26  N   LIG    1        4.456  -6.586  -6.586  0.00  0.00    -0.550 NA
ENDBRANCH  19  23
ENDBRANCH   1  19
TORSDOF 6
