REMARK  Name = ZINCrH00000No52f.0
REMARK                            x       y       z     vdW  Elec       q    Type
REMARK                         _______ _______ _______ _____ _____    ______ ____
ROOT
ATOM      1  N   LIG    1        1.396  -2.695  -1.406  0.00  0.00    -0.530 NA
ENDROOT
BRANCH   1   2
ATOM      2  C   LIG    1        1.500  -2.095  -0.069  0.00  0.00    +0.260 C 
BRANCH   2   9
ATOM      3  C   LIG    1        0.364   0.097  -0.482  0.00  0.00    +0.070 A 
ATOM      4  C   LIG    1        0.408   1.483  -0.595  0.00  0.00    -0.060 A 
ATOM      5  C   LIG    1        1.626   2.119  -0.413  0.00  0.00    -0.020 A 
ATOM      6  C   LIG    1        2.747   1.363  -0.127  0.00  0.00    +0.250 A 
ATOM      7  N   LIG    1        2.670   0.050  -0.027  0.00  0.00    -0.470 NA
ATOM      8  C   LIG    1       -0.837   2.272  -0.907  0.00  0.00    +0.120 C 
ATOM      9  C   LIG    1        1.532  -0.594  -0.194  0.00  0.00    +0.120 A 
BRANCH   3  11
ATOM     10  C   LIG    1       -1.655  -0.695   0.491  0.00  0.00    +0.220 C 
ATOM     11  O   LIG    1       -0.807  -0.571  -0.653  0.00  0.00    -0.310 OA
ENDBRANCH   3  11
ENDBRANCH   2   9
ENDBRANCH   1   2
BRANCH   1  12
ATOM     12  C   LIG    1        2.688  -2.651  -2.104  0.00  0.00    +0.210 C 
BRANCH  12  13
ATOM     13  C   LIG    1        2.920  -1.245  -2.661  0.00  0.00    -0.280 C 
ATOM     14  C   LIG    1        4.197  -1.234  -3.503  0.00  0.00    +0.040 C 
BRANCH  13  15
ATOM     15  S   LIG    1        1.509  -0.765  -3.696  0.00  0.00    +1.270 S 
ATOM     16  O   LIG    1        1.397  -1.664  -4.790  0.00  0.00    -0.850 OA
ATOM     17  C   LIG    1        1.990   0.874  -4.306  0.00  0.00    -0.230 C 
ENDBRANCH  13  15
ENDBRANCH  12  13
ENDBRANCH   1  12
BRANCH   1  18
ATOM     18  C   LIG    1        0.886  -4.071  -1.328  0.00  0.00    +0.210 C 
BRANCH  18  19
ATOM     19  C   LIG    1        0.385  -4.508  -2.706  0.00  0.00    -0.010 C 
ATOM     20  C   LIG    1       -1.102  -4.841  -2.843  0.00  0.00    +0.040 C 
ATOM     21  C   LIG    1       -0.061  -5.963  -2.866  0.00  0.00    -0.010 C 
BRANCH  21  22
ATOM     22  C   LIG    1        0.212  -6.632  -4.188  0.00  0.00    -0.050 A 
ATOM     23  C   LIG    1       -0.218  -6.044  -5.363  0.00  0.00    +0.000 A 
ATOM     24  C   LIG    1        0.036  -6.656  -6.576  0.00  0.00    +0.000 A 
ATOM     25  C   LIG    1        0.713  -7.861  -6.614  0.00  0.00    -0.010 A 
ATOM     26  C   LIG    1        1.139  -8.451  -5.439  0.00  0.00    +0.000 A 
ATOM     27  C   LIG    1        0.889  -7.837  -4.226  0.00  0.00    +0.000 A 
ENDBRANCH  21  22
ENDBRANCH  18  19
ENDBRANCH   1  18
TORSDOF 9
