REMARK  Name = ZINC9p0000006lid.0
REMARK                            x       y       z     vdW  Elec       q    Type
REMARK                         _______ _______ _______ _____ _____    ______ ____
ROOT
ATOM      1  C   LIG    1        1.344   3.456   0.423  0.00  0.00    +0.090 C 
ATOM      2  C   LIG    1        1.354   1.986  -0.000  0.00  0.00    +0.160 C 
ATOM      3  C   LIG    1        1.938   1.865  -1.411  0.00  0.00    +0.060 C 
ATOM      4  C   LIG    1        2.329   0.412  -1.669  0.00  0.00    +0.020 C 
ATOM      5  C   LIG    1        3.050  -0.150  -0.445  0.00  0.00    +0.010 C 
ATOM      6  C   LIG    1        2.178  -1.210   0.226  0.00  0.00    +0.040 C 
ATOM      7  C   LIG    1        1.048  -0.515   0.996  0.00  0.00    +0.040 C 
ATOM      8  C   LIG    1        0.002  -0.004   0.002  0.00  0.00    +0.250 C 
ATOM      9  N   LIG    1       -0.018   1.465   0.010  0.00  0.00    -0.500 N 
ATOM     10  H   LIG    1       -0.493   1.789   0.839  0.00  0.00    +0.430 HD
ATOM     11  H   LIG    1       -0.508   1.798  -0.806  0.00  0.00    +0.430 HD
ENDROOT
TORSDOF 0
