REMARK  Name = ZINCrg000000oRwh.0
REMARK                            x       y       z     vdW  Elec       q    Type
REMARK                         _______ _______ _______ _____ _____    ______ ____
ROOT
ATOM      1  N   LIG    1        2.359   3.889  -0.036  0.00  0.00    -0.680 N 
ATOM      2  H   LIG    1        2.350   4.845  -0.196  0.00  0.00    +0.410 HD
ATOM      3  C   LIG    1        3.532   3.236   0.086  0.00  0.00    +0.710 C 
ATOM      4  N   LIG    1        4.683   3.931   0.180  0.00  0.00    -0.630 N 
ATOM      5  C   LIG    1        5.983   3.244   0.172  0.00  0.00    +0.330 C 
ATOM      6  C   LIG    1        6.874   3.910  -0.887  0.00  0.00    +0.210 C 
ATOM      7  N   LIG    1        6.938   5.355  -0.627  0.00  0.00    -0.460 N 
ATOM      8  C   LIG    1        5.615   5.979  -0.759  0.00  0.00    +0.230 C 
ATOM      9  C   LIG    1        4.672   5.397   0.299  0.00  0.00    +0.290 C 
ATOM     10  O   LIG    1        3.552   2.021   0.113  0.00  0.00    -0.570 OA
ENDROOT
BRANCH   1  15
ATOM     11  C   LIG    1       -1.192   3.145   0.565  0.00  0.00    -0.660 A 
ATOM     12  C   LIG    1       -1.232   1.797   0.263  0.00  0.00    +0.100 A 
ATOM     13  C   LIG    1       -0.081   1.139  -0.130  0.00  0.00    +0.020 A 
ATOM     14  C   LIG    1        1.111   1.829  -0.232  0.00  0.00    +0.090 A 
ATOM     15  C   LIG    1        1.153   3.185   0.066  0.00  0.00    +0.150 A 
ATOM     16  C   LIG    1       -0.004   3.842   0.465  0.00  0.00    +0.080 A 
BRANCH  11  17
ATOM     17  S   LIG    1       -2.660   3.977   1.071  0.00  0.00    +2.690 S 
ATOM     18  O   LIG    1       -2.241   5.117   1.810  0.00  0.00    -0.950 OA
ATOM     19  O   LIG    1       -3.523   2.981   1.603  0.00  0.00    -0.950 OA
BRANCH  17  21
ATOM     20  C   LIG    1       -4.372   3.720  -1.007  0.00  0.00    +0.300 C 
ATOM     21  N   LIG    1       -3.396   4.551  -0.297  0.00  0.00    -1.010 NA
ATOM     22  C   LIG    1       -3.071   5.889  -0.797  0.00  0.00    +0.300 C 
ENDBRANCH  17  21
ENDBRANCH  11  17
ENDBRANCH   1  15
BRANCH   7  23
ATOM     23  C   LIG    1        7.860   5.968  -1.457  0.00  0.00    +0.490 A 
ATOM     24  N   LIG    1        7.470   6.973  -2.227  0.00  0.00    -0.550 NA
ATOM     25  C   LIG    1        8.328   7.585  -3.027  0.00  0.00    +0.340 A 
ATOM     26  C   LIG    1        9.645   7.153  -3.063  0.00  0.00    -0.110 A 
ATOM     27  C   LIG    1       10.018   6.095  -2.249  0.00  0.00    +0.350 A 
ATOM     28  N   LIG    1        9.111   5.531  -1.468  0.00  0.00    -0.530 NA
ENDBRANCH   7  23
TORSDOF 4
