REMARK  Name = ZINCqH0000032ek2.0
REMARK                            x       y       z     vdW  Elec       q    Type
REMARK                         _______ _______ _______ _____ _____    ______ ____
ROOT
ATOM      1  C   LIG    1       -1.547   2.195   1.516  0.00  0.00    +0.210 C 
ATOM      2  C   LIG    1       -2.187   2.782   0.254  0.00  0.00    +0.220 C 
ATOM      3  O   LIG    1       -1.349   2.506  -0.871  0.00  0.00    -0.380 OA
ATOM      4  C   LIG    1       -0.053   3.104  -0.796  0.00  0.00    +0.220 C 
ATOM      5  C   LIG    1        0.697   2.533   0.413  0.00  0.00    +0.240 C 
ATOM      6  N   LIG    1       -0.159   2.677   1.601  0.00  0.00    -0.630 N 
ATOM      7  C   LIG    1        0.315   3.236   2.733  0.00  0.00    +0.700 C 
ATOM      8  N   LIG    1        1.561   3.748   2.762  0.00  0.00    -0.750 N 
ATOM      9  H   LIG    1        2.090   3.782   1.949  0.00  0.00    +0.390 HD
ATOM     10  O   LIG    1       -0.383   3.277   3.728  0.00  0.00    -0.560 OA
ENDROOT
BRANCH   8  11
ATOM     11  C   LIG    1        2.117   4.252   4.020  0.00  0.00    +0.310 C 
ATOM     12  C   LIG    1        2.647   3.081   4.849  0.00  0.00    +0.040 C 
BRANCH  11  13
ATOM     13  C   LIG    1        3.244   5.208   3.723  0.00  0.00    -0.060 A 
ATOM     14  C   LIG    1        3.909   5.137   2.514  0.00  0.00    +0.030 A 
ATOM     15  C   LIG    1        4.943   6.019   2.236  0.00  0.00    +0.080 A 
ATOM     16  C   LIG    1        5.314   6.969   3.180  0.00  0.00    +0.060 A 
ATOM     17  O   LIG    1        6.323   7.846   2.926  0.00  0.00    -0.300 OA
ATOM     18  C   LIG    1        7.211   7.513   1.854  0.00  0.00    +0.230 C 
ATOM     19  C   LIG    1        6.367   7.072   0.650  0.00  0.00    +0.230 C 
ATOM     20  C   LIG    1        4.647   7.031   4.395  0.00  0.00    +0.070 A 
ATOM     21  O   LIG    1        5.588   5.936   1.040  0.00  0.00    -0.300 OA
ATOM     22  C   LIG    1        3.615   6.152   4.665  0.00  0.00    -0.080 A 
ATOM     23 BR   LIG    1        2.709   6.239   6.322  0.00  0.00    -0.020 Br
ENDBRANCH  11  13
ENDBRANCH   8  11
BRANCH   1  24
ATOM     24  C   LIG    1       -2.328   2.650   2.751  0.00  0.00    +0.040 C 
BRANCH  24  26
ATOM     25  C   LIG    1       -2.659   2.263   5.196  0.00  0.00    +0.010 C 
ATOM     26  C   LIG    1       -2.042   1.699   3.915  0.00  0.00    +0.010 C 
ATOM     27  C   LIG    1       -2.652   0.329   3.615  0.00  0.00    -0.010 C 
ENDBRANCH  24  26
ENDBRANCH   1  24
TORSDOF 4
