REMARK  Name = ZINCtV00000Q4R9j.0
REMARK                            x       y       z     vdW  Elec       q    Type
REMARK                         _______ _______ _______ _____ _____    ______ ____
ROOT
ATOM      1  C   LIG    1        3.141   5.054  -0.088  0.00  0.00    +0.330 C 
ENDROOT
BRANCH   1   5
ATOM      2  C   LIG    1        7.349   5.796  -0.056  0.00  0.00    +0.090 A 
ATOM      3  C   LIG    1        6.683   5.624  -1.261  0.00  0.00    -0.010 A 
ATOM      4  C   LIG    1        5.323   5.384  -1.269  0.00  0.00    +0.050 A 
ATOM      5  C   LIG    1        4.625   5.316  -0.077  0.00  0.00    -0.110 A 
ATOM      6  C   LIG    1        5.285   5.493   1.125  0.00  0.00    +0.060 A 
ATOM      7  C   LIG    1        6.647   5.727   1.138  0.00  0.00    +0.020 A 
BRANCH   2   8
ATOM      8  O   LIG    1        8.688   6.032  -0.046  0.00  0.00    -0.250 OA
BRANCH   8  14
ATOM      9  F   LIG    1        7.796  10.338  -1.834  0.00  0.00    -0.130 F 
ATOM     10  C   LIG    1        8.678   9.388  -1.454  0.00  0.00    +0.140 A 
ATOM     11  C   LIG    1       10.038   9.616  -1.581  0.00  0.00    -0.050 A 
ATOM     12  C   LIG    1       10.943   8.646  -1.193  0.00  0.00    +0.090 A 
ATOM     13  C   LIG    1       10.493   7.446  -0.679  0.00  0.00    -0.010 A 
ATOM     14  C   LIG    1        9.131   7.213  -0.551  0.00  0.00    +0.150 A 
ATOM     15  C   LIG    1        8.223   8.184  -0.945  0.00  0.00    -0.090 A 
ENDBRANCH   8  14
ENDBRANCH   2   8
ENDBRANCH   1   5
BRANCH   1  16
ATOM     16  N   LIG    1        2.899   3.610  -0.030  0.00  0.00    -0.700 N 
ATOM     17  H   LIG    1        3.647   2.994   0.008  0.00  0.00    +0.410 HD
BRANCH  16  18
ATOM     18  C   LIG    1        1.604   3.126  -0.029  0.00  0.00    +0.500 A 
ATOM     19  C   LIG    1        1.352   1.746   0.027  0.00  0.00    -0.250 A 
ATOM     20  C   LIG    1        2.181   0.544   0.091  0.00  0.00    -0.140 A 
ATOM     21  C   LIG    1        1.342  -0.505   0.124  0.00  0.00    +0.280 A 
ATOM     22  N   LIG    1        0.044  -0.063   0.086  0.00  0.00    -0.430 N 
ATOM     23 BR   LIG    1        4.071   0.478   0.121  0.00  0.00    -0.010 Br
ATOM     24  C   LIG    1        0.016   1.303   0.026  0.00  0.00    +0.360 A 
ATOM     25  N   LIG    1       -0.956   2.213  -0.022  0.00  0.00    -0.570 NA
ATOM     26  C   LIG    1       -0.673   3.496  -0.078  0.00  0.00    +0.570 A 
ATOM     27  N   LIG    1        0.565   3.955  -0.080  0.00  0.00    -0.590 NA
BRANCH  22  28
ATOM     28  C   LIG    1       -1.139  -0.927   0.105  0.00  0.00    +0.210 C 
ATOM     29  C   LIG    1       -0.920  -2.417   0.376  0.00  0.00    +0.050 C 
ATOM     30  C   LIG    1       -1.291  -1.942  -1.030  0.00  0.00    +0.030 C 
ENDBRANCH  22  28
ENDBRANCH  16  18
ENDBRANCH   1  16
TORSDOF 6
