REMARK  Name = ZINCkj000005lcxQ.0
REMARK                            x       y       z     vdW  Elec       q    Type
REMARK                         _______ _______ _______ _____ _____    ______ ____
ROOT
ATOM      1  C   LIG    1        1.526  -0.678   0.613  0.00  0.00    +0.130 A 
ATOM      2  N   LIG    1        0.259  -0.662   0.257  0.00  0.00    -0.270 NA
ATOM      3  N   LIG    1       -0.011   0.577  -0.338  0.00  0.00    -0.460 N 
ATOM      4  H   LIG    1       -0.867   0.863  -0.694  0.00  0.00    +0.450 HD
ATOM      5  C   LIG    1        1.127   1.304  -0.330  0.00  0.00    +0.250 A 
ATOM      6  C   LIG    1        2.094   0.559   0.250  0.00  0.00    -0.230 A 
ENDROOT
BRANCH   1  11
ATOM      7  C   LIG    1        2.283  -3.549   2.935  0.00  0.00    -0.020 A 
ATOM      8  C   LIG    1        3.570  -3.898   2.517  0.00  0.00    +0.080 A 
ATOM      9  C   LIG    1        4.177  -3.201   1.492  0.00  0.00    +0.020 A 
ATOM     10  C   LIG    1        3.517  -2.158   0.873  0.00  0.00    +0.060 A 
ATOM     11  C   LIG    1        2.232  -1.800   1.280  0.00  0.00    -0.010 A 
ATOM     12  C   LIG    1        1.616  -2.493   2.316  0.00  0.00    +0.080 A 
BRANCH   7  14
ATOM     13  N   LIG    1        1.155  -4.843   4.845  0.00  0.00    -0.400 NA
ATOM     14  C   LIG    1        1.654  -4.271   4.000  0.00  0.00    +0.240 C 
ENDBRANCH   7  14
ENDBRANCH   1  11
BRANCH   6  15
ATOM     15  C   LIG    1        3.525   0.977   0.469  0.00  0.00    +0.290 C 
BRANCH  15  16
ATOM     16  N   LIG    1        3.736   1.274   1.892  0.00  0.00    -0.530 NA
ATOM     17  C   LIG    1        3.072   2.529   2.273  0.00  0.00    +0.210 C 
ATOM     18  C   LIG    1        3.265   2.770   3.772  0.00  0.00    +0.280 C 
ATOM     19  N   LIG    1        4.700   2.844   4.075  0.00  0.00    -0.510 N 
ATOM     20  C   LIG    1        5.345   1.575   3.712  0.00  0.00    +0.280 C 
ATOM     21  H   LIG    1        5.117   3.596   3.546  0.00  0.00    +0.430 HD
ATOM     22  H   LIG    1        4.827   3.015   5.061  0.00  0.00    +0.430 HD
ATOM     23  C   LIG    1        5.169   1.323   2.213  0.00  0.00    +0.200 C 
ENDBRANCH  15  16
ENDBRANCH   6  15
TORSDOF 4
