REMARK  Name = ZINCvU0000000EZz.0
REMARK                            x       y       z     vdW  Elec       q    Type
REMARK                         _______ _______ _______ _____ _____    ______ ____
ROOT
ATOM      1  C   LIG    1        3.459   3.133  -2.121  0.00  0.00    +0.140 A 
ATOM      2  N   LIG    1        3.466   3.859  -1.027  0.00  0.00    -0.280 NA
ATOM      3  N   LIG    1        4.437   4.699  -1.061  0.00  0.00    -0.270 NA
ATOM      4  C   LIG    1        5.111   4.562  -2.180  0.00  0.00    +0.280 A 
ATOM      5  N   LIG    1        4.509   3.550  -2.891  0.00  0.00    -0.430 N 
ENDROOT
BRANCH   4   6
ATOM      6  C   LIG    1        6.295   5.343  -2.592  0.00  0.00    -0.110 A 
ATOM      7  C   LIG    1        6.964   5.239  -3.769  0.00  0.00    +0.260 A 
ATOM      8  N   LIG    1        8.003   6.124  -3.787  0.00  0.00    -0.580 N 
ATOM      9  H   LIG    1        8.625   6.235  -4.524  0.00  0.00    +0.420 HD
ATOM     10  C   LIG    1        8.041   6.838  -2.609  0.00  0.00    +0.100 A 
ATOM     11  C   LIG    1        8.880   7.838  -2.128  0.00  0.00    -0.010 A 
ATOM     12  C   LIG    1        8.663   8.374  -0.877  0.00  0.00    +0.040 A 
ATOM     13  C   LIG    1        7.614   7.926  -0.088  0.00  0.00    -0.010 A 
ATOM     14  C   LIG    1        6.772   6.937  -0.545  0.00  0.00    +0.080 A 
ATOM     15  C   LIG    1        6.976   6.389  -1.811  0.00  0.00    -0.070 A 
ENDBRANCH   4   6
BRANCH   5  16
ATOM     16  C   LIG    1        4.908   3.031  -4.202  0.00  0.00    +0.190 C 
ATOM     17  C   LIG    1        3.889   2.182  -4.965  0.00  0.00    +0.070 C 
ATOM     18  C   LIG    1        5.115   1.521  -4.330  0.00  0.00    +0.060 C 
ENDBRANCH   5  16
BRANCH   1  19
ATOM     19  S   LIG    1        2.314   1.854  -2.519  0.00  0.00    +0.090 S 
BRANCH  19  21
ATOM     20  C   LIG    1        2.092   1.484   0.178  0.00  0.00    +0.090 C 
ATOM     21  C   LIG    1        1.268   1.897  -1.043  0.00  0.00    +0.010 C 
BRANCH  21  22
ATOM     22  C   LIG    1        0.115   0.943  -1.216  0.00  0.00    +0.540 C 
ATOM     23  N   LIG    1       -1.034   1.144  -0.541  0.00  0.00    -0.670 N 
ATOM     24  H   LIG    1       -1.091   1.853   0.119  0.00  0.00    +0.420 HD
ATOM     25  O   LIG    1        0.218  -0.004  -1.968  0.00  0.00    -0.490 OA
BRANCH  23  26
ATOM     26  C   LIG    1       -2.147   0.330  -0.792  0.00  0.00    +0.070 A 
ATOM     27  C   LIG    1       -3.398   0.901  -0.990  0.00  0.00    +0.120 A 
ATOM     28  C   LIG    1       -4.493   0.095  -1.243  0.00  0.00    +0.000 A 
ATOM     29  C   LIG    1       -4.346  -1.280  -1.287  0.00  0.00    +0.090 A 
ATOM     30  C   LIG    1       -3.104  -1.852  -1.085  0.00  0.00    +0.000 A 
ATOM     31  F   LIG    1       -3.544   2.244  -0.940  0.00  0.00    -0.130 F 
ATOM     32  C   LIG    1       -2.003  -1.052  -0.837  0.00  0.00    +0.140 A 
ATOM     33  F   LIG    1       -0.790  -1.612  -0.639  0.00  0.00    -0.110 F 
ENDBRANCH  23  26
ENDBRANCH  21  22
ENDBRANCH  19  21
ENDBRANCH   1  19
TORSDOF 6
