REMARK  Name = ZINCrD000006QntW.0
REMARK                            x       y       z     vdW  Elec       q    Type
REMARK                         _______ _______ _______ _____ _____    ______ ____
ROOT
ATOM      1  C   LIG    1       -0.180   4.176   1.984  0.00  0.00    +0.520 C 
ATOM      2  N   LIG    1        1.031   4.072   1.402  0.00  0.00    -0.610 N 
ATOM      3  C   LIG    1        2.237   4.435   2.150  0.00  0.00    +0.290 C 
ATOM      4  O   LIG    1       -1.184   3.963   1.338  0.00  0.00    -0.540 OA
ENDROOT
BRANCH   1   5
ATOM      5  C   LIG    1       -0.286   4.556   3.439  0.00  0.00    +0.070 C 
BRANCH   5   6
ATOM      6  C   LIG    1       -1.760   4.604   3.847  0.00  0.00    +0.120 C 
BRANCH   6   9
ATOM      7  C   LIG    1       -2.063   6.668   6.999  0.00  0.00    +0.170 A 
ATOM      8  C   LIG    1       -1.964   6.315   5.660  0.00  0.00    -0.050 A 
ATOM      9  C   LIG    1       -1.867   4.984   5.301  0.00  0.00    -0.010 A 
ATOM     10  C   LIG    1       -1.873   4.002   6.273  0.00  0.00    -0.050 A 
ATOM     11  C   LIG    1       -1.966   4.350   7.613  0.00  0.00    +0.170 A 
ATOM     12  C   LIG    1       -2.064   5.684   7.976  0.00  0.00    -0.170 A 
BRANCH   7  14
ATOM     13  C   LIG    1       -2.258   8.267   8.747  0.00  0.00    +0.250 C 
ATOM     14  O   LIG    1       -2.159   7.977   7.352  0.00  0.00    -0.310 OA
ENDBRANCH   7  14
BRANCH  11  15
ATOM     15  O   LIG    1       -1.967   3.383   8.568  0.00  0.00    -0.310 OA
ATOM     16  C   LIG    1       -2.072   3.814   9.927  0.00  0.00    +0.250 C 
ENDBRANCH  11  15
ENDBRANCH   6   9
ENDBRANCH   5   6
ENDBRANCH   1   5
BRANCH   2  17
ATOM     17  C   LIG    1        1.141   3.596   0.021  0.00  0.00    +0.340 C 
BRANCH  17  18
ATOM     18  C   LIG    1        1.198   2.090   0.012  0.00  0.00    -0.090 A 
ATOM     19  C   LIG    1        0.060   1.357  -0.271  0.00  0.00    +0.010 A 
ATOM     20  C   LIG    1        0.109  -0.024  -0.280  0.00  0.00    +0.040 A 
ATOM     21  C   LIG    1        1.295  -0.679  -0.007  0.00  0.00    -0.060 A 
ATOM     22  C   LIG    1        2.439   0.049   0.277  0.00  0.00    +0.100 A 
ATOM     23  C   LIG    1        2.390   1.440   0.286  0.00  0.00    +0.080 A 
BRANCH  22  24
ATOM     24  O   LIG    1        3.607  -0.594   0.545  0.00  0.00    -0.310 OA
ATOM     25  C   LIG    1        3.583  -2.022   0.517  0.00  0.00    +0.240 C 
ENDBRANCH  22  24
BRANCH  23  26
ATOM     26  O   LIG    1        3.509   2.159   0.570  0.00  0.00    -0.320 OA
ATOM     27  C   LIG    1        4.403   2.422  -0.514  0.00  0.00    +0.210 C 
ENDBRANCH  23  26
ENDBRANCH  17  18
ENDBRANCH   2  17
TORSDOF 9
