REMARK  Name = ZINC650000002Apy.0
REMARK                            x       y       z     vdW  Elec       q    Type
REMARK                         _______ _______ _______ _____ _____    ______ ____
ROOT
ATOM      1  C   LIG    1       -0.791   3.857   1.335  0.00  0.00    -0.170 C 
ATOM      2  S   LIG    1       -0.867   2.053   1.503  0.00  0.00    +1.280 S 
ATOM      3  O   LIG    1       -0.134   1.653   2.652  0.00  0.00    -0.830 OA
ENDROOT
BRANCH   2   4
ATOM      4  C   LIG    1       -0.018   1.468   0.010  0.00  0.00    -0.080 C 
BRANCH   4   5
ATOM      5  C   LIG    1        0.002  -0.004   0.002  0.00  0.00    +0.210 C 
ATOM      6  N   LIG    1        0.018  -1.140  -0.004  0.00  0.00    -0.410 NA
ENDBRANCH   4   5
ENDBRANCH   2   4
TORSDOF 2
