REMARK  Name = ZINCrD00000l21JN.0
REMARK                            x       y       z     vdW  Elec       q    Type
REMARK                         _______ _______ _______ _____ _____    ______ ____
ROOT
ATOM      1  S   LIG    1       -4.500  -2.492  -1.335  0.00  0.00    +0.030 S 
ENDROOT
BRANCH   1   3
ATOM      2  N   LIG    1       -1.992  -1.313  -0.943  0.00  0.00    -0.300 N 
ATOM      3  C   LIG    1       -3.269  -1.536  -0.513  0.00  0.00    +0.110 A 
ATOM      4  N   LIG    1       -3.408  -0.899   0.626  0.00  0.00    -0.270 NA
ATOM      5  N   LIG    1       -2.309  -0.305   0.931  0.00  0.00    -0.270 NA
ATOM      6  C   LIG    1       -1.412  -0.526   0.013  0.00  0.00    +0.230 A 
BRANCH   6   7
ATOM      7  C   LIG    1        0.002  -0.004   0.002  0.00  0.00    +0.100 C 
ATOM      8  C   LIG    1       -0.019   1.526   0.010  0.00  0.00    +0.030 C 
ATOM      9  C   LIG    1        1.417   2.055  -0.000  0.00  0.00    +0.010 C 
ATOM     10  C   LIG    1        2.157   1.548   1.239  0.00  0.00    +0.010 C 
ATOM     11  C   LIG    1        2.178   0.019   1.231  0.00  0.00    +0.010 C 
ATOM     12  C   LIG    1        0.742  -0.511   1.242  0.00  0.00    +0.030 C 
ENDBRANCH   6   7
BRANCH   2  13
ATOM     13  N   LIG    1       -1.414  -1.782  -2.088  0.00  0.00    -0.580 N 
ATOM     14  H   LIG    1       -2.088  -1.838  -2.837  0.00  0.00    +0.380 HD
ATOM     15  H   LIG    1       -0.974  -2.676  -1.931  0.00  0.00    +0.370 HD
ENDBRANCH   2  13
ENDBRANCH   1   3
BRANCH   1  16
ATOM     16  C   LIG    1       -5.874  -2.302  -0.173  0.00  0.00    +0.230 C 
BRANCH  16  17
ATOM     17  C   LIG    1       -7.072  -3.059  -0.684  0.00  0.00    +0.290 A 
ATOM     18  N   LIG    1       -7.993  -2.562  -1.458  0.00  0.00    -0.460 NA
ATOM     19  C   LIG    1       -8.924  -3.513  -1.730  0.00  0.00    +0.050 A 
ATOM     20  C   LIG    1      -10.095  -3.524  -2.491  0.00  0.00    +0.100 A 
ATOM     21  C   LIG    1      -10.845  -4.664  -2.570  0.00  0.00    +0.020 A 
ATOM     22  C   LIG    1      -10.454  -5.816  -1.901  0.00  0.00    -0.010 A 
ATOM     23  C   LIG    1       -9.301  -5.827  -1.144  0.00  0.00    +0.040 A 
ATOM     24 CL   LIG    1      -11.424  -7.251  -2.017  0.00  0.00    -0.060 Cl
ATOM     25  C   LIG    1       -8.528  -4.678  -1.052  0.00  0.00    +0.070 A 
ATOM     26  N   LIG    1       -7.353  -4.359  -0.400  0.00  0.00    -0.470 N 
BRANCH  26  27
ATOM     27  C   LIG    1       -6.557  -5.255   0.442  0.00  0.00    +0.320 C 
BRANCH  27  28
ATOM     28  C   LIG    1       -7.034  -5.152   1.892  0.00  0.00    +0.180 C 
BRANCH  28  29
ATOM     29  O   LIG    1       -6.257  -6.026   2.713  0.00  0.00    -0.570 OA
ATOM     30  H   LIG    1       -6.506  -6.012   3.648  0.00  0.00    +0.390 HD
ENDBRANCH  28  29
ENDBRANCH  27  28
ENDBRANCH  26  27
ENDBRANCH  16  17
ENDBRANCH   1  16
TORSDOF 8
