REMARK  Name = ZINCb80000001yec.0
REMARK                            x       y       z     vdW  Elec       q    Type
REMARK                         _______ _______ _______ _____ _____    ______ ____
ROOT
ATOM      1  N   LIG    1        1.415   2.018  -0.189  0.00  0.00    -0.530 NA
ATOM      2  C   LIG    1        0.084   1.458  -0.451  0.00  0.00    +0.190 C 
ATOM      3  C   LIG    1        0.199  -0.058  -0.646  0.00  0.00    +0.030 C 
ATOM      4  C   LIG    1        0.916  -0.638   0.554  0.00  0.00    +0.360 C 
ATOM      5  C   LIG    1        2.206   0.024   0.994  0.00  0.00    +0.040 C 
ATOM      6  O   LIG    1        0.474  -1.595   1.143  0.00  0.00    -0.460 OA
ATOM      7  C   LIG    1        1.963   1.535   1.085  0.00  0.00    +0.180 C 
ENDROOT
BRANCH   1   8
ATOM      8  C   LIG    1        1.385   3.487  -0.225  0.00  0.00    +0.200 C 
BRANCH   8   9
ATOM      9  C   LIG    1        2.767   4.034   0.137  0.00  0.00    +0.170 C 
BRANCH   9  11
ATOM     10  C   LIG    1        5.054   4.048  -0.581  0.00  0.00    +0.200 C 
ATOM     11  O   LIG    1        3.723   3.589  -0.827  0.00  0.00    -0.370 OA
ENDBRANCH   9  11
ENDBRANCH   8   9
ENDBRANCH   1   8
TORSDOF 3
