REMARK  Name = ZINCpk00000e9Fn4.0
REMARK                            x       y       z     vdW  Elec       q    Type
REMARK                         _______ _______ _______ _____ _____    ______ ____
ROOT
ATOM      1  C   LIG    1       -0.014   1.209   0.009  0.00  0.00    +0.550 C 
ATOM      2  N   LIG    1        1.036   1.818  -0.583  0.00  0.00    -0.630 N 
ATOM      3  C   LIG    1        2.413   1.248  -0.490  0.00  0.00    +0.290 C 
ATOM      4  C   LIG    1        2.721   0.383  -1.593  0.00  0.00    +0.070 C 
ATOM      5  C   LIG    1        2.751   1.028  -2.976  0.00  0.00    -0.540 C 
ATOM      6  S   LIG    1        1.061   1.321  -3.465  0.00  0.00    +2.420 S 
ATOM      7  C   LIG    1        0.630   2.970  -2.819  0.00  0.00    -0.340 C 
ATOM      8  O   LIG    1        0.233   0.351  -2.837  0.00  0.00    -0.930 OA
ATOM      9  O   LIG    1        1.030   1.390  -4.891  0.00  0.00    -0.940 OA
ATOM     10  C   LIG    1        3.400   0.046  -3.969  0.00  0.00    +0.100 C 
ATOM     11  C   LIG    1        3.555   2.326  -2.975  0.00  0.00    +0.100 C 
ATOM     12  C   LIG    1        0.881   3.046  -1.283  0.00  0.00    +0.310 C 
ATOM     13  O   LIG    1        0.135   0.134   0.551  0.00  0.00    -0.510 OA
ENDROOT
BRANCH   1  18
ATOM     14  C   LIG    1       -2.479   0.809   0.199  0.00  0.00    +0.280 C 
ATOM     15  O   LIG    1       -3.209   1.186   1.378  0.00  0.00    -0.350 OA
ATOM     16  C   LIG    1       -2.305   1.945   2.209  0.00  0.00    +0.220 C 
ATOM     17  C   LIG    1       -1.530   2.822   1.193  0.00  0.00    +0.050 C 
ATOM     18  C   LIG    1       -1.373   1.861  -0.011  0.00  0.00    -0.030 C 
BRANCH  14  23
ATOM     19  N   LIG    1       -3.425  -0.152  -1.957  0.00  0.00    -0.440 N 
ATOM     20  C   LIG    1       -4.405   0.200  -2.846  0.00  0.00    +0.130 A 
ATOM     21  C   LIG    1       -4.940   1.352  -2.398  0.00  0.00    +0.140 A 
ATOM     22  N   LIG    1       -4.309   1.691  -1.264  0.00  0.00    -0.470 NA
ATOM     23  C   LIG    1       -3.403   0.792  -0.992  0.00  0.00    +0.190 A 
BRANCH  19  25
ATOM     24  C   LIG    1       -3.172  -2.464  -1.199  0.00  0.00    +0.030 C 
ATOM     25  C   LIG    1       -2.565  -1.336  -2.036  0.00  0.00    +0.290 C 
ENDBRANCH  19  25
ENDBRANCH  14  23
ENDBRANCH   1  18
TORSDOF 3
