REMARK  Name = ZINCrH000004p0o6.1
REMARK                            x       y       z     vdW  Elec       q    Type
REMARK                         _______ _______ _______ _____ _____    ______ ____
ROOT
ATOM      1  C   LIG    1       -4.860   1.995  -1.157  0.00  0.00    +0.070 C 
ATOM      2  C   LIG    1       -4.272   1.269   0.054  0.00  0.00    +0.130 C 
ENDROOT
BRANCH   2   3
ATOM      3  C   LIG    1       -4.976   1.727   1.306  0.00  0.00    +0.520 C 
ATOM      4  N   LIG    1       -6.101   1.105   1.712  0.00  0.00    -0.560 N 
ATOM      5  C   LIG    1       -6.724   0.069   0.878  0.00  0.00    +0.270 C 
ATOM      6  C   LIG    1       -8.233   0.325   0.854  0.00  0.00    +0.020 C 
ATOM      7  C   LIG    1       -8.784   0.182   2.273  0.00  0.00    +0.080 C 
ATOM      8  C   LIG    1       -7.984   1.021   3.236  0.00  0.00    -0.120 A 
ATOM      9  C   LIG    1       -8.552   1.372   4.449  0.00  0.00    +0.020 A 
ATOM     10  C   LIG    1       -7.840   2.132   5.357  0.00  0.00    -0.020 A 
ATOM     11  C   LIG    1       -6.556   2.548   5.059  0.00  0.00    +0.020 A 
ATOM     12  C   LIG    1       -5.984   2.204   3.850  0.00  0.00    +0.010 A 
ATOM     13  C   LIG    1       -6.698   1.441   2.935  0.00  0.00    +0.150 A 
ATOM     14  O   LIG    1       -4.531   2.655   1.947  0.00  0.00    -0.490 OA
ENDBRANCH   2   3
BRANCH   2  15
ATOM     15  N   LIG    1       -2.839   1.574   0.160  0.00  0.00    -0.510 NA
ATOM     16  C   LIG    1       -2.136   1.235  -1.084  0.00  0.00    +0.160 C 
ATOM     17  C   LIG    1       -0.680   1.698  -0.992  0.00  0.00    +0.040 C 
ATOM     18  C   LIG    1       -0.006   1.012   0.200  0.00  0.00    -0.010 C 
ATOM     19  C   LIG    1       -0.784   1.342   1.477  0.00  0.00    +0.040 C 
ATOM     20  C   LIG    1       -2.239   0.889   1.312  0.00  0.00    +0.160 C 
BRANCH  18  21
ATOM     21  C   LIG    1        1.432   1.516   0.333  0.00  0.00    +0.090 C 
BRANCH  21  22
ATOM     22  C   LIG    1        2.131   0.755   1.430  0.00  0.00    -0.130 A 
ATOM     23  C   LIG    1        2.102   1.220   2.736  0.00  0.00    +0.060 A 
ATOM     24  C   LIG    1        2.754   0.483   3.713  0.00  0.00    -0.040 A 
ATOM     25  C   LIG    1        3.418  -0.674   3.353  0.00  0.00    +0.240 A 
ATOM     26  N   LIG    1        3.429  -1.084   2.100  0.00  0.00    -0.480 NA
ATOM     27  C   LIG    1        2.815  -0.412   1.145  0.00  0.00    +0.250 A 
ENDBRANCH  21  22
ENDBRANCH  18  21
ENDBRANCH   2  15
TORSDOF 4
