REMARK  Name = ZINCrg000000mQG2.0
REMARK                            x       y       z     vdW  Elec       q    Type
REMARK                         _______ _______ _______ _____ _____    ______ ____
ROOT
ATOM      1  C   LIG    1       -0.966   6.318   1.983  0.00  0.00    -0.150 A 
ATOM      2  C   LIG    1       -2.179   5.662   1.769  0.00  0.00    +0.100 A 
ATOM      3  C   LIG    1       -3.365   6.355   1.891  0.00  0.00    +0.010 A 
ATOM      4  C   LIG    1       -3.354   7.700   2.214  0.00  0.00    +0.150 A 
ATOM      5  C   LIG    1       -2.155   8.358   2.423  0.00  0.00    -0.680 A 
ATOM      6  C   LIG    1       -0.961   7.676   2.309  0.00  0.00    +0.190 A 
ENDROOT
BRANCH   1  14
ATOM      7  C   LIG    1        2.064   0.086   3.982  0.00  0.00    +0.100 C 
ATOM      8  C   LIG    1        0.792   0.863   4.205  0.00  0.00    +0.510 C 
ATOM      9  N   LIG    1        0.737   2.171   3.886  0.00  0.00    -0.620 N 
ATOM     10  C   LIG    1        1.938   2.880   3.423  0.00  0.00    +0.280 C 
ATOM     11  C   LIG    1        1.627   3.527   2.063  0.00  0.00    +0.290 C 
ATOM     12  N   LIG    1        0.365   4.272   2.178  0.00  0.00    -0.610 N 
ATOM     13  C   LIG    1       -0.835   3.565   2.646  0.00  0.00    +0.260 C 
ATOM     14  C   LIG    1        0.310   5.580   1.859  0.00  0.00    +0.560 C 
ATOM     15  O   LIG    1        1.308   6.154   1.469  0.00  0.00    -0.520 OA
ATOM     16  C   LIG    1       -0.525   2.916   4.001  0.00  0.00    +0.280 C 
ATOM     17  O   LIG    1       -0.181   0.311   4.673  0.00  0.00    -0.540 OA
ENDBRANCH   1  14
BRANCH   5  18
ATOM     18  S   LIG    1       -2.151  10.071   2.834  0.00  0.00    +2.700 S 
ATOM     19  O   LIG    1       -0.924  10.320   3.506  0.00  0.00    -0.950 OA
ATOM     20  O   LIG    1       -3.422  10.349   3.408  0.00  0.00    -0.950 OA
BRANCH  18  21
ATOM     21  N   LIG    1       -2.086  10.917   1.412  0.00  0.00    -1.110 NA
ATOM     22  H   LIG    1       -1.310  11.461   1.206  0.00  0.00    +0.420 HD
BRANCH  21  23
ATOM     23  C   LIG    1       -3.200  10.843   0.464  0.00  0.00    +0.400 C 
BRANCH  23  24
ATOM     24  C   LIG    1       -3.076  11.955  -0.546  0.00  0.00    -0.040 A 
ATOM     25  C   LIG    1       -2.419  11.884  -1.718  0.00  0.00    -0.030 A 
ATOM     26  C   LIG    1       -2.558  13.145  -2.342  0.00  0.00    -0.070 A 
ATOM     27  C   LIG    1       -3.291  13.911  -1.514  0.00  0.00    +0.190 A 
ATOM     28  O   LIG    1       -3.607  13.183  -0.431  0.00  0.00    -0.170 OA
ENDBRANCH  23  24
ENDBRANCH  21  23
ENDBRANCH  18  21
ENDBRANCH   5  18
TORSDOF 5
