REMARK  Name = ZINCvU0000000EcK.0
REMARK                            x       y       z     vdW  Elec       q    Type
REMARK                         _______ _______ _______ _____ _____    ______ ____
ROOT
ATOM      1  C   LIG    1        1.355   3.173   1.122  0.00  0.00    +0.040 C 
ATOM      2  C   LIG    1        1.303   2.514  -0.052  0.00  0.00    -0.010 C 
ENDROOT
BRANCH   1   7
ATOM      3  C   LIG    1       -0.516   5.898   2.903  0.00  0.00    +0.140 A 
ATOM      4  C   LIG    1       -1.368   6.337   1.898  0.00  0.00    -0.070 A 
ATOM      5  C   LIG    1       -1.333   5.748   0.647  0.00  0.00    +0.060 A 
ATOM      6  C   LIG    1       -0.448   4.723   0.387  0.00  0.00    -0.020 A 
ATOM      7  C   LIG    1        0.412   4.270   1.394  0.00  0.00    -0.020 A 
ATOM      8  C   LIG    1        0.374   4.867   2.657  0.00  0.00    +0.010 A 
BRANCH   3   9
ATOM      9  O   LIG    1       -0.556   6.482   4.130  0.00  0.00    -0.310 OA
BRANCH   9  10
ATOM     10  C   LIG    1       -1.499   7.540   4.314  0.00  0.00    +0.320 C 
BRANCH  10  14
ATOM     11  C   LIG    1       -2.742  10.499   8.099  0.00  0.00    +0.180 C 
ATOM     12  C   LIG    1       -1.978   9.402   7.404  0.00  0.00    +0.050 A 
ATOM     13  N   LIG    1       -2.154   9.042   6.178  0.00  0.00    -0.470 NA
ATOM     14  C   LIG    1       -1.399   8.061   5.725  0.00  0.00    +0.060 A 
ATOM     15  C   LIG    1       -0.542   7.562   6.621  0.00  0.00    -0.050 A 
ATOM     16  S   LIG    1       -0.753   8.452   8.127  0.00  0.00    +0.130 S 
ENDBRANCH  10  14
ENDBRANCH   9  10
ENDBRANCH   3   9
ENDBRANCH   1   7
BRANCH   2  17
ATOM     17  C   LIG    1        2.295   1.481  -0.357  0.00  0.00    +0.580 C 
ATOM     18  N   LIG    1        3.538   1.833  -0.741  0.00  0.00    -0.610 N 
ATOM     19  O   LIG    1        1.998   0.305  -0.264  0.00  0.00    -0.500 OA
BRANCH  18  20
ATOM     20  C   LIG    1        3.728   2.936  -1.687  0.00  0.00    +0.300 C 
ATOM     21  C   LIG    1        3.292   4.271  -1.048  0.00  0.00    +0.040 C 
ATOM     22  C   LIG    1        1.815   4.381  -1.492  0.00  0.00    +0.070 C 
ATOM     23  C   LIG    1        1.727   3.587  -2.778  0.00  0.00    -0.080 A 
ATOM     24  C   LIG    1        0.762   3.591  -3.771  0.00  0.00    +0.000 A 
ATOM     25  C   LIG    1        0.894   2.768  -4.872  0.00  0.00    +0.020 A 
ATOM     26  C   LIG    1        1.993   1.937  -4.984  0.00  0.00    +0.010 A 
ATOM     27  C   LIG    1        2.957   1.932  -3.994  0.00  0.00    +0.040 A 
ATOM     28  C   LIG    1        2.826   2.756  -2.890  0.00  0.00    -0.130 A 
ENDBRANCH  18  20
BRANCH  18  29
ATOM     29  C   LIG    1        4.700   1.114  -0.212  0.00  0.00    +0.210 C 
ATOM     30  C   LIG    1        4.552  -0.391   0.021  0.00  0.00    +0.020 C 
ATOM     31  C   LIG    1        4.603   0.568   1.214  0.00  0.00    +0.000 C 
ENDBRANCH  18  29
ENDBRANCH   2  17
TORSDOF 7
