REMARK  Name = ZINCrD0000073rJR.0
REMARK                            x       y       z     vdW  Elec       q    Type
REMARK                         _______ _______ _______ _____ _____    ______ ____
ROOT
ATOM      1  N   LIG    1       -0.819  -0.239   2.521  0.00  0.00    -0.610 N 
ATOM      2  C   LIG    1       -0.026   0.307   3.464  0.00  0.00    +0.530 C 
ATOM      3  O   LIG    1       -0.511   0.737   4.489  0.00  0.00    -0.530 OA
ATOM      4  C   LIG    1       -0.233  -0.758   1.282  0.00  0.00    +0.280 C 
ENDROOT
BRANCH   2   5
ATOM      5  C   LIG    1        1.463   0.384   3.244  0.00  0.00    -0.020 C 
ATOM      6  C   LIG    1        2.026  -1.027   3.061  0.00  0.00    +0.030 C 
ATOM      7  C   LIG    1        3.533  -0.948   2.806  0.00  0.00    +0.010 C 
ATOM      8  C   LIG    1        4.219  -0.307   4.016  0.00  0.00    +0.260 C 
ATOM      9  N   LIG    1        3.584   0.990   4.288  0.00  0.00    -0.610 N 
ATOM     10  C   LIG    1        4.325   2.111   4.378  0.00  0.00    +0.530 C 
ATOM     11  O   LIG    1        3.782   3.189   4.497  0.00  0.00    -0.530 OA
ATOM     12  C   LIG    1        2.126   1.040   4.460  0.00  0.00    +0.310 C 
BRANCH  10  13
ATOM     13  C   LIG    1        5.829   2.027   4.330  0.00  0.00    -0.090 C 
ATOM     14  C   LIG    1        6.271   1.583   2.934  0.00  0.00    +0.050 C 
ATOM     15  C   LIG    1        6.316   1.012   5.366  0.00  0.00    +0.040 C 
ATOM     16  C   LIG    1        6.427   3.400   4.641  0.00  0.00    +0.050 C 
ENDBRANCH  10  13
ENDBRANCH   2   5
BRANCH   1  17
ATOM     17  C   LIG    1       -2.266  -0.314   2.734  0.00  0.00    +0.240 C 
ATOM     18  C   LIG    1       -2.985   0.464   1.630  0.00  0.00    +0.030 C 
BRANCH  17  19
ATOM     19  C   LIG    1       -2.712  -1.777   2.699  0.00  0.00    +0.060 C 
BRANCH  19  23
ATOM     20  C   LIG    1       -0.974  -3.874   5.992  0.00  0.00    +0.120 A 
ATOM     21  C   LIG    1       -2.210  -3.259   6.134  0.00  0.00    -0.020 A 
ATOM     22  C   LIG    1       -2.769  -2.582   5.068  0.00  0.00    +0.060 A 
ATOM     23  C   LIG    1       -2.099  -2.517   3.861  0.00  0.00    -0.110 A 
ATOM     24  C   LIG    1       -0.871  -3.134   3.715  0.00  0.00    +0.050 A 
ATOM     25  C   LIG    1       -0.304  -3.807   4.780  0.00  0.00    -0.090 A 
BRANCH  20  27
ATOM     26  C   LIG    1        0.853  -5.150   6.822  0.00  0.00    +0.230 C 
ATOM     27  O   LIG    1       -0.422  -4.540   7.040  0.00  0.00    -0.320 OA
ENDBRANCH  20  27
ENDBRANCH  19  23
ENDBRANCH  17  19
ENDBRANCH   1  17
TORSDOF 6
