REMARK  Name = ZINCtV00001bB3K0.0
REMARK                            x       y       z     vdW  Elec       q    Type
REMARK                         _______ _______ _______ _____ _____    ______ ____
ROOT
ATOM      1  C   LIG    1        4.749  -2.699   0.155  0.00  0.00    -0.130 A 
ATOM      2  C   LIG    1        4.722  -4.076   0.255  0.00  0.00    +0.080 A 
ATOM      3  C   LIG    1        3.513  -4.747   0.261  0.00  0.00    -0.010 A 
ATOM      4  C   LIG    1        2.327  -4.040   0.168  0.00  0.00    +0.010 A 
ATOM      5  C   LIG    1        2.349  -2.661   0.073  0.00  0.00    -0.060 A 
ATOM      6 CL   LIG    1        0.811  -4.886   0.177  0.00  0.00    -0.060 Cl
ATOM      7  C   LIG    1        3.561  -1.987   0.061  0.00  0.00    +0.150 A 
ENDROOT
BRANCH   1   8
ATOM      8  C   LIG    1        6.068  -1.969   0.148  0.00  0.00    +0.350 C 
BRANCH   8   9
ATOM      9  N   LIG    1        6.331  -1.425   1.483  0.00  0.00    -0.600 N 
ATOM     10  C   LIG    1        5.904  -0.187   1.802  0.00  0.00    +0.540 C 
ATOM     11  O   LIG    1        5.301   0.478   0.983  0.00  0.00    -0.510 OA
BRANCH  10  12
ATOM     12  C   LIG    1        6.169   0.359   3.142  0.00  0.00    -0.090 C 
ATOM     13  C   LIG    1        5.748   1.581   3.458  0.00  0.00    +0.120 C 
ENDBRANCH  10  12
BRANCH   9  14
ATOM     14  C   LIG    1        7.059  -2.227   2.470  0.00  0.00    +0.280 C 
BRANCH  14  15
ATOM     15  C   LIG    1        8.559  -1.954   2.343  0.00  0.00    -0.080 C 
ATOM     16  C   LIG    1        8.830  -0.469   2.591  0.00  0.00    +0.030 C 
ATOM     17  C   LIG    1        9.028  -2.330   0.936  0.00  0.00    +0.030 C 
BRANCH  15  18
ATOM     18  C   LIG    1        9.319  -2.791   3.374  0.00  0.00    +0.180 C 
BRANCH  18  20
ATOM     19  C   LIG    1       11.913  -2.320   3.153  0.00  0.00    +0.000 C 
ATOM     20  C   LIG    1       10.762  -2.529   3.251  0.00  0.00    -0.180 C 
ENDBRANCH  18  20
ENDBRANCH  15  18
ENDBRANCH  14  15
ENDBRANCH   9  14
ENDBRANCH   8   9
ENDBRANCH   1   8
BRANCH   7  21
ATOM     21  O   LIG    1        3.586  -0.632  -0.036  0.00  0.00    -0.210 OA
BRANCH  21  22
ATOM     22  C   LIG    1        2.401   0.032   0.010  0.00  0.00    +0.090 A 
ATOM     23  C   LIG    1        1.664   0.058   1.185  0.00  0.00    +0.010 A 
ATOM     24  C   LIG    1        0.461   0.734   1.230  0.00  0.00    +0.010 A 
ATOM     25  C   LIG    1       -0.011   1.386   0.104  0.00  0.00    +0.090 A 
ATOM     26  C   LIG    1        0.723   1.361  -1.070  0.00  0.00    -0.100 A 
ATOM     27  C   LIG    1        0.208   2.071  -2.296  0.00  0.00    +0.110 C 
ATOM     28  F   LIG    1       -1.191   2.042   0.148  0.00  0.00    -0.130 F 
ATOM     29  C   LIG    1        1.927   0.686  -1.118  0.00  0.00    +0.040 A 
ENDBRANCH  21  22
ENDBRANCH   7  21
TORSDOF 9
