REMARK  Name = ZINCqH0000000skN.0
REMARK                            x       y       z     vdW  Elec       q    Type
REMARK                         _______ _______ _______ _____ _____    ______ ____
ROOT
ATOM      1  C   LIG    1       -5.427  -6.226   0.002  0.00  0.00    +0.130 A 
ATOM      2  C   LIG    1       -6.283  -5.203   0.181  0.00  0.00    -0.110 A 
ATOM      3  S   LIG    1       -5.367  -3.699   0.109  0.00  0.00    +0.210 S 
ATOM      4  C   LIG    1       -3.886  -4.613  -0.162  0.00  0.00    +0.270 A 
ATOM      5  N   LIG    1       -4.160  -5.880  -0.184  0.00  0.00    -0.500 NA
ENDROOT
BRANCH   1   9
ATOM      6  C   LIG    1       -6.700 -10.284   0.010  0.00  0.00    +0.150 A 
ATOM      7  C   LIG    1       -5.358  -9.979  -0.183  0.00  0.00    +0.020 A 
ATOM      8  C   LIG    1       -4.943  -8.664  -0.186  0.00  0.00    +0.080 A 
ATOM      9  C   LIG    1       -5.871  -7.641   0.004  0.00  0.00    -0.040 A 
ATOM     10  C   LIG    1       -7.215  -7.950   0.204  0.00  0.00    +0.050 A 
ATOM     11  C   LIG    1       -7.626  -9.267   0.201  0.00  0.00    -0.020 A 
BRANCH   6  14
ATOM     12  C   LIG    1       -6.704 -14.029   0.391  0.00  0.00    +0.110 C 
ATOM     13  C   LIG    1       -6.304 -12.580   0.495  0.00  0.00    +0.510 C 
ATOM     14  N   LIG    1       -7.118 -11.620   0.014  0.00  0.00    -0.680 N 
ATOM     15  H   LIG    1       -7.995 -11.854  -0.330  0.00  0.00    +0.410 HD
ATOM     16  O   LIG    1       -5.249 -12.278   1.012  0.00  0.00    -0.520 OA
ENDBRANCH   6  14
ENDBRANCH   1   9
BRANCH   4  17
ATOM     17  N   LIG    1       -2.622  -4.062  -0.331  0.00  0.00    -0.620 N 
ATOM     18  H   LIG    1       -1.857  -4.640  -0.477  0.00  0.00    +0.430 HD
ATOM     19  C   LIG    1       -2.459  -2.725  -0.294  0.00  0.00    +0.520 C 
ATOM     20  O   LIG    1       -3.416  -2.002  -0.112  0.00  0.00    -0.470 OA
BRANCH  19  21
ATOM     21  C   LIG    1       -1.088  -2.127  -0.478  0.00  0.00    +0.270 C 
BRANCH  21  22
ATOM     22  O   LIG    1       -1.175  -0.703  -0.398  0.00  0.00    -0.290 OA
BRANCH  22  23
ATOM     23  C   LIG    1       -0.018  -0.005  -0.544  0.00  0.00    +0.120 A 
ATOM     24  C   LIG    1       -0.029   1.380  -0.478  0.00  0.00    -0.010 A 
ATOM     25  C   LIG    1        1.149   2.087  -0.626  0.00  0.00    +0.050 A 
ATOM     26  C   LIG    1        2.338   1.415  -0.841  0.00  0.00    -0.020 A 
ATOM     27  C   LIG    1        2.351   0.034  -0.908  0.00  0.00    +0.050 A 
ATOM     28  C   LIG    1        1.176  -0.678  -0.760  0.00  0.00    -0.080 A 
ENDBRANCH  22  23
ENDBRANCH  21  22
ENDBRANCH  19  21
ENDBRANCH   4  17
TORSDOF 6
