REMARK  Name = ZINCpk000000o5Sx.0
REMARK                            x       y       z     vdW  Elec       q    Type
REMARK                         _______ _______ _______ _____ _____    ______ ____
ROOT
ATOM      1  C   LIG    1       -1.398   5.563   0.045  0.00  0.00    +0.030 C 
ATOM      2  C   LIG    1       -1.407   4.033   0.037  0.00  0.00    -0.020 C 
ATOM      3  C   LIG    1       -0.700   3.526  -1.222  0.00  0.00    +0.040 C 
ATOM      4  C   LIG    1       -0.720   1.995  -1.235  0.00  0.00    +0.060 C 
ATOM      5  C   LIG    1       -0.018   1.464   0.010  0.00  0.00    +0.140 C 
ATOM      6  N   LIG    1        0.002  -0.004   0.002  0.00  0.00    -0.710 N 
ATOM      7  H   LIG    1       -0.767  -0.596   0.006  0.00  0.00    +0.440 HD
ATOM      8  C   LIG    1        1.299  -0.367  -0.012  0.00  0.00    +0.710 C 
ATOM      9  N   LIG    1        2.124   0.687  -0.014  0.00  0.00    -0.380 N 
ATOM     10  O   LIG    1        1.677  -1.522  -0.021  0.00  0.00    -0.530 OA
ATOM     11  C   LIG    1       -0.696   1.982   1.274  0.00  0.00    +0.060 C 
ATOM     12  C   LIG    1        1.443   1.851  -0.002  0.00  0.00    +0.530 C 
ATOM     13  O   LIG    1        1.905   2.972  -0.000  0.00  0.00    -0.440 OA
ATOM     14  C   LIG    1       -0.676   3.512   1.277  0.00  0.00    +0.040 C 
ENDROOT
BRANCH   9  15
ATOM     15  N   LIG    1        3.522   0.592  -0.029  0.00  0.00    -0.510 N 
ATOM     16  H   LIG    1        4.029   0.772   0.778  0.00  0.00    +0.430 HD
ATOM     17  C   LIG    1        4.163   0.251  -1.165  0.00  0.00    +0.520 C 
ATOM     18  O   LIG    1        3.529   0.026  -2.174  0.00  0.00    -0.490 OA
BRANCH  17  19
ATOM     19  C   LIG    1        5.666   0.149  -1.180  0.00  0.00    +0.240 C 
BRANCH  19  20
ATOM     20  N   LIG    1        6.117  -0.234  -2.525  0.00  0.00    -0.520 NA
ATOM     21  C   LIG    1        7.576  -0.114  -2.645  0.00  0.00    +0.180 C 
ATOM     22  C   LIG    1        7.993  -0.379  -4.093  0.00  0.00    -0.010 C 
ATOM     23  C   LIG    1        7.543  -1.786  -4.499  0.00  0.00    +0.020 C 
ATOM     24  C   LIG    1        6.027  -1.900  -4.319  0.00  0.00    -0.010 C 
ATOM     25  C   LIG    1        5.577  -3.320  -4.665  0.00  0.00    +0.020 C 
ATOM     26  C   LIG    1        9.515  -0.276  -4.213  0.00  0.00    +0.020 C 
ATOM     27  C   LIG    1        5.666  -1.590  -2.864  0.00  0.00    +0.170 C 
ENDBRANCH  19  20
ENDBRANCH  17  19
ENDBRANCH   9  15
TORSDOF 3
