REMARK  Name = ZINCvU0000000Atp.0
REMARK                            x       y       z     vdW  Elec       q    Type
REMARK                         _______ _______ _______ _____ _____    ______ ____
ROOT
ATOM      1  C   LIG    1        3.729   1.439  -2.450  0.00  0.00    +0.090 C 
ATOM      2  C   LIG    1        3.976   1.653  -0.955  0.00  0.00    +0.050 C 
ATOM      3  S   LIG    1        3.596   0.120  -0.063  0.00  0.00    +0.070 S 
ATOM      4  C   LIG    1        1.839   0.254  -0.059  0.00  0.00    +0.110 A 
ATOM      5  N   LIG    1        0.923  -0.665  -0.034  0.00  0.00    -0.230 NA
ATOM      6  N   LIG    1       -0.243  -0.112  -0.052  0.00  0.00    -0.280 NA
ATOM      7  C   LIG    1       -0.126   1.192  -0.087  0.00  0.00    +0.260 A 
ATOM      8  N   LIG    1        1.201   1.475  -0.088  0.00  0.00    -0.330 N 
ATOM      9  N   LIG    1        1.886   2.687  -0.107  0.00  0.00    -0.250 NA
ATOM     10  C   LIG    1        3.117   2.780  -0.470  0.00  0.00    +0.220 C 
ENDROOT
BRANCH  10  11
ATOM     11  C   LIG    1        3.737   4.116  -0.403  0.00  0.00    -0.090 A 
ATOM     12  C   LIG    1        5.021   4.319  -0.917  0.00  0.00    +0.100 A 
ATOM     13  C   LIG    1        5.594   5.571  -0.857  0.00  0.00    -0.050 A 
ATOM     14  C   LIG    1        4.903   6.627  -0.278  0.00  0.00    +0.140 A 
ATOM     15  C   LIG    1        3.629   6.428   0.239  0.00  0.00    +0.010 A 
ATOM     16  C   LIG    1        3.045   5.182   0.179  0.00  0.00    +0.120 A 
BRANCH  14  17
ATOM     17  O   LIG    1        5.474   7.858  -0.216  0.00  0.00    -0.320 OA
BRANCH  17  18
ATOM     18  C   LIG    1        6.786   7.992  -0.766  0.00  0.00    +0.600 C 
ATOM     19  F   LIG    1        6.758   7.658  -2.124  0.00  0.00    -0.200 F 
ATOM     20  F   LIG    1        7.664   7.136  -0.093  0.00  0.00    -0.200 F 
ENDBRANCH  17  18
ENDBRANCH  14  17
ENDBRANCH  10  11
BRANCH   7  21
ATOM     21  C   LIG    1       -1.254   2.190  -0.125  0.00  0.00    +0.230 C 
BRANCH  21  22
ATOM     22  C   LIG    1       -1.536   2.575  -1.555  0.00  0.00    -0.080 A 
ATOM     23  C   LIG    1       -0.988   3.704  -2.080  0.00  0.00    +0.020 A 
ATOM     24  C   LIG    1       -1.232   4.073  -3.402  0.00  0.00    +0.000 A 
ATOM     25  C   LIG    1       -2.036   3.320  -4.202  0.00  0.00    +0.030 A 
ATOM     26  C   LIG    1       -2.625   2.150  -3.693  0.00  0.00    -0.050 A 
ATOM     27  C   LIG    1       -3.460   1.348  -4.488  0.00  0.00    +0.020 A 
ATOM     28  C   LIG    1       -4.013   0.221  -3.961  0.00  0.00    +0.010 A 
ATOM     29  C   LIG    1       -3.764  -0.151  -2.642  0.00  0.00    +0.020 A 
ATOM     30  C   LIG    1       -2.960   0.602  -1.841  0.00  0.00    +0.030 A 
ATOM     31  C   LIG    1       -2.372   1.772  -2.350  0.00  0.00    -0.040 A 
ENDBRANCH  21  22
ENDBRANCH   7  21
TORSDOF 5
