REMARK  Name = ZINCrH000004tM5G.0
REMARK                            x       y       z     vdW  Elec       q    Type
REMARK                         _______ _______ _______ _____ _____    ______ ____
ROOT
ATOM      1  N   LIG    1        2.186   1.673  -0.007  0.00  0.00    -0.520 NA
ATOM      2  C   LIG    1        2.171   0.876   1.226  0.00  0.00    +0.170 C 
ATOM      3  C   LIG    1        3.094  -0.334   1.065  0.00  0.00    +0.040 C 
ATOM      4  C   LIG    1        4.515   0.150   0.764  0.00  0.00    +0.030 C 
ATOM      5  C   LIG    1        4.494   1.017  -0.497  0.00  0.00    +0.010 C 
ATOM      6  C   LIG    1        3.531   2.188  -0.290  0.00  0.00    +0.220 C 
ENDROOT
BRANCH   5   7
ATOM      7  C   LIG    1        5.880   1.546  -0.767  0.00  0.00    +0.520 C 
ATOM      8  N   LIG    1        6.898   0.691  -0.981  0.00  0.00    -0.670 N 
ATOM      9  H   LIG    1        6.726  -0.262  -1.041  0.00  0.00    +0.410 HD
ATOM     10  O   LIG    1        6.077   2.743  -0.791  0.00  0.00    -0.520 OA
BRANCH   8  11
ATOM     11  C   LIG    1        8.204   1.176  -1.116  0.00  0.00    +0.140 A 
ATOM     12  C   LIG    1        9.093   0.550  -1.980  0.00  0.00    -0.020 A 
ATOM     13  C   LIG    1       10.379   1.036  -2.115  0.00  0.00    +0.030 A 
ATOM     14  C   LIG    1       10.785   2.136  -1.384  0.00  0.00    -0.010 A 
ATOM     15  C   LIG    1        9.903   2.758  -0.518  0.00  0.00    +0.030 A 
ATOM     16  C   LIG    1        8.614   2.281  -0.382  0.00  0.00    +0.010 A 
ENDBRANCH   8  11
ENDBRANCH   5   7
BRANCH   1  17
ATOM     17  C   LIG    1        1.207   2.766   0.061  0.00  0.00    +0.220 C 
BRANCH  17  19
ATOM     18  O   LIG    1       -0.346   0.989   0.084  0.00  0.00    -0.490 OA
ATOM     19  C   LIG    1       -0.186   2.191   0.106  0.00  0.00    +0.520 C 
ATOM     20  N   LIG    1       -1.252   3.013   0.166  0.00  0.00    -0.670 N 
ATOM     21  H   LIG    1       -1.123   3.969   0.263  0.00  0.00    +0.420 HD
BRANCH  20  22
ATOM     22  C   LIG    1       -2.548   2.486   0.086  0.00  0.00    +0.130 A 
ATOM     23  C   LIG    1       -2.799   1.377  -0.709  0.00  0.00    +0.070 A 
ATOM     24  C   LIG    1       -4.077   0.855  -0.781  0.00  0.00    +0.050 A 
ATOM     25  C   LIG    1       -5.108   1.444  -0.071  0.00  0.00    -0.020 A 
ATOM     26  C   LIG    1       -4.863   2.554   0.718  0.00  0.00    +0.020 A 
ATOM     27 CL   LIG    1       -6.713   0.789  -0.171  0.00  0.00    -0.050 Cl
ATOM     28  C   LIG    1       -3.586   3.077   0.799  0.00  0.00    +0.090 A 
ATOM     29  F   LIG    1       -3.346   4.161   1.569  0.00  0.00    -0.130 F 
ENDBRANCH  20  22
ENDBRANCH  17  19
ENDBRANCH   1  17
TORSDOF 5
