REMARK  Name = ZINCrH000004nl04.0
REMARK                            x       y       z     vdW  Elec       q    Type
REMARK                         _______ _______ _______ _____ _____    ______ ____
ROOT
ATOM      1  N   LIG    1       -2.894  -3.112  -1.368  0.00  0.00    -0.740 N 
ATOM      2  H   LIG    1       -2.360  -2.785  -2.109  0.00  0.00    +0.400 HD
ATOM      3  C   LIG    1       -4.034  -3.791  -1.607  0.00  0.00    +0.700 C 
ATOM      4  N   LIG    1       -4.431  -4.015  -2.876  0.00  0.00    -0.740 N 
ATOM      5  H   LIG    1       -3.897  -3.687  -3.616  0.00  0.00    +0.400 HD
ATOM      6  O   LIG    1       -4.703  -4.201  -0.679  0.00  0.00    -0.590 OA
ENDROOT
BRANCH   1   7
ATOM      7  C   LIG    1       -2.462  -2.869   0.010  0.00  0.00    +0.340 C 
BRANCH   7  12
ATOM      8  C   LIG    1        0.002  -0.004   0.002  0.00  0.00    +0.130 A 
ATOM      9  C   LIG    1        1.212  -0.682  -0.019  0.00  0.00    -0.070 A 
ATOM     10  C   LIG    1        1.228  -2.064  -0.020  0.00  0.00    +0.050 A 
ATOM     11  C   LIG    1        0.040  -2.770  -0.013  0.00  0.00    -0.010 A 
ATOM     12  C   LIG    1       -1.168  -2.096   0.002  0.00  0.00    -0.070 A 
ATOM     13  C   LIG    1       -1.189  -0.715   0.010  0.00  0.00    +0.000 A 
BRANCH   8  15
ATOM     14  C   LIG    1        1.248   2.021   0.001  0.00  0.00    +0.250 C 
ATOM     15  O   LIG    1       -0.016   1.355   0.009  0.00  0.00    -0.320 OA
ENDBRANCH   8  15
ENDBRANCH   7  12
ENDBRANCH   1   7
BRANCH   4  16
ATOM     16  C   LIG    1       -5.670  -4.752  -3.135  0.00  0.00    +0.340 C 
BRANCH  16  17
ATOM     17  C   LIG    1       -5.885  -4.864  -4.623  0.00  0.00    -0.100 A 
ATOM     18  C   LIG    1       -6.603  -3.891  -5.293  0.00  0.00    +0.030 A 
ATOM     19  C   LIG    1       -6.796  -3.991  -6.658  0.00  0.00    +0.030 A 
ATOM     20  C   LIG    1       -6.281  -5.071  -7.351  0.00  0.00    -0.090 A 
ATOM     21  C   LIG    1       -5.568  -6.046  -6.680  0.00  0.00    +0.030 A 
ATOM     22  C   LIG    1       -5.370  -5.943  -5.316  0.00  0.00    +0.030 A 
BRANCH  20  23
ATOM     23  C   LIG    1       -6.497  -5.183  -8.838  0.00  0.00    +0.240 C 
BRANCH  23  24
ATOM     24  O   LIG    1       -7.706  -5.903  -9.091  0.00  0.00    -0.370 OA
BRANCH  24  25
ATOM     25  C   LIG    1       -8.005  -6.066 -10.478  0.00  0.00    +0.220 C 
BRANCH  25  26
ATOM     26  C   LIG    1       -9.313  -6.846 -10.629  0.00  0.00    +0.460 C 
ATOM     27  F   LIG    1       -9.178  -8.103 -10.030  0.00  0.00    -0.170 F 
ATOM     28  F   LIG    1       -9.607  -7.007 -11.988  0.00  0.00    -0.180 F 
ATOM     29  F   LIG    1      -10.350  -6.142 -10.008  0.00  0.00    -0.170 F 
ENDBRANCH  25  26
ENDBRANCH  24  25
ENDBRANCH  23  24
ENDBRANCH  20  23
ENDBRANCH  16  17
ENDBRANCH   4  16
TORSDOF 9
