REMARK  Name = ZINCrD0000071wO6.0
REMARK                            x       y       z     vdW  Elec       q    Type
REMARK                         _______ _______ _______ _____ _____    ______ ____
ROOT
ATOM      1  C   LIG    1        2.828   1.416   0.072  0.00  0.00    -0.100 A 
ATOM      2  C   LIG    1        1.836   2.312   0.461  0.00  0.00    +0.090 A 
ATOM      3  C   LIG    1        0.547   1.863   0.680  0.00  0.00    +0.020 A 
ATOM      4  C   LIG    1        0.233   0.525   0.516  0.00  0.00    +0.060 A 
ATOM      5  C   LIG    1        1.205  -0.379   0.131  0.00  0.00    +0.040 A 
ATOM      6  C   LIG    1        2.509   0.055  -0.095  0.00  0.00    -0.080 A 
ENDROOT
BRANCH   1   7
ATOM      7  C   LIG    1        4.208   1.891  -0.164  0.00  0.00    +0.510 C 
ATOM      8  O   LIG    1        5.091   1.094  -0.409  0.00  0.00    -0.490 OA
BRANCH   7   9
ATOM      9  O   LIG    1        4.486   3.208  -0.107  0.00  0.00    -0.320 OA
BRANCH   9  10
ATOM     10  C   LIG    1        5.862   3.603  -0.349  0.00  0.00    +0.250 C 
BRANCH  10  17
ATOM     11  C   LIG    1        9.961   7.488  -3.105  0.00  0.00    +0.020 C 
ATOM     12  C   LIG    1        9.286   6.944  -1.844  0.00  0.00    -0.020 C 
ATOM     13  C   LIG    1        7.963   7.681  -1.615  0.00  0.00    +0.020 C 
ATOM     14  C   LIG    1        7.307   7.157  -0.334  0.00  0.00    +0.280 C 
ATOM     15  N   LIG    1        7.175   5.697  -0.433  0.00  0.00    -0.610 N 
ATOM     16  C   LIG    1        8.371   4.899  -0.735  0.00  0.00    +0.260 C 
ATOM     17  C   LIG    1        5.981   5.101  -0.245  0.00  0.00    +0.520 C 
ATOM     18  O   LIG    1        5.002   5.771   0.009  0.00  0.00    -0.520 OA
ATOM     19  C   LIG    1        9.015   5.448  -2.017  0.00  0.00    +0.020 C 
ENDBRANCH  10  17
ENDBRANCH   9  10
ENDBRANCH   7   9
ENDBRANCH   1   7
BRANCH   6  20
ATOM     20  C   LIG    1        3.552  -0.908  -0.507  0.00  0.00    +0.450 C 
ATOM     21  O   LIG    1        4.039  -1.664   0.311  0.00  0.00    -0.430 OA
BRANCH  20  22
ATOM     22  C   LIG    1        4.003  -0.952  -1.913  0.00  0.00    -0.140 A 
ATOM     23  C   LIG    1        3.351  -0.187  -2.884  0.00  0.00    +0.050 A 
ATOM     24  C   LIG    1        3.781  -0.228  -4.193  0.00  0.00    +0.000 A 
ATOM     25  C   LIG    1        4.848  -1.034  -4.550  0.00  0.00    +0.040 A 
ATOM     26  C   LIG    1        5.495  -1.800  -3.595  0.00  0.00    +0.000 A 
ATOM     27  C   LIG    1        5.079  -1.764  -2.280  0.00  0.00    +0.070 A 
ENDBRANCH  20  22
ENDBRANCH   6  20
TORSDOF 6
