REMARK  Name = ZINCkj000005hZ6h.0
REMARK                            x       y       z     vdW  Elec       q    Type
REMARK                         _______ _______ _______ _____ _____    ______ ____
ROOT
ATOM      1  N   LIG    1        5.361   2.521  -2.337  0.00  0.00    -0.510 N 
ATOM      2  H   LIG    1        5.990   2.062  -1.695  0.00  0.00    +0.440 HD
ATOM      3  H   LIG    1        4.884   3.272  -1.861  0.00  0.00    +0.430 HD
ENDROOT
BRANCH   1   9
ATOM      4  C   LIG    1        7.292   3.905  -2.938  0.00  0.00    +0.250 C 
ATOM      5  C   LIG    1        8.035   4.531  -4.123  0.00  0.00    +0.050 C 
ATOM      6  C   LIG    1        7.051   5.360  -4.952  0.00  0.00    +0.250 C 
ATOM      7  O   LIG    1        5.975   4.526  -5.386  0.00  0.00    -0.350 OA
ATOM      8  C   LIG    1        5.215   3.951  -4.321  0.00  0.00    +0.250 C 
ATOM      9  C   LIG    1        6.126   3.065  -3.467  0.00  0.00    +0.150 C 
BRANCH   4  11
ATOM     10  C   LIG    1        6.472   4.502  -0.766  0.00  0.00    +0.230 C 
ATOM     11  O   LIG    1        6.791   4.939  -2.089  0.00  0.00    -0.380 OA
ENDBRANCH   4  11
BRANCH   4  12
ATOM     12  O   LIG    1        8.186   3.071  -2.198  0.00  0.00    -0.400 OA
ATOM     13  C   LIG    1        9.341   3.751  -1.703  0.00  0.00    +0.250 C 
ENDBRANCH   4  12
ENDBRANCH   1   9
BRANCH   1  14
ATOM     14  C   LIG    1        4.375   1.552  -2.834  0.00  0.00    +0.260 C 
BRANCH  14  15
ATOM     15  C   LIG    1        3.579   0.985  -1.657  0.00  0.00    +0.100 C 
BRANCH  15  16
ATOM     16  C   LIG    1        2.567  -0.009  -2.167  0.00  0.00    -0.060 A 
ATOM     17  C   LIG    1        1.262   0.378  -2.430  0.00  0.00    -0.020 A 
ATOM     18  C   LIG    1        0.362  -0.561  -2.897  0.00  0.00    +0.260 A 
ATOM     19  N   LIG    1        0.733  -1.811  -3.093  0.00  0.00    -0.470 NA
ATOM     20  C   LIG    1        1.966  -2.215  -2.854  0.00  0.00    +0.270 A 
ATOM     21  C   LIG    1        2.920  -1.332  -2.385  0.00  0.00    -0.130 A 
ATOM     22  C   LIG    1        4.327  -1.801  -2.115  0.00  0.00    +0.110 C 
ENDBRANCH  15  16
ENDBRANCH  14  15
ENDBRANCH   1  14
TORSDOF 6
