REMARK  Name = ZINCrH000004ufTu.0
REMARK                            x       y       z     vdW  Elec       q    Type
REMARK                         _______ _______ _______ _____ _____    ______ ____
ROOT
ATOM      1  O   LIG    1        1.089   0.967   5.027  0.00  0.00    -0.530 OA
ATOM      2  C   LIG    1        0.076   1.635   4.934  0.00  0.00    +0.590 C 
ATOM      3  N   LIG    1       -0.335   2.071   3.727  0.00  0.00    -0.720 N 
ATOM      4  H   LIG    1       -1.176   2.547   3.645  0.00  0.00    +0.400 HD
ENDROOT
BRANCH   2   5
ATOM      5  C   LIG    1       -0.697   1.964   6.136  0.00  0.00    -0.090 A 
ATOM      6  C   LIG    1       -1.866   2.672   6.191  0.00  0.00    +0.230 A 
ATOM      7  N   LIG    1       -2.238   2.747   7.469  0.00  0.00    -0.490 NA
ATOM      8  C   LIG    1       -1.366   2.126   8.221  0.00  0.00    +0.440 A 
ATOM      9  N   LIG    1       -0.393   1.617   7.440  0.00  0.00    -0.380 N 
BRANCH   9  10
ATOM     10  C   LIG    1        0.719   0.878   7.868  0.00  0.00    +0.090 A 
ATOM     11  C   LIG    1        0.953  -0.389   7.351  0.00  0.00    +0.100 A 
ATOM     12  C   LIG    1        2.051  -1.113   7.770  0.00  0.00    +0.010 A 
ATOM     13  C   LIG    1        2.914  -0.581   8.713  0.00  0.00    +0.120 A 
ATOM     14  C   LIG    1        2.679   0.681   9.235  0.00  0.00    +0.010 A 
ATOM     15  F   LIG    1        3.986  -1.293   9.126  0.00  0.00    -0.130 F 
ATOM     16  C   LIG    1        1.585   1.410   8.814  0.00  0.00    +0.060 A 
ENDBRANCH   9  10
ENDBRANCH   2   5
BRANCH   3  17
ATOM     17  C   LIG    1        0.488   1.827   2.541  0.00  0.00    +0.280 C 
BRANCH  17  18
ATOM     18  C   LIG    1       -0.201   2.421   1.311  0.00  0.00    +0.010 C 
BRANCH  18  19
ATOM     19  C   LIG    1        0.659   2.166   0.071  0.00  0.00    +0.310 C 
BRANCH  19  20
ATOM     20  N   LIG    1       -0.002   2.735  -1.107  0.00  0.00    -0.490 N 
ATOM     21  C   LIG    1       -0.808   2.041  -1.967  0.00  0.00    +0.220 A 
ATOM     22  C   LIG    1       -1.254   2.857  -2.935  0.00  0.00    -0.050 A 
ATOM     23  C   LIG    1       -0.679   4.179  -2.679  0.00  0.00    -0.110 A 
ATOM     24  C   LIG    1       -0.763   5.415  -3.322  0.00  0.00    +0.050 A 
ATOM     25  C   LIG    1       -0.086   6.490  -2.818  0.00  0.00    -0.030 A 
ATOM     26  C   LIG    1        0.685   6.363  -1.671  0.00  0.00    +0.020 A 
ATOM     27  C   LIG    1        0.782   5.152  -1.020  0.00  0.00    -0.010 A 
ATOM     28  C   LIG    1        0.101   4.045  -1.516  0.00  0.00    +0.100 A 
ENDBRANCH  19  20
ENDBRANCH  18  19
ENDBRANCH  17  18
ENDBRANCH   3  17
TORSDOF 6
