REMARK  Name = ZINCvU0000000DUu.0
REMARK                            x       y       z     vdW  Elec       q    Type
REMARK                         _______ _______ _______ _____ _____    ______ ____
ROOT
ATOM      1  C   LIG    1       -0.679   1.291  -1.527  0.00  0.00    +0.420 A 
ATOM      2  C   LIG    1       -0.685   2.687  -1.777  0.00  0.00    -0.110 A 
ATOM      3  C   LIG    1       -1.196   3.127  -3.001  0.00  0.00    +0.090 A 
ATOM      4  S   LIG    1       -1.098   4.879  -3.095  0.00  0.00    +0.170 S 
ATOM      5  C   LIG    1       -0.370   4.996  -1.504  0.00  0.00    -0.160 A 
ATOM      6  C   LIG    1        0.030   6.291  -0.846  0.00  0.00    +0.150 C 
ATOM      7  N   LIG    1       -1.662   2.226  -3.873  0.00  0.00    -0.480 NA
ATOM      8  C   LIG    1       -1.641   0.935  -3.595  0.00  0.00    +0.390 A 
ATOM      9  C   LIG    1       -0.218   3.793  -0.952  0.00  0.00    -0.030 A 
ATOM     10  N   LIG    1       -1.160   0.471  -2.447  0.00  0.00    -0.510 NA
ENDROOT
BRANCH   8  11
ATOM     11  C   LIG    1       -2.169  -0.025  -4.595  0.00  0.00    +0.170 A 
ATOM     12  C   LIG    1       -2.577   0.434  -5.845  0.00  0.00    +0.030 A 
ATOM     13  C   LIG    1       -3.068  -0.474  -6.768  0.00  0.00    +0.060 A 
ATOM     14  C   LIG    1       -3.136  -1.812  -6.408  0.00  0.00    -0.020 A 
ATOM     15  C   LIG    1       -2.713  -2.199  -5.148  0.00  0.00    +0.260 A 
ATOM     16  N   LIG    1       -2.245  -1.315  -4.292  0.00  0.00    -0.440 NA
ENDBRANCH   8  11
BRANCH   9  17
ATOM     17  C   LIG    1        0.373   3.597   0.393  0.00  0.00    -0.010 A 
ATOM     18  C   LIG    1        1.611   2.969   0.529  0.00  0.00    +0.040 A 
ATOM     19  C   LIG    1        2.159   2.793   1.784  0.00  0.00    +0.000 A 
ATOM     20  C   LIG    1        1.477   3.229   2.906  0.00  0.00    +0.000 A 
ATOM     21  C   LIG    1        0.247   3.849   2.778  0.00  0.00    +0.000 A 
ATOM     22  C   LIG    1       -0.308   4.035   1.528  0.00  0.00    +0.010 A 
ENDBRANCH   9  17
BRANCH   1  27
ATOM     23  C   LIG    1       -1.266   0.258   0.507  0.00  0.00    +0.150 C 
ATOM     24  C   LIG    1       -0.920  -1.214   0.816  0.00  0.00    +0.030 C 
ATOM     25  C   LIG    1        0.616  -1.263   0.606  0.00  0.00    +0.040 C 
ATOM     26  C   LIG    1        0.801  -0.283  -0.579  0.00  0.00    +0.190 C 
ATOM     27  N   LIG    1       -0.181   0.794  -0.335  0.00  0.00    -0.460 N 
BRANCH  23  28
ATOM     28  C   LIG    1       -2.596   0.334  -0.245  0.00  0.00    +0.200 C 
BRANCH  28  30
ATOM     29  C   LIG    1       -5.008  -0.313  -0.187  0.00  0.00    +0.010 C 
ATOM     30  C   LIG    1       -3.701  -0.291   0.608  0.00  0.00    -0.020 C 
ENDBRANCH  28  30
BRANCH  28  31
ATOM     31  O   LIG    1       -2.915   1.701  -0.512  0.00  0.00    -0.550 OA
ATOM     32  H   LIG    1       -2.934   2.261   0.276  0.00  0.00    +0.370 HD
ENDBRANCH  28  31
ENDBRANCH  23  28
ENDBRANCH   1  27
TORSDOF 6
