REMARK  Name = ZINCpk00000KfLxJ.0
REMARK                            x       y       z     vdW  Elec       q    Type
REMARK                         _______ _______ _______ _____ _____    ______ ____
ROOT
ATOM      1  N   LIG    1        2.702   3.236  -1.197  0.00  0.00    -0.530 NA
ATOM      2  C   LIG    1        3.746   2.266  -0.841  0.00  0.00    +0.200 C 
ATOM      3  C   LIG    1        4.806   2.232  -1.944  0.00  0.00    +0.190 C 
ATOM      4  N   LIG    1        5.376   3.576  -2.114  0.00  0.00    -0.530 NA
ATOM      5  C   LIG    1        4.331   4.546  -2.470  0.00  0.00    +0.190 C 
ATOM      6  C   LIG    1        3.271   4.580  -1.367  0.00  0.00    +0.180 C 
ENDROOT
BRANCH   1   7
ATOM      7  C   LIG    1        1.626   3.243  -0.198  0.00  0.00    +0.270 C 
ATOM      8  C   LIG    1        0.986   1.855  -0.128  0.00  0.00    +0.080 C 
BRANCH   7  13
ATOM      9  C   LIG    1       -1.719   6.970  -0.147  0.00  0.00    +0.210 C 
ATOM     10  C   LIG    1       -0.833   5.830  -0.582  0.00  0.00    +0.170 A 
ATOM     11  N   LIG    1       -0.763   5.324  -1.776  0.00  0.00    -0.390 NA
ATOM     12  O   LIG    1        0.044   4.419  -1.802  0.00  0.00    +0.090 OA
ATOM     13  C   LIG    1        0.583   4.258  -0.589  0.00  0.00    +0.190 A 
ATOM     14  N   LIG    1        0.030   5.152   0.195  0.00  0.00    -0.480 NA
ENDBRANCH   7  13
ENDBRANCH   1   7
BRANCH   4  15
ATOM     15  C   LIG    1        6.452   3.570  -3.113  0.00  0.00    +0.160 C 
BRANCH  15  16
ATOM     16  C   LIG    1        7.325   4.813  -2.931  0.00  0.00    +0.230 C 
BRANCH  16  17
ATOM     17  O   LIG    1        7.951   4.771  -1.647  0.00  0.00    -0.540 OA
ATOM     18  H   LIG    1        8.520   4.000  -1.512  0.00  0.00    +0.370 HD
ENDBRANCH  16  17
BRANCH  16  19
ATOM     19  C   LIG    1        8.398   4.846  -4.021  0.00  0.00    +0.170 C 
BRANCH  19  20
ATOM     20  O   LIG    1        9.140   6.064  -3.922  0.00  0.00    -0.300 OA
BRANCH  20  21
ATOM     21  C   LIG    1       10.139   6.253  -4.824  0.00  0.00    +0.130 A 
ATOM     22  C   LIG    1       10.404   5.284  -5.781  0.00  0.00    -0.080 A 
ATOM     23  C   LIG    1       11.416   5.481  -6.700  0.00  0.00    +0.040 A 
ATOM     24  C   LIG    1       12.172   6.639  -6.660  0.00  0.00    -0.040 A 
ATOM     25  C   LIG    1       11.913   7.603  -5.704  0.00  0.00    +0.050 A 
ATOM     26  C   LIG    1       10.899   7.413  -4.786  0.00  0.00    -0.020 A 
ENDBRANCH  20  21
ENDBRANCH  19  20
ENDBRANCH  16  19
ENDBRANCH  15  16
ENDBRANCH   4  15
TORSDOF 8
