REMARK  Name = ZINCqH00000011JH.0
REMARK                            x       y       z     vdW  Elec       q    Type
REMARK                         _______ _______ _______ _____ _____    ______ ____
ROOT
ATOM      1  C   LIG    1       -2.522   3.870   0.046  0.00  0.00    +0.560 C 
ATOM      2  N   LIG    1       -3.683   3.185   0.054  0.00  0.00    -0.730 N 
ATOM      3  H   LIG    1       -3.673   2.215   0.049  0.00  0.00    +0.400 HD
ATOM      4  O   LIG    1       -2.534   5.085   0.052  0.00  0.00    -0.530 OA
ENDROOT
BRANCH   1   8
ATOM      5  C   LIG    1        1.177   1.782   0.000  0.00  0.00    -0.040 A 
ATOM      6  C   LIG    1       -0.013   1.076   0.008  0.00  0.00    +0.010 A 
ATOM      7  C   LIG    1       -1.217   1.748   0.017  0.00  0.00    +0.040 A 
ATOM      8  C   LIG    1       -1.234   3.143   0.030  0.00  0.00    -0.140 A 
ATOM      9  C   LIG    1       -0.031   3.850   0.022  0.00  0.00    +0.090 A 
ATOM     10  C   LIG    1        1.167   3.166   0.007  0.00  0.00    +0.010 A 
BRANCH   5  12
ATOM     11  C   LIG    1        2.567   0.170  -1.271  0.00  0.00    +0.040 C 
ATOM     12  C   LIG    1        2.489   1.042  -0.016  0.00  0.00    -0.040 C 
ATOM     13  C   LIG    1        2.591   0.156   1.228  0.00  0.00    +0.040 C 
ATOM     14  C   LIG    1        3.643   2.047  -0.022  0.00  0.00    +0.030 C 
ENDBRANCH   5  12
ENDBRANCH   1   8
BRANCH   2  15
ATOM     15  C   LIG    1       -4.958   3.905   0.070  0.00  0.00    +0.290 C 
BRANCH  15  16
ATOM     16  C   LIG    1       -6.111   2.899   0.076  0.00  0.00    +0.050 C 
BRANCH  16  17
ATOM     17  C   LIG    1       -7.424   3.640   0.092  0.00  0.00    +0.530 C 
ATOM     18  N   LIG    1       -8.584   2.955   0.100  0.00  0.00    -0.610 N 
ATOM     19  C   LIG    1       -9.876   3.658   0.121  0.00  0.00    +0.300 C 
ATOM     20  C   LIG    1      -10.611   3.357  -1.194  0.00  0.00    +0.110 C 
ATOM     21  C   LIG    1      -10.520   1.874  -1.483  0.00  0.00    -0.170 A 
ATOM     22  C   LIG    1       -9.630   1.030  -0.927  0.00  0.00    -0.130 A 
ATOM     23  C   LIG    1       -9.749  -0.283  -1.370  0.00  0.00    +0.020 A 
ATOM     24  C   LIG    1      -10.712  -0.506  -2.258  0.00  0.00    -0.040 A 
ATOM     25  S   LIG    1      -11.557   0.996  -2.600  0.00  0.00    +0.110 S 
ATOM     26  C   LIG    1       -8.592   1.485   0.093  0.00  0.00    +0.360 C 
ATOM     27  O   LIG    1       -7.436   4.853   0.098  0.00  0.00    -0.530 OA
ENDBRANCH  16  17
ENDBRANCH  15  16
ENDBRANCH   2  15
TORSDOF 5
