REMARK  Name = ZINCBu00000007Zr.0
REMARK                            x       y       z     vdW  Elec       q    Type
REMARK                         _______ _______ _______ _____ _____    ______ ____
ROOT
ATOM      1  C   LIG    1       -4.877  -1.392  -3.913  0.00  0.00    -0.100 C 
ATOM      2  C   LIG    1       -4.719  -1.818  -4.995  0.00  0.00    -0.180 C 
ENDROOT
BRANCH   1   6
ATOM      3  N   LIG    1       -2.100   1.004  -1.269  0.00  0.00    -0.610 N 
ATOM      4  C   LIG    1       -2.667   0.249  -2.392  0.00  0.00    +0.320 C 
ATOM      5  C   LIG    1       -4.057  -0.155  -1.970  0.00  0.00    -0.060 A 
ATOM      6  C   LIG    1       -5.070  -0.873  -2.592  0.00  0.00    +0.020 A 
ATOM      7  C   LIG    1       -6.278  -1.087  -1.923  0.00  0.00    +0.080 A 
ATOM      8  C   LIG    1       -6.461  -0.585  -0.649  0.00  0.00    +0.030 A 
ATOM      9  C   LIG    1       -5.457   0.130  -0.027  0.00  0.00    +0.120 A 
ATOM     10  C   LIG    1       -4.244   0.352  -0.684  0.00  0.00    -0.150 A 
ATOM     11  C   LIG    1       -3.011   1.058  -0.282  0.00  0.00    +0.570 C 
ATOM     12  O   LIG    1       -2.845   1.610   0.788  0.00  0.00    -0.500 OA
BRANCH   3  17
ATOM     13  O   LIG    1        0.303   1.533  -5.148  0.00  0.00    -0.500 OA
ATOM     14  C   LIG    1       -0.018   1.551  -3.979  0.00  0.00    +0.520 C 
ATOM     15  C   LIG    1       -1.026   2.566  -3.507  0.00  0.00    +0.080 C 
ATOM     16  C   LIG    1       -0.752   2.899  -2.036  0.00  0.00    +0.070 C 
ATOM     17  C   LIG    1       -0.761   1.597  -1.228  0.00  0.00    +0.300 C 
ATOM     18  C   LIG    1        0.234   0.637  -1.825  0.00  0.00    +0.520 C 
ATOM     19  O   LIG    1        0.775  -0.179  -1.110  0.00  0.00    -0.470 OA
ATOM     20  N   LIG    1        0.533   0.669  -3.132  0.00  0.00    -0.670 N 
ATOM     21  H   LIG    1        1.174   0.028  -3.479  0.00  0.00    +0.420 HD
ENDBRANCH   3  17
ENDBRANCH   1   6
BRANCH   2  22
ATOM     22  C   LIG    1       -4.521  -2.351  -6.353  0.00  0.00    +0.140 C 
ATOM     23  C   LIG    1       -3.329  -3.313  -6.356  0.00  0.00    +0.070 C 
ATOM     24  C   LIG    1       -3.079  -3.801  -7.785  0.00  0.00    +0.260 C 
ATOM     25  N   LIG    1       -2.788  -2.655  -8.655  0.00  0.00    -0.380 N 
ATOM     26  C   LIG    1       -3.955  -1.766  -8.713  0.00  0.00    +0.260 C 
ATOM     27  H   LIG    1       -1.998  -2.147  -8.286  0.00  0.00    +0.420 HD
ATOM     28  C   LIG    1       -4.238  -1.198  -7.320  0.00  0.00    +0.070 C 
BRANCH  25  29
ATOM     29  C   LIG    1       -2.473  -3.135 -10.007  0.00  0.00    +0.330 C 
BRANCH  29  30
ATOM     30  C   LIG    1       -1.205  -3.949  -9.968  0.00  0.00    -0.160 A 
ATOM     31  C   LIG    1        0.017  -3.331 -10.158  0.00  0.00    +0.050 A 
ATOM     32  C   LIG    1        1.183  -4.072 -10.119  0.00  0.00    +0.040 A 
ATOM     33  C   LIG    1        1.128  -5.441  -9.899  0.00  0.00    +0.090 A 
ATOM     34  O   LIG    1        2.284  -6.159  -9.871  0.00  0.00    -0.300 OA
ATOM     35  C   LIG    1        2.218  -7.460  -9.277  0.00  0.00    +0.240 C 
ATOM     36  C   LIG    1        0.979  -8.178  -9.829  0.00  0.00    +0.240 C 
ATOM     37  O   LIG    1       -0.176  -7.403  -9.489  0.00  0.00    -0.300 OA
ATOM     38  C   LIG    1       -0.101  -6.062  -9.711  0.00  0.00    +0.060 A 
ATOM     39  C   LIG    1       -1.266  -5.312  -9.747  0.00  0.00    +0.050 A 
ENDBRANCH  29  30
ENDBRANCH  25  29
ENDBRANCH   2  22
TORSDOF 5
