REMARK  Name = ZINCrg00000fS6wY.0
REMARK                            x       y       z     vdW  Elec       q    Type
REMARK                         _______ _______ _______ _____ _____    ______ ____
ROOT
ATOM      1  N   LIG    1        0.094  -4.228   3.586  0.00  0.00    -0.740 N 
ATOM      2  H   LIG    1        0.103  -5.108   3.178  0.00  0.00    +0.390 HD
ATOM      3  C   LIG    1        0.072  -3.126   2.811  0.00  0.00    +0.710 C 
ATOM      4  N   LIG    1        0.060  -3.246   1.468  0.00  0.00    -0.650 N 
ATOM      5  H   LIG    1        0.069  -4.126   1.060  0.00  0.00    +0.410 HD
ATOM      6  O   LIG    1        0.061  -2.023   3.322  0.00  0.00    -0.570 OA
ENDROOT
BRANCH   4   7
ATOM      7  C   LIG    1        0.037  -2.094   0.658  0.00  0.00    +0.040 A 
ATOM      8  C   LIG    1        0.023  -0.809   1.096  0.00  0.00    +0.260 A 
ATOM      9  N   LIG    1        0.002  -0.004   0.002  0.00  0.00    -0.360 N 
ATOM     10  N   LIG    1       -0.004  -0.823  -1.135  0.00  0.00    -0.240 NA
ATOM     11  C   LIG    1       -0.018   1.461   0.010  0.00  0.00    +0.360 C 
ATOM     12  C   LIG    1        0.023  -2.071  -0.744  0.00  0.00    -0.030 A 
BRANCH  12  13
ATOM     13  C   LIG    1        0.031  -3.278  -1.647  0.00  0.00    +0.490 C 
ATOM     14  F   LIG    1        0.711  -4.326  -1.017  0.00  0.00    -0.190 F 
ATOM     15  F   LIG    1        0.675  -2.958  -2.847  0.00  0.00    -0.190 F 
ENDBRANCH  12  13
ENDBRANCH   4   7
BRANCH   1  17
ATOM     16  C   LIG    1       -1.328  -3.947   5.555  0.00  0.00    +0.040 C 
ATOM     17  C   LIG    1        0.106  -4.097   5.045  0.00  0.00    +0.240 C 
BRANCH  17  18
ATOM     18  C   LIG    1        0.739  -5.345   5.664  0.00  0.00    +0.320 C 
BRANCH  18  19
ATOM     19  N   LIG    1        2.069  -5.557   5.085  0.00  0.00    -0.540 N 
ATOM     20  C   LIG    1        2.208  -6.320   3.972  0.00  0.00    +0.620 A 
ATOM     21  N   LIG    1        3.356  -6.544   3.404  0.00  0.00    -0.530 NA
ATOM     22  C   LIG    1        4.499  -6.037   3.892  0.00  0.00    +0.330 A 
ATOM     23  C   LIG    1        4.456  -5.238   5.046  0.00  0.00    -0.340 A 
ATOM     24  C   LIG    1        5.777  -4.846   5.332  0.00  0.00    +0.330 A 
ATOM     25  N   LIG    1        6.563  -5.362   4.428  0.00  0.00    -0.270 NA
ATOM     26  N   LIG    1        5.803  -6.108   3.518  0.00  0.00    -0.350 N 
ATOM     27  C   LIG    1        6.325  -6.840   2.362  0.00  0.00    +0.370 C 
ATOM     28  C   LIG    1        3.154  -4.993   5.666  0.00  0.00    +0.580 A 
ATOM     29  O   LIG    1        3.050  -4.308   6.668  0.00  0.00    -0.510 OA
ENDBRANCH  18  19
ENDBRANCH  17  18
ENDBRANCH   1  17
TORSDOF 5
