REMARK  Name = ZINCrD000000CWy2.0
REMARK                            x       y       z     vdW  Elec       q    Type
REMARK                         _______ _______ _______ _____ _____    ______ ____
ROOT
ATOM      1  C   LIG    1       -1.572  -6.121   1.000  0.00  0.00    +0.220 A 
ATOM      2  N   LIG    1       -2.001  -4.946   1.383  0.00  0.00    -0.370 NA
ATOM      3  O   LIG    1       -1.296  -4.074   0.922  0.00  0.00    +0.090 OA
ATOM      4  C   LIG    1       -0.324  -4.615   0.181  0.00  0.00    +0.190 A 
ATOM      5  N   LIG    1       -0.489  -5.914   0.217  0.00  0.00    -0.470 NA
ENDROOT
BRANCH   1   9
ATOM      6  C   LIG    1       -3.274  -9.885   2.013  0.00  0.00    +0.160 A 
ATOM      7  C   LIG    1       -3.842  -8.713   2.498  0.00  0.00    +0.020 A 
ATOM      8  C   LIG    1       -3.293  -7.493   2.171  0.00  0.00    +0.070 A 
ATOM      9  C   LIG    1       -2.165  -7.434   1.353  0.00  0.00    -0.020 A 
ATOM     10  C   LIG    1       -1.600  -8.610   0.863  0.00  0.00    +0.080 A 
ATOM     11  C   LIG    1       -2.150  -9.829   1.197  0.00  0.00    +0.020 A 
BRANCH   6  18
ATOM     12  O   LIG    1       -2.540 -11.206   4.116  0.00  0.00    -0.510 OA
ATOM     13  C   LIG    1       -3.385 -11.753   3.436  0.00  0.00    +0.660 C 
ATOM     14  O   LIG    1       -3.829 -12.960   3.818  0.00  0.00    -0.340 OA
ATOM     15  C   LIG    1       -5.073 -13.430   3.228  0.00  0.00    +0.260 C 
ATOM     16  C   LIG    1       -5.007 -13.178   1.715  0.00  0.00    +0.030 C 
ATOM     17  C   LIG    1       -4.877 -11.670   1.483  0.00  0.00    +0.280 C 
ATOM     18  N   LIG    1       -3.833 -11.122   2.345  0.00  0.00    -0.580 N 
ENDBRANCH   6  18
ENDBRANCH   1   9
BRANCH   4  19
ATOM     19  C   LIG    1        0.756  -3.871  -0.562  0.00  0.00    +0.130 C 
ATOM     20  C   LIG    1        1.651  -3.014   0.349  0.00  0.00    +0.060 C 
ATOM     21  C   LIG    1        1.615  -1.944  -0.754  0.00  0.00    +0.250 C 
ATOM     22  C   LIG    1        0.273  -2.554  -1.193  0.00  0.00    +0.060 C 
BRANCH  21  23
ATOM     23  N   LIG    1        1.497  -0.576  -0.242  0.00  0.00    -0.450 N 
ATOM     24  C   LIG    1        2.388   0.444  -0.438  0.00  0.00    +0.120 A 
ATOM     25  C   LIG    1        1.894   1.521   0.203  0.00  0.00    +0.140 A 
ATOM     26  N   LIG    1        0.733   1.168   0.775  0.00  0.00    -0.490 NA
ATOM     27  C   LIG    1        0.489  -0.087   0.512  0.00  0.00    +0.380 A 
ENDBRANCH  21  23
ENDBRANCH   4  19
TORSDOF 4
