REMARK  Name = ZINCqH00000501xc.1
REMARK                            x       y       z     vdW  Elec       q    Type
REMARK                         _______ _______ _______ _____ _____    ______ ____
ROOT
ATOM      1  C   LIG    1        3.688  -3.287   1.679  0.00  0.00    +0.410 C 
ENDROOT
BRANCH   1   8
ATOM      2  C   LIG    1        5.827  -5.243   2.942  0.00  0.00    +0.120 C 
ATOM      3  C   LIG    1        5.702  -4.892   1.482  0.00  0.00    -0.200 A 
ATOM      4  C   LIG    1        6.492  -5.362   0.471  0.00  0.00    +0.130 A 
ATOM      5  N   LIG    1        6.046  -4.800  -0.688  0.00  0.00    -0.460 N 
ATOM      6  H   LIG    1        6.413  -4.947  -1.573  0.00  0.00    +0.440 HD
ATOM      7  N   LIG    1        4.958  -3.976  -0.371  0.00  0.00    -0.260 NA
ATOM      8  C   LIG    1        4.760  -4.029   0.922  0.00  0.00    +0.050 A 
BRANCH   4   9
ATOM      9  C   LIG    1        7.624  -6.306   0.609  0.00  0.00    -0.040 A 
ATOM     10  C   LIG    1        8.563  -6.129   1.625  0.00  0.00    +0.040 A 
ATOM     11  C   LIG    1        9.613  -7.016   1.751  0.00  0.00    +0.010 A 
ATOM     12  C   LIG    1        9.741  -8.071   0.866  0.00  0.00    +0.020 A 
ATOM     13  C   LIG    1        8.816  -8.249  -0.146  0.00  0.00    +0.010 A 
ATOM     14  C   LIG    1        7.758  -7.373  -0.280  0.00  0.00    +0.020 A 
ENDBRANCH   4   9
ENDBRANCH   1   8
BRANCH   1  15
ATOM     15  N   LIG    1        4.205  -1.985   2.106  0.00  0.00    -0.440 N 
ATOM     16  C   LIG    1        4.760  -1.690   3.322  0.00  0.00    +0.130 A 
ATOM     17  C   LIG    1        5.098  -0.387   3.291  0.00  0.00    +0.150 A 
ATOM     18  N   LIG    1        4.763   0.100   2.087  0.00  0.00    -0.480 NA
ATOM     19  C   LIG    1        4.223  -0.851   1.373  0.00  0.00    +0.190 A 
BRANCH  19  20
ATOM     20  C   LIG    1        3.711  -0.707  -0.037  0.00  0.00    +0.360 C 
BRANCH  20  21
ATOM     21  C   LIG    1        2.396   0.029  -0.021  0.00  0.00    -0.120 A 
ATOM     22  C   LIG    1        1.208  -0.679  -0.013  0.00  0.00    +0.010 A 
ATOM     23  C   LIG    1        0.002  -0.004   0.002  0.00  0.00    +0.000 A 
ATOM     24  C   LIG    1       -0.017   1.378   0.010  0.00  0.00    +0.000 A 
ATOM     25  C   LIG    1        1.171   2.086   0.002  0.00  0.00    +0.010 A 
ATOM     26  C   LIG    1        2.377   1.411  -0.015  0.00  0.00    +0.030 A 
ENDBRANCH  20  21
BRANCH  20  27
ATOM     27  O   LIG    1        4.658   0.027  -0.815  0.00  0.00    -0.540 OA
ATOM     28  H   LIG    1        4.834   0.918  -0.483  0.00  0.00    +0.380 HD
ENDBRANCH  20  27
ENDBRANCH  19  20
ENDBRANCH   1  15
TORSDOF 6
