REMARK  Name = ZINCqH00000501xc.0
REMARK                            x       y       z     vdW  Elec       q    Type
REMARK                         _______ _______ _______ _____ _____    ______ ____
ROOT
ATOM      1  C   LIG    1        2.538  -0.258   0.419  0.00  0.00    +0.400 C 
ENDROOT
BRANCH   1   4
ATOM      2  C   LIG    1        5.085  -1.431  -0.958  0.00  0.00    +0.120 C 
ATOM      3  C   LIG    1        3.657  -1.759  -1.309  0.00  0.00    -0.190 A 
ATOM      4  C   LIG    1        2.555  -1.252  -0.714  0.00  0.00    +0.050 A 
ATOM      5  N   LIG    1        1.472  -1.796  -1.308  0.00  0.00    -0.460 N 
ATOM      6  H   LIG    1        0.547  -1.616  -1.081  0.00  0.00    +0.440 HD
ATOM      7  N   LIG    1        1.917  -2.665  -2.313  0.00  0.00    -0.260 NA
ATOM      8  C   LIG    1        3.233  -2.648  -2.315  0.00  0.00    +0.120 A 
BRANCH   8   9
ATOM      9  C   LIG    1        4.115  -3.429  -3.219  0.00  0.00    -0.020 A 
ATOM     10  C   LIG    1        3.791  -3.563  -4.567  0.00  0.00    +0.030 A 
ATOM     11  C   LIG    1        4.617  -4.286  -5.404  0.00  0.00    +0.010 A 
ATOM     12  C   LIG    1        5.759  -4.885  -4.904  0.00  0.00    +0.020 A 
ATOM     13  C   LIG    1        6.082  -4.760  -3.565  0.00  0.00    +0.010 A 
ATOM     14  C   LIG    1        5.266  -4.034  -2.720  0.00  0.00    +0.040 A 
ENDBRANCH   8   9
ENDBRANCH   1   4
BRANCH   1  15
ATOM     15  N   LIG    1        2.639   1.100  -0.121  0.00  0.00    -0.440 N 
ATOM     16  C   LIG    1        3.786   1.832  -0.270  0.00  0.00    +0.140 A 
ATOM     17  C   LIG    1        3.426   3.019  -0.795  0.00  0.00    +0.150 A 
ATOM     18  N   LIG    1        2.096   3.010  -0.967  0.00  0.00    -0.470 NA
ATOM     19  C   LIG    1        1.618   1.862  -0.569  0.00  0.00    +0.180 A 
BRANCH  19  20
ATOM     20  C   LIG    1        0.167   1.457  -0.598  0.00  0.00    +0.350 C 
BRANCH  20  21
ATOM     21  C   LIG    1       -0.573   2.158   0.512  0.00  0.00    -0.120 A 
ATOM     22  C   LIG    1       -1.058   3.438   0.320  0.00  0.00    +0.040 A 
ATOM     23  C   LIG    1       -1.739   4.079   1.338  0.00  0.00    +0.020 A 
ATOM     24  C   LIG    1       -1.929   3.443   2.550  0.00  0.00    +0.020 A 
ATOM     25  C   LIG    1       -1.439   2.165   2.744  0.00  0.00    +0.010 A 
ATOM     26  C   LIG    1       -0.761   1.522   1.726  0.00  0.00    +0.010 A 
ENDBRANCH  20  21
BRANCH  20  27
ATOM     27  O   LIG    1       -0.405   1.823  -1.856  0.00  0.00    -0.540 OA
ATOM     28  H   LIG    1       -0.369   2.771  -2.043  0.00  0.00    +0.390 HD
ENDBRANCH  20  27
ENDBRANCH  19  20
ENDBRANCH   1  15
TORSDOF 6
