REMARK  Name = ZINCqH0000007jqa.0
REMARK                            x       y       z     vdW  Elec       q    Type
REMARK                         _______ _______ _______ _____ _____    ______ ____
ROOT
ATOM      1  N   LIG    1        4.290  -0.546  -4.547  0.00  0.00    -0.650 N 
ATOM      2  H   LIG    1        4.632   0.022  -5.255  0.00  0.00    +0.420 HD
ATOM      3  C   LIG    1        3.973  -1.830  -4.806  0.00  0.00    +0.580 C 
ATOM      4  O   LIG    1        3.472  -2.520  -3.939  0.00  0.00    -0.500 OA
ENDROOT
BRANCH   1   8
ATOM      5  C   LIG    1        3.799   0.983  -0.696  0.00  0.00    +0.090 A 
ATOM      6  C   LIG    1        2.981  -0.040  -1.146  0.00  0.00    -0.040 A 
ATOM      7  C   LIG    1        3.140  -0.543  -2.424  0.00  0.00    +0.060 A 
ATOM      8  C   LIG    1        4.127  -0.032  -3.255  0.00  0.00    +0.120 A 
ATOM      9  C   LIG    1        4.953   0.990  -2.805  0.00  0.00    +0.010 A 
ATOM     10  C   LIG    1        4.790   1.498  -1.527  0.00  0.00    +0.100 A 
BRANCH   5  12
ATOM     11  C   LIG    1        2.602   0.904   1.358  0.00  0.00    +0.240 C 
ATOM     12  O   LIG    1        3.639   1.480   0.560  0.00  0.00    -0.310 OA
ENDBRANCH   5  12
BRANCH  10  13
ATOM     13  O   LIG    1        5.598   2.498  -1.085  0.00  0.00    -0.480 OA
ATOM     14  H   LIG    1        6.402   2.190  -0.646  0.00  0.00    +0.390 HD
ENDBRANCH  10  13
ENDBRANCH   1   8
BRANCH   3  15
ATOM     15  C   LIG    1        4.231  -2.397  -6.138  0.00  0.00    +0.030 A 
ATOM     16  C   LIG    1        4.756  -1.729  -7.227  0.00  0.00    -0.050 A 
ATOM     17  C   LIG    1        4.838  -2.636  -8.281  0.00  0.00    +0.100 A 
ATOM     18  N   LIG    1        4.382  -3.796  -7.876  0.00  0.00    -0.250 NA
ATOM     19  N   LIG    1        3.992  -3.685  -6.536  0.00  0.00    -0.290 N 
BRANCH  19  20
ATOM     20  C   LIG    1        3.453  -4.707  -5.745  0.00  0.00    +0.130 A 
ATOM     21  C   LIG    1        4.160  -5.888  -5.559  0.00  0.00    +0.030 A 
ATOM     22  C   LIG    1        3.628  -6.893  -4.774  0.00  0.00    +0.020 A 
ATOM     23  C   LIG    1        2.389  -6.728  -4.183  0.00  0.00    +0.030 A 
ATOM     24  C   LIG    1        1.680  -5.555  -4.371  0.00  0.00    +0.020 A 
ATOM     25  C   LIG    1        2.209  -4.545  -5.150  0.00  0.00    +0.050 A 
ENDBRANCH  19  20
BRANCH  17  26
ATOM     26  C   LIG    1        5.359  -2.331  -9.662  0.00  0.00    +0.040 C 
ATOM     27  C   LIG    1        5.486  -0.860 -10.060  0.00  0.00    +0.050 C 
ATOM     28  C   LIG    1        4.380  -1.724 -10.669  0.00  0.00    +0.040 C 
ENDBRANCH  17  26
ENDBRANCH   3  15
TORSDOF 6
