REMARK  Name = ZINCah0000003XL0.0
REMARK                            x       y       z     vdW  Elec       q    Type
REMARK                         _______ _______ _______ _____ _____    ______ ____
ROOT
ATOM      1  C   LIG    1        1.139  -0.675  -0.013  0.00  0.00    +0.400 A 
ATOM      2  C   LIG    1        2.367  -0.012  -0.020  0.00  0.00    -0.070 A 
ATOM      3  C   LIG    1        2.397   1.368  -0.013  0.00  0.00    +0.090 A 
ATOM      4  C   LIG    1        1.186   2.057   0.002  0.00  0.00    -0.010 A 
ATOM      5  N   LIG    1        0.854   3.395   0.012  0.00  0.00    -0.590 N 
ATOM      6  H   LIG    1        1.490   4.128   0.010  0.00  0.00    +0.420 HD
ATOM      7  C   LIG    1       -0.505   3.534   0.025  0.00  0.00    +0.260 A 
ATOM      8  C   LIG    1       -1.089   2.324   0.019  0.00  0.00    -0.060 A 
ATOM      9  C   LIG    1       -0.016   1.328   0.009  0.00  0.00    +0.140 A 
ATOM     10  N   LIG    1        0.002  -0.004   0.002  0.00  0.00    -0.520 NA
ENDROOT
BRANCH   1  11
ATOM     11  N   LIG    1        1.113  -2.066  -0.020  0.00  0.00    -0.860 N 
ATOM     12  H   LIG    1        1.944  -2.567  -0.030  0.00  0.00    +0.410 HD
ATOM     13  H   LIG    1        0.264  -2.535  -0.014  0.00  0.00    +0.400 HD
ENDBRANCH   1  11
TORSDOF 1
