REMARK  Name = ZINCpe00000bKJDD.0
REMARK                            x       y       z     vdW  Elec       q    Type
REMARK                         _______ _______ _______ _____ _____    ______ ____
ROOT
ATOM      1  C   LIG    1       -0.013   1.086   0.008  0.00  0.00    +0.270 C 
ATOM      2  C   LIG    1        1.388   1.721  -0.002  0.00  0.00    +0.020 C 
ATOM      3  C   LIG    1        0.821   2.765  -0.979  0.00  0.00    +0.240 C 
ATOM      4  C   LIG    1       -0.218   1.707  -1.384  0.00  0.00    -0.100 C 
ATOM      5  C   LIG    1       -1.621   2.277  -1.599  0.00  0.00    +0.040 C 
ATOM      6  C   LIG    1        0.241   0.805  -2.531  0.00  0.00    +0.080 C 
ENDROOT
BRANCH   3   7
ATOM      7  N   LIG    1        1.746   3.122  -2.057  0.00  0.00    -0.720 N 
ATOM      8  H   LIG    1        1.889   2.510  -2.796  0.00  0.00    +0.400 HD
ATOM      9  C   LIG    1        2.399   4.301  -2.022  0.00  0.00    +0.510 C 
ATOM     10  O   LIG    1        2.221   5.066  -1.098  0.00  0.00    -0.540 OA
BRANCH   9  11
ATOM     11  C   LIG    1        3.350   4.668  -3.132  0.00  0.00    +0.060 C 
BRANCH  11  12
ATOM     12  C   LIG    1        3.953   6.046  -2.851  0.00  0.00    +0.240 C 
ATOM     13  C   LIG    1        4.835   6.496  -4.038  0.00  0.00    +0.050 C 
ATOM     14  C   LIG    1        5.972   7.255  -3.316  0.00  0.00    +0.050 C 
ATOM     15  C   LIG    1        5.995   6.655  -1.927  0.00  0.00    +0.520 C 
ATOM     16  O   LIG    1        6.908   6.767  -1.137  0.00  0.00    -0.540 OA
ATOM     17  N   LIG    1        4.856   5.980  -1.696  0.00  0.00    -0.720 N 
ATOM     18  H   LIG    1        4.656   5.510  -0.872  0.00  0.00    +0.410 HD
ENDBRANCH  11  12
ENDBRANCH   9  11
ENDBRANCH   3   7
BRANCH   1  19
ATOM     19  N   LIG    1       -0.900   1.637   1.035  0.00  0.00    -0.680 N 
ATOM     20  H   LIG    1       -1.284   2.521   0.921  0.00  0.00    +0.410 HD
BRANCH  19  25
ATOM     21  C   LIG    1       -2.292   0.727   4.185  0.00  0.00    +0.400 A 
ATOM     22  C   LIG    1       -1.746  -0.543   4.360  0.00  0.00    -0.150 A 
ATOM     23  C   LIG    1       -0.912  -1.044   3.378  0.00  0.00    +0.400 A 
ATOM     24  N   LIG    1       -0.657  -0.308   2.307  0.00  0.00    -0.590 NA
ATOM     25  C   LIG    1       -1.190   0.897   2.168  0.00  0.00    +0.600 A 
ATOM     26  N   LIG    1       -1.990   1.413   3.090  0.00  0.00    -0.620 NA
BRANCH  21  28
ATOM     27  C   LIG    1       -3.631   2.564   4.868  0.00  0.00    +0.260 C 
ATOM     28  O   LIG    1       -3.114   1.257   5.123  0.00  0.00    -0.300 OA
ENDBRANCH  21  28
ENDBRANCH  19  25
ENDBRANCH   1  19
TORSDOF 6
