REMARK  Name = ZINCtV000002Frml.0
REMARK                            x       y       z     vdW  Elec       q    Type
REMARK                         _______ _______ _______ _____ _____    ______ ____
ROOT
ATOM      1  C   LIG    1       -1.324   5.800   0.191  0.00  0.00    +0.110 C 
ATOM      2  C   LIG    1        0.044   6.432   0.209  0.00  0.00    -0.040 A 
ATOM      3  C   LIG    1        1.176   5.644   0.073  0.00  0.00    +0.130 A 
ATOM      4  C   LIG    1        2.437   6.230   0.084  0.00  0.00    +0.050 A 
ATOM      5  C   LIG    1        2.566   7.598   0.235  0.00  0.00    +0.030 A 
ATOM      6  C   LIG    1        1.446   8.391   0.376  0.00  0.00    +0.040 A 
ATOM      7  C   LIG    1        0.175   7.812   0.367  0.00  0.00    -0.120 A 
ENDROOT
BRANCH   3   8
ATOM      8  N   LIG    1        1.050   4.259  -0.079  0.00  0.00    -0.650 N 
ATOM      9  H   LIG    1        0.264   3.804   0.259  0.00  0.00    +0.420 HD
ATOM     10  C   LIG    1        2.022   3.558  -0.697  0.00  0.00    +0.600 C 
ATOM     11  O   LIG    1        2.957   4.140  -1.214  0.00  0.00    -0.490 OA
BRANCH  10  12
ATOM     12  C   LIG    1        1.952   2.091  -0.744  0.00  0.00    -0.030 A 
ATOM     13  C   LIG    1        2.870   1.284  -1.337  0.00  0.00    +0.090 A 
ATOM     14  C   LIG    1        2.394  -0.084  -1.139  0.00  0.00    -0.140 A 
ATOM     15  C   LIG    1        2.876  -1.344  -1.501  0.00  0.00    +0.120 A 
ATOM     16  C   LIG    1        2.172  -2.464  -1.153  0.00  0.00    -0.110 A 
ATOM     17  C   LIG    1        0.983  -2.355  -0.443  0.00  0.00    +0.100 A 
ATOM     18  C   LIG    1        0.492  -1.121  -0.077  0.00  0.00    +0.050 A 
ATOM     19 BR   LIG    1        2.822  -4.171  -1.641  0.00  0.00    -0.030 Br
ATOM     20  C   LIG    1        1.190   0.031  -0.419  0.00  0.00    +0.090 A 
ATOM     21  O   LIG    1        0.966   1.343  -0.207  0.00  0.00    -0.180 OA
ENDBRANCH  10  12
ENDBRANCH   3   8
BRANCH   7  22
ATOM     22  C   LIG    1       -1.027   8.659   0.517  0.00  0.00    +0.560 C 
ATOM     23  N   LIG    1       -0.906  10.001   0.550  0.00  0.00    -0.670 N 
ATOM     24  H   LIG    1       -0.026  10.409   0.543  0.00  0.00    +0.410 HD
ATOM     25  O   LIG    1       -2.124   8.145   0.611  0.00  0.00    -0.510 OA
BRANCH  23  26
ATOM     26  C   LIG    1       -2.049  10.805   0.594  0.00  0.00    +0.140 A 
ATOM     27  C   LIG    1       -2.064  12.030  -0.059  0.00  0.00    -0.010 A 
ATOM     28  C   LIG    1       -3.196  12.820  -0.018  0.00  0.00    +0.030 A 
ATOM     29  C   LIG    1       -4.311  12.397   0.682  0.00  0.00    -0.010 A 
ATOM     30  C   LIG    1       -4.298  11.180   1.339  0.00  0.00    +0.030 A 
ATOM     31  C   LIG    1       -3.170  10.383   1.297  0.00  0.00    +0.020 A 
ENDBRANCH  23  26
ENDBRANCH   7  22
TORSDOF 4
