REMARK  Name = ZINCpe000000YvTh.0
REMARK                            x       y       z     vdW  Elec       q    Type
REMARK                         _______ _______ _______ _____ _____    ______ ____
ROOT
ATOM      1  N   LIG    1        2.036   4.326  -0.144  0.00  0.00    -0.470 N 
ATOM      2  C   LIG    1        3.031   3.614   0.668  0.00  0.00    +0.210 C 
ATOM      3  C   LIG    1        4.389   4.307   0.537  0.00  0.00    +0.060 C 
ATOM      4  C   LIG    1        4.263   5.759   1.008  0.00  0.00    -0.020 C 
ATOM      5  C   LIG    1        3.187   6.464   0.178  0.00  0.00    +0.070 C 
ATOM      6  C   LIG    1        1.864   5.708   0.319  0.00  0.00    +0.230 C 
ENDROOT
BRANCH   4   7
ATOM      7  C   LIG    1        5.582   6.464   0.825  0.00  0.00    +0.520 C 
ATOM      8  N   LIG    1        6.535   6.368   1.774  0.00  0.00    -0.610 N 
ATOM      9  C   LIG    1        7.780   7.139   1.665  0.00  0.00    +0.280 C 
ATOM     10  C   LIG    1        7.978   7.941   2.955  0.00  0.00    +0.020 C 
ATOM     11  C   LIG    1        7.930   6.991   4.154  0.00  0.00    +0.030 C 
ATOM     12  C   LIG    1        6.560   6.311   4.213  0.00  0.00    -0.030 C 
ATOM     13  C   LIG    1        6.344   5.495   2.940  0.00  0.00    +0.300 C 
ATOM     14  O   LIG    1        5.787   7.117  -0.176  0.00  0.00    -0.530 OA
BRANCH  12  15
ATOM     15  C   LIG    1        6.502   5.401   5.413  0.00  0.00    +0.530 C 
ATOM     16  O   LIG    1        6.306   4.213   5.264  0.00  0.00    -0.540 OA
ATOM     17  N   LIG    1        6.668   5.907   6.651  0.00  0.00    -0.850 N 
ATOM     18  H   LIG    1        6.631   5.321   7.423  0.00  0.00    +0.400 HD
ATOM     19  H   LIG    1        6.825   6.857   6.770  0.00  0.00    +0.400 HD
ENDBRANCH  12  15
ENDBRANCH   4   7
BRANCH   1  23
ATOM     20  C   LIG    1       -1.563   2.346  -0.167  0.00  0.00    -0.120 A 
ATOM     21  C   LIG    1       -0.411   1.655  -0.571  0.00  0.00    +0.150 A 
ATOM     22  C   LIG    1        0.786   2.320  -0.564  0.00  0.00    -0.040 A 
ATOM     23  C   LIG    1        0.826   3.650  -0.153  0.00  0.00    +0.340 A 
ATOM     24  N   LIG    1       -0.276   4.279   0.230  0.00  0.00    -0.520 NA
ATOM     25  C   LIG    1       -1.448   3.678   0.238  0.00  0.00    +0.360 A 
BRANCH  20  27
ATOM     26  N   LIG    1       -3.850   1.177  -0.162  0.00  0.00    -0.410 NA
ATOM     27  C   LIG    1       -2.838   1.694  -0.164  0.00  0.00    +0.260 C 
ENDBRANCH  20  27
ENDBRANCH   1  23
TORSDOF 4
