REMARK  Name = ZINCqH0000006SXm.0
REMARK                            x       y       z     vdW  Elec       q    Type
REMARK                         _______ _______ _______ _____ _____    ______ ____
ROOT
ATOM      1  N   LIG    1        3.622  -0.658  -0.036  0.00  0.00    -0.630 N 
ATOM      2  H   LIG    1        4.453  -0.166  -0.122  0.00  0.00    +0.430 HD
ATOM      3  C   LIG    1        3.641  -2.002   0.058  0.00  0.00    +0.510 C 
ATOM      4  O   LIG    1        2.600  -2.626   0.065  0.00  0.00    -0.500 OA
ENDROOT
BRANCH   1   8
ATOM      5  C   LIG    1       -0.015   1.387   0.043  0.00  0.00    +0.170 A 
ATOM      6  C   LIG    1        1.086   1.961  -0.573  0.00  0.00    -0.120 A 
ATOM      7  C   LIG    1        2.295   1.285  -0.601  0.00  0.00    +0.150 A 
ATOM      8  C   LIG    1        2.402   0.028  -0.009  0.00  0.00    +0.090 A 
ATOM      9  C   LIG    1        1.296  -0.544   0.606  0.00  0.00    +0.120 A 
ATOM     10  C   LIG    1        0.092   0.134   0.632  0.00  0.00    -0.080 A 
ATOM     11 CL   LIG    1       -1.289  -0.583   1.403  0.00  0.00    -0.050 Cl
BRANCH   5  13
ATOM     12  C   LIG    1       -1.242   3.333  -0.560  0.00  0.00    +0.250 C 
ATOM     13  O   LIG    1       -1.203   2.048   0.065  0.00  0.00    -0.300 OA
ENDBRANCH   5  13
BRANCH   7  14
ATOM     14  O   LIG    1        3.376   1.848  -1.204  0.00  0.00    -0.310 OA
ATOM     15  C   LIG    1        3.194   3.139  -1.789  0.00  0.00    +0.260 C 
ENDBRANCH   7  14
ENDBRANCH   1   8
BRANCH   3  16
ATOM     16  C   LIG    1        4.944  -2.725   0.154  0.00  0.00    +0.530 C 
ATOM     17  N   LIG    1        4.964  -4.069   0.248  0.00  0.00    -0.590 N 
ATOM     18  C   LIG    1        3.779  -4.946   0.274  0.00  0.00    +0.280 C 
ATOM     19  C   LIG    1        4.294  -6.319  -0.232  0.00  0.00    +0.030 C 
ATOM     20  C   LIG    1        5.706  -6.375   0.408  0.00  0.00    +0.050 C 
ATOM     21  C   LIG    1        6.170  -4.904   0.349  0.00  0.00    +0.310 C 
ATOM     22  O   LIG    1        5.986  -2.102   0.148  0.00  0.00    -0.500 OA
BRANCH  21  23
ATOM     23  C   LIG    1        6.931  -4.556   1.602  0.00  0.00    -0.190 A 
ATOM     24  C   LIG    1        8.260  -4.496   1.703  0.00  0.00    +0.020 A 
ATOM     25  C   LIG    1        8.735  -4.154   2.957  0.00  0.00    +0.010 A 
ATOM     26  C   LIG    1        7.792  -3.936   3.875  0.00  0.00    -0.050 A 
ATOM     27  S   LIG    1        6.203  -4.159   3.153  0.00  0.00    +0.110 S 
ENDBRANCH  21  23
ENDBRANCH   3  16
TORSDOF 5
