REMARK  Name = ZINCkj00000GeO73.0
REMARK                            x       y       z     vdW  Elec       q    Type
REMARK                         _______ _______ _______ _____ _____    ______ ____
ROOT
ATOM      1  C   LIG    1       -0.401   0.514  -2.205  0.00  0.00    +0.460 C 
ATOM      2  O   LIG    1        0.281  -0.478  -2.312  0.00  0.00    -0.520 OA
ENDROOT
BRANCH   1   3
ATOM      3  C   LIG    1       -0.634   1.400  -3.401  0.00  0.00    +0.140 C 
BRANCH   3   4
ATOM      4  C   LIG    1        0.097   0.823  -4.614  0.00  0.00    +0.000 C 
BRANCH   4   5
ATOM      5  C   LIG    1       -0.036   1.785  -5.796  0.00  0.00    +0.040 C 
BRANCH   5   7
ATOM      6  C   LIG    1        0.901   2.417  -8.024  0.00  0.00    +0.040 C 
ATOM      7  C   LIG    1        1.089   1.520  -6.799  0.00  0.00    -0.060 C 
ATOM      8  C   LIG    1        2.438   1.826  -6.144  0.00  0.00    +0.030 C 
ENDBRANCH   5   7
ENDBRANCH   4   5
BRANCH   4   9
ATOM      9  C   LIG    1       -0.518  -0.528  -4.985  0.00  0.00    +0.270 C 
BRANCH   9  10
ATOM     10  N   LIG    1        0.288  -1.161  -6.038  0.00  0.00    -0.640 N 
ATOM     11  H   LIG    1        0.139  -2.158  -6.023  0.00  0.00    +0.440 HD
ATOM     12  H   LIG    1        1.265  -0.964  -5.878  0.00  0.00    +0.440 HD
ATOM     13  H   LIG    1        0.014  -0.793  -6.937  0.00  0.00    +0.430 HD
ENDBRANCH   9  10
ENDBRANCH   4   9
ENDBRANCH   3   4
ENDBRANCH   1   3
BRANCH   1  14
ATOM     14  O   LIG    1       -0.950   0.826  -1.020  0.00  0.00    -0.350 OA
BRANCH  14  15
ATOM     15  C   LIG    1       -0.683  -0.073   0.088  0.00  0.00    +0.240 C 
BRANCH  15  16
ATOM     16  C   LIG    1       -1.387   0.443   1.345  0.00  0.00    +0.030 C 
ATOM     17  C   LIG    1       -2.897   0.403   1.132  0.00  0.00    +0.030 C 
ATOM     18  C   LIG    1       -3.619   1.138   2.257  0.00  0.00    +0.070 C 
ATOM     19  C   LIG    1       -3.502   0.343   3.560  0.00  0.00    -0.340 C 
ATOM     20  S   LIG    1       -1.754   0.253   4.043  0.00  0.00    +2.420 S 
ATOM     21  O   LIG    1       -1.265   1.574   4.232  0.00  0.00    -0.930 OA
ATOM     22  O   LIG    1       -1.620  -0.696   5.092  0.00  0.00    -0.930 OA
ATOM     23  C   LIG    1       -1.003  -0.435   2.538  0.00  0.00    -0.330 C 
ENDBRANCH  15  16
ENDBRANCH  14  15
ENDBRANCH   1  14
TORSDOF 9
