REMARK  Name = ZINCbw00000004Dc.0
REMARK                            x       y       z     vdW  Elec       q    Type
REMARK                         _______ _______ _______ _____ _____    ______ ____
ROOT
ATOM      1  C   LIG    1        1.178   2.096   0.002  0.00  0.00    -0.090 A 
ATOM      2  C   LIG    1        2.389   1.411  -0.014  0.00  0.00    +0.020 A 
ATOM      3  C   LIG    1        2.407   0.029  -0.021  0.00  0.00    +0.040 A 
ATOM      4  C   LIG    1        1.224  -0.681  -0.013  0.00  0.00    +0.060 A 
ATOM      5  C   LIG    1        0.002  -0.004   0.002  0.00  0.00    -0.010 A 
ATOM      6  C   LIG    1       -0.017   1.391   0.010  0.00  0.00    +0.090 A 
ENDROOT
BRANCH   5   7
ATOM      7  C   LIG    1       -1.227  -0.739   0.009  0.00  0.00    +0.250 C 
ATOM      8  N   LIG    1       -2.202  -1.323   0.015  0.00  0.00    -0.410 NA
ENDBRANCH   5   7
BRANCH   1   9
ATOM      9  S   LIG    1        1.162   3.857   0.012  0.00  0.00    -0.110 S 
BRANCH   9  11
ATOM     10  C   LIG    1        3.083   5.804   0.004  0.00  0.00    +0.080 C 
ATOM     11  C   LIG    1        2.925   4.282  -0.003  0.00  0.00    +0.070 C 
ENDBRANCH   9  11
ENDBRANCH   1   9
TORSDOF 3
