REMARK  Name = ZINCtj00001UqOsf.0
REMARK                            x       y       z     vdW  Elec       q    Type
REMARK                         _______ _______ _______ _____ _____    ______ ____
ROOT
ATOM      1  N   LIG    1       -3.084   1.358  -0.291  0.00  0.00    -0.380 N 
ATOM      2  C   LIG    1       -2.742   0.885  -1.638  0.00  0.00    +0.270 C 
ATOM      3  C   LIG    1       -1.287   1.238  -1.953  0.00  0.00    +0.060 C 
ATOM      4  C   LIG    1       -0.371   0.567  -0.926  0.00  0.00    +0.260 C 
ATOM      5  C   LIG    1       -0.783   1.010   0.481  0.00  0.00    +0.070 C 
ATOM      6  C   LIG    1       -2.258   0.665   0.705  0.00  0.00    +0.270 C 
ATOM      7  H   LIG    1       -2.918   2.351  -0.232  0.00  0.00    +0.420 HD
ENDROOT
BRANCH   4   8
ATOM      8  N   LIG    1        1.018   0.962  -1.177  0.00  0.00    -0.490 N 
ATOM      9  C   LIG    1        1.509   2.231  -1.166  0.00  0.00    +0.480 A 
ATOM     10  N   LIG    1        2.784   2.219  -1.425  0.00  0.00    -0.470 NA
ATOM     11  C   LIG    1        3.192   0.942  -1.630  0.00  0.00    -0.000 A 
ATOM     12  C   LIG    1        4.423   0.356  -1.940  0.00  0.00    +0.140 A 
ATOM     13  C   LIG    1        4.475  -1.018  -2.080  0.00  0.00    -0.030 A 
ATOM     14  C   LIG    1        3.321  -1.766  -1.911  0.00  0.00    +0.320 A 
ATOM     15  N   LIG    1        2.171  -1.195  -1.619  0.00  0.00    -0.490 NA
ATOM     16  C   LIG    1        2.065   0.116  -1.474  0.00  0.00    +0.240 A 
ENDBRANCH   4   8
BRANCH   1  17
ATOM     17  C   LIG    1       -4.502   1.083  -0.023  0.00  0.00    +0.340 C 
BRANCH  17  19
ATOM     18  C   LIG    1       -5.351   2.777   1.544  0.00  0.00    +0.220 C 
ATOM     19  C   LIG    1       -4.852   1.557   1.364  0.00  0.00    -0.240 C 
BRANCH  19  20
ATOM     20  C   LIG    1       -4.641   0.671   2.519  0.00  0.00    +0.550 C 
ATOM     21  N   LIG    1       -5.562  -0.263   2.829  0.00  0.00    -0.600 N 
ATOM     22  C   LIG    1       -6.824  -0.322   2.087  0.00  0.00    +0.310 C 
ATOM     23  O   LIG    1       -3.636   0.781   3.195  0.00  0.00    -0.520 OA
BRANCH  21  24
ATOM     24  C   LIG    1       -5.303  -1.218   3.909  0.00  0.00    +0.300 C 
BRANCH  24  25
ATOM     25  C   LIG    1       -5.813  -0.643   5.232  0.00  0.00    +0.310 C 
BRANCH  25  26
ATOM     26  N   LIG    1       -5.553  -1.599   6.312  0.00  0.00    -0.390 N 
ATOM     27  C   LIG    1       -4.881  -1.363   7.452  0.00  0.00    +0.480 A 
ATOM     28  N   LIG    1       -4.868  -2.468   8.152  0.00  0.00    -0.540 NA
ATOM     29  C   LIG    1       -5.519  -3.427   7.495  0.00  0.00    +0.430 A 
ATOM     30  N   LIG    1       -5.961  -2.941   6.364  0.00  0.00    -0.320 NA
ENDBRANCH  25  26
ENDBRANCH  24  25
ENDBRANCH  21  24
ENDBRANCH  19  20
ENDBRANCH  17  19
ENDBRANCH   1  17
TORSDOF 7
