REMARK  Name = ZINCrg000012Q2S6.0
REMARK                            x       y       z     vdW  Elec       q    Type
REMARK                         _______ _______ _______ _____ _____    ______ ____
ROOT
ATOM      1  N   LIG    1        4.376   5.242  -2.040  0.00  0.00    -0.710 N 
ATOM      2  H   LIG    1        5.090   5.344  -1.391  0.00  0.00    +0.400 HD
ATOM      3  C   LIG    1        3.758   4.053  -2.181  0.00  0.00    +0.500 C 
ATOM      4  O   LIG    1        2.865   3.926  -2.991  0.00  0.00    -0.500 OA
ENDROOT
BRANCH   1  10
ATOM      5  C   LIG    1        4.322   7.688  -2.146  0.00  0.00    +0.140 C 
ATOM      6  C   LIG    1        5.842   7.769  -1.976  0.00  0.00    -0.010 C 
ATOM      7  C   LIG    1        6.507   7.666  -3.351  0.00  0.00    +0.220 C 
ATOM      8  O   LIG    1        6.113   6.444  -3.978  0.00  0.00    -0.370 OA
ATOM      9  C   LIG    1        4.707   6.332  -4.206  0.00  0.00    +0.230 C 
ATOM     10  C   LIG    1        3.969   6.382  -2.865  0.00  0.00    +0.240 C 
BRANCH   5  11
ATOM     11  O   LIG    1        3.865   8.799  -2.919  0.00  0.00    -0.550 OA
ATOM     12  H   LIG    1        4.055   9.659  -2.522  0.00  0.00    +0.390 HD
ENDBRANCH   5  11
BRANCH   5  13
ATOM     13  C   LIG    1        3.651   7.711  -0.770  0.00  0.00    +0.160 C 
BRANCH  13  15
ATOM     14  C   LIG    1        3.402   9.053   1.200  0.00  0.00    +0.200 C 
ATOM     15  O   LIG    1        3.981   8.929  -0.101  0.00  0.00    -0.390 OA
ENDBRANCH  13  15
ENDBRANCH   5  13
ENDBRANCH   1  10
BRANCH   3  16
ATOM     16  C   LIG    1        4.176   2.881  -1.331  0.00  0.00    +0.330 C 
BRANCH  16  17
ATOM     17  N   LIG    1        3.359   1.714  -1.673  0.00  0.00    -0.410 N 
ATOM     18  C   LIG    1        3.637   0.785  -2.617  0.00  0.00    +0.110 A 
ATOM     19  N   LIG    1        2.676  -0.102  -2.630  0.00  0.00    -0.420 NA
ATOM     20  C   LIG    1        1.766   0.225  -1.709  0.00  0.00    +0.020 A 
ATOM     21  C   LIG    1        0.490  -0.503  -1.364  0.00  0.00    +0.120 C 
ATOM     22  C   LIG    1        0.002  -0.004   0.002  0.00  0.00    +0.030 C 
ATOM     23  C   LIG    1       -0.019   1.527   0.010  0.00  0.00    +0.040 C 
ATOM     24  C   LIG    1        1.421   2.057  -0.001  0.00  0.00    +0.120 C 
ATOM     25  C   LIG    1        2.176   1.359  -1.101  0.00  0.00    +0.020 A 
BRANCH  18  26
ATOM     26  C   LIG    1        4.854   0.774  -3.506  0.00  0.00    +0.560 C 
ATOM     27  F   LIG    1        5.968   0.364  -2.766  0.00  0.00    -0.170 F 
ATOM     28  F   LIG    1        5.075   2.061  -4.009  0.00  0.00    -0.170 F 
ATOM     29  F   LIG    1        4.647  -0.113  -4.568  0.00  0.00    -0.150 F 
ENDBRANCH  18  26
ENDBRANCH  16  17
ENDBRANCH   3  16
TORSDOF 7
