REMARK  Name = ZINCrD000000CLdQ.0
REMARK                            x       y       z     vdW  Elec       q    Type
REMARK                         _______ _______ _______ _____ _____    ______ ____
ROOT
ATOM      1  N   LIG    1        0.041  -0.499   1.380  0.00  0.00    -1.110 NA
ATOM      2  H   LIG    1        0.267   0.103   2.106  0.00  0.00    +0.420 HD
ENDROOT
BRANCH   1   3
ATOM      3  S   LIG    1       -0.301  -2.088   1.699  0.00  0.00    +2.690 S 
ATOM      4  O   LIG    1       -1.507  -2.385   1.008  0.00  0.00    -0.950 OA
ATOM      5  O   LIG    1       -0.146  -2.258   3.101  0.00  0.00    -0.950 OA
BRANCH   3   6
ATOM      6  C   LIG    1        0.959  -3.056   0.938  0.00  0.00    -0.650 A 
ATOM      7  C   LIG    1        0.799  -3.501  -0.361  0.00  0.00    +0.140 A 
ATOM      8  C   LIG    1        1.790  -4.256  -0.960  0.00  0.00    +0.060 A 
ATOM      9  C   LIG    1        2.937  -4.575  -0.256  0.00  0.00    -0.130 A 
ATOM     10  C   LIG    1        3.094  -4.135   1.045  0.00  0.00    +0.060 A 
ATOM     11  C   LIG    1        2.105  -3.375   1.642  0.00  0.00    +0.130 A 
BRANCH   9  12
ATOM     12  C   LIG    1        4.014  -5.404  -0.907  0.00  0.00    +0.510 C 
ATOM     13  F   LIG    1        5.259  -5.052  -0.373  0.00  0.00    -0.170 F 
ATOM     14  F   LIG    1        4.015  -5.168  -2.286  0.00  0.00    -0.170 F 
ATOM     15  F   LIG    1        3.770  -6.760  -0.665  0.00  0.00    -0.170 F 
ENDBRANCH   9  12
ENDBRANCH   3   6
ENDBRANCH   1   3
BRANCH   1  16
ATOM     16  C   LIG    1        0.002  -0.004   0.002  0.00  0.00    +0.320 C 
BRANCH  16  20
ATOM     17  C   LIG    1       -0.056   4.269   0.025  0.00  0.00    +0.180 A 
ATOM     18  C   LIG    1        1.155   3.590  -0.007  0.00  0.00    -0.030 A 
ATOM     19  C   LIG    1        1.170   2.209  -0.014  0.00  0.00    +0.060 A 
ATOM     20  C   LIG    1       -0.018   1.503   0.010  0.00  0.00    -0.130 A 
ATOM     21  C   LIG    1       -1.226   2.176   0.036  0.00  0.00    +0.060 A 
ATOM     22  C   LIG    1       -1.248   3.557   0.049  0.00  0.00    +0.000 A 
BRANCH  17  28
ATOM     23  O   LIG    1       -2.315   5.969  -0.161  0.00  0.00    -0.510 OA
ATOM     24  C   LIG    1       -1.191   6.412  -0.057  0.00  0.00    +0.520 C 
ATOM     25  C   LIG    1       -0.841   7.883  -0.005  0.00  0.00    +0.070 C 
ATOM     26  C   LIG    1        0.607   7.912   0.535  0.00  0.00    +0.060 C 
ATOM     27  C   LIG    1        1.122   6.512   0.130  0.00  0.00    +0.260 C 
ATOM     28  N   LIG    1       -0.075   5.668   0.031  0.00  0.00    -0.560 N 
ENDBRANCH  17  28
ENDBRANCH  16  20
ENDBRANCH   1  16
TORSDOF 6
