REMARK  Name = ZINCpe00000VVGnD.0
REMARK                            x       y       z     vdW  Elec       q    Type
REMARK                         _______ _______ _______ _____ _____    ______ ____
ROOT
ATOM      1  N   LIG    1       -3.885  -0.838  -1.919  0.00  0.00    -0.740 N 
ATOM      2  H   LIG    1       -4.452  -0.547  -1.187  0.00  0.00    +0.400 HD
ATOM      3  C   LIG    1       -2.641  -0.336  -2.048  0.00  0.00    +0.710 C 
ATOM      4  N   LIG    1       -2.147   0.491  -1.106  0.00  0.00    -0.630 N 
ATOM      5  C   LIG    1       -0.755   0.959  -1.176  0.00  0.00    +0.300 C 
ATOM      6  C   LIG    1       -0.063   0.647   0.154  0.00  0.00    +0.010 C 
ATOM      7  C   LIG    1       -0.873   1.254   1.302  0.00  0.00    +0.250 C 
ATOM      8  C   LIG    1       -2.271   0.631   1.327  0.00  0.00    +0.010 C 
ATOM      9  C   LIG    1       -2.989   0.943   0.010  0.00  0.00    +0.270 C 
ATOM     10  O   LIG    1       -1.965  -0.629  -3.015  0.00  0.00    -0.580 OA
ENDROOT
BRANCH   1  15
ATOM     11  C   LIG    1       -5.197  -6.043  -4.303  0.00  0.00    +0.220 A 
ATOM     12  N   LIG    1       -4.298  -5.558  -3.484  0.00  0.00    -0.310 NA
ATOM     13  N   LIG    1       -4.622  -4.213  -3.287  0.00  0.00    -0.370 N 
ATOM     14  C   LIG    1       -3.930  -3.225  -2.459  0.00  0.00    +0.310 C 
ATOM     15  C   LIG    1       -4.381  -1.823  -2.883  0.00  0.00    +0.260 C 
ATOM     16  C   LIG    1       -5.912  -1.770  -2.925  0.00  0.00    +0.040 C 
ATOM     17  C   LIG    1       -6.416  -2.631  -4.090  0.00  0.00    +0.180 C 
ATOM     18  C   LIG    1       -5.726  -3.971  -4.019  0.00  0.00    +0.270 A 
ATOM     19  N   LIG    1       -6.060  -5.076  -4.624  0.00  0.00    -0.530 NA
BRANCH  11  21
ATOM     20  C   LIG    1       -4.441  -7.580  -6.096  0.00  0.00    +0.040 C 
ATOM     21  C   LIG    1       -5.250  -7.464  -4.803  0.00  0.00    +0.150 C 
ENDBRANCH  11  21
ENDBRANCH   1  15
BRANCH   7  22
ATOM     22  N   LIG    1       -0.195   0.985   2.573  0.00  0.00    -0.620 N 
ATOM     23  C   LIG    1        0.210   2.009   3.350  0.00  0.00    +0.510 C 
ATOM     24  O   LIG    1       -0.071   3.149   3.046  0.00  0.00    -0.540 OA
ATOM     25  C   LIG    1        1.012   1.737   4.597  0.00  0.00    +0.090 C 
ATOM     26  C   LIG    1        0.042  -0.397   2.999  0.00  0.00    +0.280 C 
ENDBRANCH   7  22
TORSDOF 3
