REMARK  Name = ZINCvU000000047v.0
REMARK                            x       y       z     vdW  Elec       q    Type
REMARK                         _______ _______ _______ _____ _____    ______ ____
ROOT
ATOM      1  C   LIG    1       -1.583   6.586  -1.598  0.00  0.00    +0.150 C 
ATOM      2  C   LIG    1       -0.173   6.517  -2.126  0.00  0.00    +0.100 A 
ATOM      3  C   LIG    1        0.849   6.065  -1.397  0.00  0.00    -0.240 A 
ATOM      4  S   LIG    1        2.304   6.148  -2.387  0.00  0.00    +0.120 S 
ATOM      5  C   LIG    1        1.397   6.791  -3.686  0.00  0.00    +0.270 A 
ATOM      6  N   LIG    1        0.151   6.904  -3.346  0.00  0.00    -0.470 NA
ENDROOT
BRANCH   5   7
ATOM      7  N   LIG    1        1.919   7.141  -4.924  0.00  0.00    -0.630 N 
ATOM      8  H   LIG    1        2.866   7.026  -5.101  0.00  0.00    +0.420 HD
ATOM      9  C   LIG    1        1.111   7.641  -5.879  0.00  0.00    +0.560 C 
ATOM     10  O   LIG    1       -0.076   7.785  -5.657  0.00  0.00    -0.470 OA
BRANCH   9  11
ATOM     11  C   LIG    1        1.665   8.013  -7.195  0.00  0.00    -0.180 A 
ATOM     12  C   LIG    1        3.030   7.854  -7.451  0.00  0.00    +0.090 A 
ATOM     13  C   LIG    1        3.543   8.197  -8.682  0.00  0.00    -0.080 A 
ATOM     14  C   LIG    1        2.707   8.712  -9.666  0.00  0.00    +0.170 A 
ATOM     15  C   LIG    1        1.350   8.877  -9.414  0.00  0.00    -0.020 A 
ATOM     16  C   LIG    1        0.828   8.531  -8.187  0.00  0.00    +0.140 A 
BRANCH  14  17
ATOM     17  O   LIG    1        3.217   9.054 -10.876  0.00  0.00    -0.310 OA
BRANCH  17  18
ATOM     18  C   LIG    1        4.619   8.858 -11.068  0.00  0.00    +0.190 C 
BRANCH  18  19
ATOM     19  C   LIG    1        5.007   9.297 -12.481  0.00  0.00    +0.040 C 
BRANCH  19  20
ATOM     20  C   LIG    1        6.509   9.088 -12.686  0.00  0.00    -0.020 C 
ATOM     21  C   LIG    1        7.286  10.012 -11.747  0.00  0.00    +0.020 C 
ATOM     22  C   LIG    1        6.875   9.409 -14.137  0.00  0.00    +0.030 C 
ENDBRANCH  19  20
ENDBRANCH  18  19
ENDBRANCH  17  18
ENDBRANCH  14  17
ENDBRANCH   9  11
ENDBRANCH   5   7
BRANCH   3  23
ATOM     23  C   LIG    1        0.771   5.565   0.022  0.00  0.00    +0.200 C 
BRANCH  23  24
ATOM     24  C   LIG    1        0.496   4.083   0.018  0.00  0.00    -0.070 A 
ATOM     25  C   LIG    1       -0.808   3.624   0.028  0.00  0.00    +0.040 A 
ATOM     26  C   LIG    1       -1.065   2.265   0.019  0.00  0.00    +0.040 A 
ATOM     27  C   LIG    1       -0.016   1.361   0.009  0.00  0.00    +0.030 A 
ATOM     28  O   LIG    1        0.002  -0.004   0.002  0.00  0.00    -0.310 OA
ATOM     29  C   LIG    1        1.336  -0.373   0.399  0.00  0.00    +0.430 C 
ATOM     30  O   LIG    1        2.139   0.749  -0.014  0.00  0.00    -0.310 OA
ATOM     31  C   LIG    1        1.297   1.824  -0.001  0.00  0.00    +0.040 A 
ATOM     32  C   LIG    1        1.548   3.186   0.004  0.00  0.00    +0.040 A 
ENDBRANCH  23  24
ENDBRANCH   3  23
TORSDOF 8
