REMARK  Name = ZINCtV00000L6lbJ.0
REMARK                            x       y       z     vdW  Elec       q    Type
REMARK                         _______ _______ _______ _____ _____    ______ ____
ROOT
ATOM      1  C   LIG    1       -0.016   1.312   0.009  0.00  0.00    +0.260 A 
ATOM      2  N   LIG    1        0.002  -0.004   0.002  0.00  0.00    -0.500 NA
ATOM      3  C   LIG    1        1.155  -0.681  -0.013  0.00  0.00    +0.330 A 
ATOM      4  C   LIG    1        1.448  -2.050  -0.022  0.00  0.00    -0.230 A 
ATOM      5  C   LIG    1        2.842  -2.176  -0.035  0.00  0.00    +0.320 A 
ATOM      6  N   LIG    1        3.375  -0.979  -0.035  0.00  0.00    -0.330 NA
ATOM      7  N   LIG    1        2.356  -0.021  -0.021  0.00  0.00    -0.350 N 
ATOM      8  C   LIG    1        2.376   1.349  -0.014  0.00  0.00    +0.490 A 
ATOM      9  C   LIG    1        1.178   2.032   0.002  0.00  0.00    -0.160 A 
ENDROOT
BRANCH   4  10
ATOM     10  C   LIG    1        0.465  -3.159  -0.018  0.00  0.00    +0.020 A 
ATOM     11  C   LIG    1       -0.567  -3.176   0.920  0.00  0.00    +0.040 A 
ATOM     12  C   LIG    1       -1.482  -4.209   0.917  0.00  0.00    +0.020 A 
ATOM     13  C   LIG    1       -1.371  -5.232  -0.009  0.00  0.00    -0.040 A 
ATOM     14  C   LIG    1       -0.345  -5.223  -0.939  0.00  0.00    +0.020 A 
ATOM     15 CL   LIG    1       -2.522  -6.532  -0.004  0.00  0.00    -0.080 Cl
ATOM     16  C   LIG    1        0.572  -4.193  -0.948  0.00  0.00    +0.030 A 
ENDBRANCH   4  10
BRANCH   1  18
ATOM     17  C   LIG    1       -2.479   1.030   0.019  0.00  0.00    +0.050 C 
ATOM     18  C   LIG    1       -1.333   2.044   0.019  0.00  0.00    -0.020 C 
ATOM     19  C   LIG    1       -1.435   2.929  -1.224  0.00  0.00    +0.050 C 
ATOM     20  C   LIG    1       -1.423   2.915   1.274  0.00  0.00    +0.050 C 
ENDBRANCH   1  18
BRANCH   8  21
ATOM     21  N   LIG    1        3.573   2.032  -0.021  0.00  0.00    -0.710 N 
ATOM     22  H   LIG    1        4.410   1.544  -0.031  0.00  0.00    +0.420 HD
BRANCH  21  23
ATOM     23  C   LIG    1        3.580   3.497  -0.013  0.00  0.00    +0.290 C 
BRANCH  23  24
ATOM     24  C   LIG    1        5.025   4.001  -0.024  0.00  0.00    +0.070 C 
BRANCH  24  25
ATOM     25  C   LIG    1        5.032   5.508  -0.016  0.00  0.00    -0.090 A 
ATOM     26  C   LIG    1        5.030   6.205  -1.210  0.00  0.00    +0.010 A 
ATOM     27  C   LIG    1        5.032   7.587  -1.203  0.00  0.00    +0.000 A 
ATOM     28  C   LIG    1        5.046   8.272  -0.002  0.00  0.00    +0.000 A 
ATOM     29  C   LIG    1        5.053   7.575   1.191  0.00  0.00    +0.000 A 
ATOM     30  C   LIG    1        5.046   6.192   1.184  0.00  0.00    +0.010 A 
ENDBRANCH  24  25
ENDBRANCH  23  24
ENDBRANCH  21  23
ENDBRANCH   8  21
TORSDOF 6
