REMARK  Name = ZINCrH000004sqSp.0
REMARK                            x       y       z     vdW  Elec       q    Type
REMARK                         _______ _______ _______ _____ _____    ______ ____
ROOT
ATOM      1  N   LIG    1       -1.680   5.192   2.888  0.00  0.00    -0.700 N 
ATOM      2  H   LIG    1       -2.366   5.820   2.613  0.00  0.00    +0.410 HD
ATOM      3  C   LIG    1       -0.383   5.462   2.641  0.00  0.00    +0.620 C 
ATOM      4  O   LIG    1        0.478   4.675   2.986  0.00  0.00    -0.520 OA
ENDROOT
BRANCH   1   5
ATOM      5  C   LIG    1       -2.053   3.952   3.571  0.00  0.00    +0.280 C 
ATOM      6  C   LIG    1       -1.399   3.914   4.954  0.00  0.00    +0.040 C 
ATOM      7  C   LIG    1       -1.875   5.113   5.776  0.00  0.00    +0.020 C 
ATOM      8  C   LIG    1       -3.396   5.054   5.931  0.00  0.00    +0.020 C 
ATOM      9  C   LIG    1       -4.051   5.091   4.548  0.00  0.00    +0.020 C 
ATOM     10  C   LIG    1       -3.574   3.892   3.725  0.00  0.00    +0.040 C 
BRANCH   5  14
ATOM     11  C   LIG    1       -0.013   1.086   0.008  0.00  0.00    +0.240 C 
ATOM     12  C   LIG    1       -0.718   1.572   1.248  0.00  0.00    +0.170 A 
ATOM     13  N   LIG    1       -0.920   2.821   1.593  0.00  0.00    -0.460 NA
ATOM     14  C   LIG    1       -1.584   2.771   2.761  0.00  0.00    +0.170 A 
ATOM     15  N   LIG    1       -1.743   1.518   3.065  0.00  0.00    -0.380 NA
ATOM     16  O   LIG    1       -1.252   0.812   2.209  0.00  0.00    +0.070 OA
ENDBRANCH   5  14
ENDBRANCH   1   5
BRANCH   3  17
ATOM     17  C   LIG    1       -0.006   6.713   1.952  0.00  0.00    -0.010 A 
ATOM     18  N   LIG    1       -0.828   7.648   1.519  0.00  0.00    -0.260 NA
ATOM     19  N   LIG    1       -0.163   8.600   0.971  0.00  0.00    -0.260 N 
ATOM     20  C   LIG    1        1.159   8.328   1.007  0.00  0.00    +0.050 A 
ATOM     21  C   LIG    1        1.305   7.132   1.625  0.00  0.00    -0.020 A 
BRANCH  19  22
ATOM     22  C   LIG    1       -0.754   9.805   0.383  0.00  0.00    +0.170 C 
ATOM     23  C   LIG    1       -0.212  11.042   1.103  0.00  0.00    +0.050 C 
ATOM     24  C   LIG    1       -2.275   9.752   0.534  0.00  0.00    +0.070 C 
ATOM     25  C   LIG    1       -0.391   9.880  -1.101  0.00  0.00    +0.050 C 
ENDBRANCH  19  22
BRANCH  20  26
ATOM     26  C   LIG    1        2.266   9.193   0.462  0.00  0.00    +0.010 C 
ATOM     27  C   LIG    1        3.493   8.489  -0.120  0.00  0.00    +0.040 C 
ATOM     28  C   LIG    1        3.591   9.210   1.227  0.00  0.00    +0.040 C 
ENDBRANCH  20  26
ENDBRANCH   3  17
TORSDOF 5
