REMARK  Name = ZINCc70000001EzY.0
REMARK                            x       y       z     vdW  Elec       q    Type
REMARK                         _______ _______ _______ _____ _____    ______ ____
ROOT
ATOM      1  C   LIG    1       -0.018   1.461   0.010  0.00  0.00    +0.330 C 
ENDROOT
BRANCH   1   2
ATOM      2  C   LIG    1       -0.723   1.947   1.250  0.00  0.00    -0.060 A 
ATOM      3  C   LIG    1       -2.091   2.170   1.246  0.00  0.00    -0.010 A 
ATOM      4  C   LIG    1       -2.705   2.612   2.404  0.00  0.00    +0.260 A 
ATOM      5  N   LIG    1       -2.002   2.830   3.498  0.00  0.00    -0.480 NA
ATOM      6  C   LIG    1       -0.699   2.632   3.537  0.00  0.00    +0.260 A 
ATOM      7  C   LIG    1       -0.018   2.187   2.420  0.00  0.00    -0.020 A 
ENDBRANCH   1   2
BRANCH   1   8
ATOM      8  N   LIG    1        0.002  -0.004   0.002  0.00  0.00    -1.120 NA
ATOM      9  H   LIG    1       -0.201  -0.496   0.813  0.00  0.00    +0.420 HD
BRANCH   8  11
ATOM     10  C   LIG    1        2.098  -0.378  -1.730  0.00  0.00    -0.280 C 
ATOM     11  S   LIG    1        0.371  -0.820  -1.391  0.00  0.00    +2.620 S 
ATOM     12  O   LIG    1       -0.490  -0.252  -2.368  0.00  0.00    -0.950 OA
ATOM     13  O   LIG    1        0.269  -2.191  -1.032  0.00  0.00    -0.950 OA
ENDBRANCH   8  11
ENDBRANCH   1   8
TORSDOF 3
