REMARK  Name = ZINCpk00000xI7wJ.0
REMARK                            x       y       z     vdW  Elec       q    Type
REMARK                         _______ _______ _______ _____ _____    ______ ____
ROOT
ATOM      1  N   LIG    1       -0.474   5.376  -3.795  0.00  0.00    -0.730 N 
ATOM      2  H   LIG    1       -1.417   5.216  -3.959  0.00  0.00    +0.400 HD
ATOM      3  C   LIG    1        0.057   5.093  -2.589  0.00  0.00    +0.710 C 
ATOM      4  N   LIG    1       -0.738   4.681  -1.582  0.00  0.00    -0.740 N 
ATOM      5  H   LIG    1       -1.681   4.519  -1.744  0.00  0.00    +0.390 HD
ATOM      6  O   LIG    1        1.254   5.208  -2.410  0.00  0.00    -0.570 OA
ENDROOT
BRANCH   1   8
ATOM      7  C   LIG    1        1.029   4.781  -5.630  0.00  0.00    +0.040 C 
ATOM      8  C   LIG    1        0.371   5.926  -4.857  0.00  0.00    +0.250 C 
BRANCH   8   9
ATOM      9  C   LIG    1       -0.486   6.759  -5.812  0.00  0.00    +0.340 C 
BRANCH   9  10
ATOM     10  N   LIG    1       -1.028   7.918  -5.097  0.00  0.00    -0.380 N 
ATOM     11  C   LIG    1       -0.879   9.211  -5.430  0.00  0.00    +0.470 A 
ATOM     12  N   LIG    1       -1.514   9.934  -4.544  0.00  0.00    -0.550 NA
ATOM     13  C   LIG    1       -2.071   9.142  -3.629  0.00  0.00    +0.410 A 
ATOM     14  N   LIG    1       -1.801   7.897  -3.925  0.00  0.00    -0.310 NA
ENDBRANCH   9  10
ENDBRANCH   8   9
ENDBRANCH   1   8
BRANCH   4  15
ATOM     15  C   LIG    1       -0.179   4.479  -0.243  0.00  0.00    +0.420 C 
BRANCH  15  16
ATOM     16  C   LIG    1        0.385   3.085  -0.140  0.00  0.00    +0.180 A 
ATOM     17  N   LIG    1        1.571   2.713  -0.538  0.00  0.00    -0.450 NA
ATOM     18  C   LIG    1        1.731   1.405  -0.289  0.00  0.00    +0.140 A 
ATOM     19  C   LIG    1        0.601   0.949   0.285  0.00  0.00    +0.120 A 
ATOM     20  N   LIG    1       -0.255   2.013   0.375  0.00  0.00    -0.450 N 
BRANCH  20  21
ATOM     21  C   LIG    1       -1.611   1.993   0.929  0.00  0.00    +0.340 C 
BRANCH  21  22
ATOM     22  C   LIG    1       -2.607   1.808  -0.187  0.00  0.00    -0.110 A 
ATOM     23  C   LIG    1       -3.243   2.906  -0.735  0.00  0.00    +0.010 A 
ATOM     24  C   LIG    1       -4.152   2.737  -1.762  0.00  0.00    +0.010 A 
ATOM     25  C   LIG    1       -4.434   1.468  -2.233  0.00  0.00    +0.020 A 
ATOM     26  C   LIG    1       -3.802   0.370  -1.682  0.00  0.00    +0.010 A 
ATOM     27  C   LIG    1       -2.888   0.540  -0.658  0.00  0.00    +0.020 A 
ENDBRANCH  21  22
ENDBRANCH  20  21
ENDBRANCH  15  16
ENDBRANCH   4  15
TORSDOF 7
