REMARK  Name = ZINCpe000000VnV5.0
REMARK                            x       y       z     vdW  Elec       q    Type
REMARK                         _______ _______ _______ _____ _____    ______ ____
ROOT
ATOM      1  C   LIG    1       -4.710   1.713   1.860  0.00  0.00    -0.040 C 
ATOM      2  C   LIG    1       -4.433   1.186   3.236  0.00  0.00    +0.030 C 
ATOM      3  C   LIG    1       -2.969   0.817   3.443  0.00  0.00    +0.230 C 
ATOM      4  O   LIG    1       -2.595  -0.073   2.382  0.00  0.00    -0.370 OA
ATOM      5  C   LIG    1       -2.530   0.583   1.123  0.00  0.00    +0.220 C 
ATOM      6  C   LIG    1       -4.693   3.248   1.792  0.00  0.00    +0.290 C 
ATOM      7  N   LIG    1       -3.535   3.574   0.924  0.00  0.00    -0.630 N 
ATOM      8  C   LIG    1       -2.684   4.613   1.038  0.00  0.00    +0.550 C 
ATOM      9  O   LIG    1       -1.835   4.797   0.192  0.00  0.00    -0.520 OA
ATOM     10  C   LIG    1       -3.530   2.503  -0.103  0.00  0.00    +0.290 C 
ATOM     11  C   LIG    1       -3.847   1.215   0.716  0.00  0.00    -0.010 C 
ENDROOT
BRANCH   8  12
ATOM     12  C   LIG    1       -2.788   5.546   2.217  0.00  0.00    +0.070 C 
ATOM     13  C   LIG    1       -1.388   6.023   2.624  0.00  0.00    +0.040 C 
ATOM     14  C   LIG    1       -1.506   7.149   3.654  0.00  0.00    +0.040 C 
ATOM     15  C   LIG    1       -2.017   8.424   2.973  0.00  0.00    +0.140 C 
ATOM     16  C   LIG    1       -3.254   8.072   2.182  0.00  0.00    +0.090 A 
ATOM     17  N   LIG    1       -4.162   8.873   1.706  0.00  0.00    -0.290 NA
ATOM     18  N   LIG    1       -5.126   8.098   1.045  0.00  0.00    -0.380 N 
ATOM     19  C   LIG    1       -4.761   6.800   1.149  0.00  0.00    +0.240 A 
ATOM     20  C   LIG    1       -6.321   8.604   0.366  0.00  0.00    +0.360 C 
ATOM     21  C   LIG    1       -3.607   6.756   1.840  0.00  0.00    -0.230 A 
ENDBRANCH   8  12
BRANCH   1  22
ATOM     22  C   LIG    1       -6.122   1.298   1.536  0.00  0.00    +0.460 C 
ATOM     23  O   LIG    1       -6.342   0.609   0.569  0.00  0.00    -0.490 OA
BRANCH  22  25
ATOM     24  C   LIG    1       -8.469   1.257   1.950  0.00  0.00    +0.270 C 
ATOM     25  O   LIG    1       -7.135   1.694   2.323  0.00  0.00    -0.350 OA
ENDBRANCH  22  25
ENDBRANCH   1  22
TORSDOF 3
