REMARK  Name = ZINCrH000004nBEl.0
REMARK                            x       y       z     vdW  Elec       q    Type
REMARK                         _______ _______ _______ _____ _____    ______ ____
ROOT
ATOM      1  N   LIG    1        8.083   3.310   1.230  0.00  0.00    -0.480 N 
ATOM      2  C   LIG    1        9.102   2.252   1.264  0.00  0.00    +0.190 C 
ATOM      3  C   LIG    1        8.917   1.330   0.054  0.00  0.00    +0.300 C 
ATOM      4  N   LIG    1        7.526   0.852   0.039  0.00  0.00    -0.590 N 
ATOM      5  C   LIG    1        6.447   1.848   0.135  0.00  0.00    +0.300 C 
ATOM      6  C   LIG    1        7.247  -0.462  -0.065  0.00  0.00    +0.590 C 
ATOM      7  O   LIG    1        6.090  -0.838  -0.095  0.00  0.00    -0.530 OA
ATOM      8  C   LIG    1        6.730   2.750   1.347  0.00  0.00    +0.180 C 
ENDROOT
BRANCH   1  14
ATOM      9  C   LIG    1        9.445   5.082   2.156  0.00  0.00    +0.120 A 
ATOM     10  C   LIG    1        9.672   6.027   3.143  0.00  0.00    -0.060 A 
ATOM     11  C   LIG    1        8.782   6.157   4.194  0.00  0.00    +0.020 A 
ATOM     12  C   LIG    1        7.664   5.347   4.263  0.00  0.00    -0.010 A 
ATOM     13  C   LIG    1        7.427   4.406   3.278  0.00  0.00    +0.000 A 
ATOM     14  C   LIG    1        8.318   4.265   2.225  0.00  0.00    +0.080 A 
BRANCH   9  16
ATOM     15  C   LIG    1       11.452   5.823   1.118  0.00  0.00    +0.220 C 
ATOM     16  O   LIG    1       10.319   4.952   1.123  0.00  0.00    -0.300 OA
ENDBRANCH   9  16
ENDBRANCH   1  14
BRANCH   6  17
ATOM     17  C   LIG    1        8.342  -1.444  -0.143  0.00  0.00    +0.020 A 
ATOM     18  C   LIG    1        8.127  -2.777  -0.082  0.00  0.00    -0.020 A 
ATOM     19  S   LIG    1        9.624  -3.593  -0.210  0.00  0.00    +0.200 S 
ATOM     20  C   LIG    1       10.471  -2.055  -0.332  0.00  0.00    +0.090 A 
ATOM     21  N   LIG    1        9.611  -1.084  -0.277  0.00  0.00    -0.430 NA
BRANCH  20  22
ATOM     22  C   LIG    1       11.934  -1.894  -0.480  0.00  0.00    -0.030 A 
ATOM     23  C   LIG    1       12.761  -3.017  -0.526  0.00  0.00    +0.030 A 
ATOM     24  C   LIG    1       14.125  -2.860  -0.665  0.00  0.00    +0.010 A 
ATOM     25  C   LIG    1       14.673  -1.593  -0.758  0.00  0.00    +0.030 A 
ATOM     26  C   LIG    1       13.858  -0.476  -0.712  0.00  0.00    +0.010 A 
ATOM     27  C   LIG    1       12.493  -0.619  -0.573  0.00  0.00    +0.070 A 
ENDBRANCH  20  22
ENDBRANCH   6  17
TORSDOF 4
