REMARK  Name = ZINCtj0000000I5o.1
REMARK                            x       y       z     vdW  Elec       q    Type
REMARK                         _______ _______ _______ _____ _____    ______ ____
ROOT
ATOM      1  N   LIG    1       -1.091   1.299  -1.284  0.00  0.00    -0.370 N 
ATOM      2  C   LIG    1       -0.556   0.818  -0.005  0.00  0.00    +0.270 C 
ATOM      3  C   LIG    1       -1.495   1.227   1.131  0.00  0.00    +0.050 C 
ATOM      4  C   LIG    1       -2.876   0.612   0.892  0.00  0.00    +0.250 C 
ATOM      5  C   LIG    1       -3.393   1.061  -0.478  0.00  0.00    +0.070 C 
ATOM      6  C   LIG    1       -2.384   0.658  -1.555  0.00  0.00    +0.260 C 
ATOM      7  H   LIG    1       -1.216   2.299  -1.240  0.00  0.00    +0.430 HD
ENDROOT
BRANCH   4   8
ATOM      8  N   LIG    1       -3.800   1.061   1.936  0.00  0.00    -0.730 N 
ATOM      9  H   LIG    1       -4.367   1.833   1.782  0.00  0.00    +0.410 HD
ATOM     10  C   LIG    1       -3.863   0.402   3.110  0.00  0.00    +0.570 C 
ATOM     11  O   LIG    1       -3.152  -0.565   3.302  0.00  0.00    -0.530 OA
BRANCH  10  12
ATOM     12  C   LIG    1       -4.795   0.856   4.164  0.00  0.00    -0.150 A 
ATOM     13  C   LIG    1       -5.609   1.970   3.948  0.00  0.00    +0.030 A 
ATOM     14  C   LIG    1       -6.480   2.385   4.934  0.00  0.00    +0.000 A 
ATOM     15  C   LIG    1       -6.542   1.706   6.138  0.00  0.00    +0.050 A 
ATOM     16  C   LIG    1       -5.735   0.604   6.360  0.00  0.00    +0.020 A 
ATOM     17  C   LIG    1       -4.863   0.175   5.380  0.00  0.00    +0.080 A 
ENDBRANCH  10  12
ENDBRANCH   4   8
BRANCH   1  18
ATOM     18  C   LIG    1       -0.149   0.972  -2.362  0.00  0.00    +0.160 C 
ATOM     19  C   LIG    1        1.212   1.602  -2.059  0.00  0.00    +0.120 C 
BRANCH  18  21
ATOM     20  N   LIG    1       -0.377   0.884  -4.824  0.00  0.00    -0.580 N 
ATOM     21  C   LIG    1       -0.673   1.512  -3.668  0.00  0.00    +0.510 C 
ATOM     22  O   LIG    1       -1.360   2.511  -3.679  0.00  0.00    -0.510 OA
BRANCH  20  23
ATOM     23  C   LIG    1       -0.982   1.337  -6.079  0.00  0.00    +0.270 C 
ATOM     24  C   LIG    1       -1.751   0.181  -6.741  0.00  0.00    +0.070 C 
ATOM     25  C   LIG    1       -2.079   0.575  -8.195  0.00  0.00    -0.290 C 
ATOM     26  S   LIG    1       -0.757   1.740  -8.684  0.00  0.00    +2.400 S 
ATOM     27  O   LIG    1        0.071   1.131  -9.666  0.00  0.00    -0.920 OA
ATOM     28  O   LIG    1       -1.323   3.019  -8.930  0.00  0.00    -0.920 OA
ATOM     29  C   LIG    1        0.125   1.765  -7.077  0.00  0.00    -0.320 C 
ENDBRANCH  20  23
BRANCH  20  31
ATOM     30  C   LIG    1       -0.215  -1.532  -4.483  0.00  0.00    +0.030 C 
ATOM     31  C   LIG    1        0.548  -0.252  -4.825  0.00  0.00    +0.280 C 
ENDBRANCH  20  31
ENDBRANCH  18  21
ENDBRANCH   1  18
TORSDOF 6
