REMARK  Name = ZINCrH00000No53j.0
REMARK                            x       y       z     vdW  Elec       q    Type
REMARK                         _______ _______ _______ _____ _____    ______ ____
ROOT
ATOM      1  C   LIG    1        0.019   5.161   0.071  0.00  0.00    +0.560 C 
ATOM      2  N   LIG    1        0.009   3.826  -0.116  0.00  0.00    -0.460 N 
ATOM      3  C   LIG    1        1.186   3.153  -0.302  0.00  0.00    +0.260 A 
ATOM      4  C   LIG    1        1.194   1.819  -0.490  0.00  0.00    -0.040 A 
ATOM      5  C   LIG    1       -0.011   1.092  -0.498  0.00  0.00    +0.090 A 
ATOM      6  C   LIG    1       -1.191   1.739  -0.320  0.00  0.00    -0.050 A 
ATOM      7  C   LIG    1       -1.190   3.141  -0.119  0.00  0.00    +0.370 A 
ATOM      8  N   LIG    1       -2.321   3.785   0.060  0.00  0.00    -0.530 NA
ATOM      9  O   LIG    1       -1.028   5.774   0.135  0.00  0.00    -0.420 OA
ENDROOT
BRANCH   1  15
ATOM     10  N   LIG    1        4.910   7.756   0.607  0.00  0.00    -0.380 N 
ATOM     11  N   LIG    1        5.654   6.756   1.238  0.00  0.00    -0.230 NA
ATOM     12  C   LIG    1        4.919   5.697   1.420  0.00  0.00    +0.300 A 
ATOM     13  C   LIG    1        3.592   5.984   0.884  0.00  0.00    -0.230 A 
ATOM     14  C   LIG    1        2.403   5.258   0.792  0.00  0.00    +0.190 A 
ATOM     15  C   LIG    1        1.302   5.878   0.197  0.00  0.00    -0.240 A 
ATOM     16  C   LIG    1        1.433   7.189  -0.284  0.00  0.00    +0.410 A 
ATOM     17  N   LIG    1        2.564   7.846  -0.176  0.00  0.00    -0.500 NA
ATOM     18  C   LIG    1        3.641   7.302   0.382  0.00  0.00    +0.340 A 
BRANCH  10  20
ATOM     19  C   LIG    1        5.876   9.816   1.504  0.00  0.00    +0.050 C 
ATOM     20  C   LIG    1        5.411   9.084   0.244  0.00  0.00    +0.270 C 
ATOM     21  C   LIG    1        6.586   8.938  -0.725  0.00  0.00    +0.050 C 
ENDBRANCH  10  20
ENDBRANCH   1  15
BRANCH   8  22
ATOM     22  C   LIG    1       -3.576   3.040   0.191  0.00  0.00    +0.130 C 
ATOM     23  C   LIG    1       -4.580   3.547  -0.846  0.00  0.00    +0.030 C 
ATOM     24  C   LIG    1       -5.891   2.768  -0.710  0.00  0.00    +0.000 C 
ATOM     25  C   LIG    1       -6.461   2.972   0.695  0.00  0.00    +0.000 C 
ATOM     26  C   LIG    1       -5.456   2.464   1.732  0.00  0.00    +0.000 C 
ATOM     27  C   LIG    1       -4.146   3.243   1.596  0.00  0.00    +0.030 C 
ENDBRANCH   8  22
TORSDOF 3
