REMARK  Name = ZINCqH0000033N5e.1
REMARK                            x       y       z     vdW  Elec       q    Type
REMARK                         _______ _______ _______ _____ _____    ______ ____
ROOT
ATOM      1  N   LIG    1        4.750   0.163  -0.626  0.00  0.00    -0.720 N 
ATOM      2  H   LIG    1        4.686   1.127  -0.535  0.00  0.00    +0.400 HD
ATOM      3  C   LIG    1        5.784  -0.384  -1.295  0.00  0.00    +0.560 C 
ATOM      4  O   LIG    1        5.864  -1.591  -1.409  0.00  0.00    -0.520 OA
ENDROOT
BRANCH   3   5
ATOM      5  C   LIG    1        6.823   0.485  -1.889  0.00  0.00    -0.130 A 
ATOM      6  C   LIG    1        6.733   1.873  -1.759  0.00  0.00    +0.060 A 
ATOM      7  C   LIG    1        7.702   2.686  -2.314  0.00  0.00    +0.020 A 
ATOM      8  C   LIG    1        8.764   2.133  -3.000  0.00  0.00    +0.050 A 
ATOM      9  C   LIG    1        8.867   0.747  -3.138  0.00  0.00    -0.020 A 
ATOM     10  C   LIG    1        7.896  -0.079  -2.575  0.00  0.00    +0.130 A 
BRANCH   9  11
ATOM     11  C   LIG    1       10.007   0.157  -3.873  0.00  0.00    +0.220 A 
ATOM     12  N   LIG    1       10.227  -1.122  -4.079  0.00  0.00    -0.270 NA
ATOM     13  N   LIG    1       11.309  -1.273  -4.755  0.00  0.00    -0.290 NA
ATOM     14  C   LIG    1       11.838  -0.108  -5.020  0.00  0.00    +0.400 A 
ATOM     15  N   LIG    1       11.029   0.840  -4.474  0.00  0.00    -0.580 N 
ATOM     16  H   LIG    1       11.152   1.802  -4.504  0.00  0.00    +0.430 HD
ENDBRANCH   9  11
ENDBRANCH   3   5
BRANCH   1  17
ATOM     17  C   LIG    1        3.721  -0.698  -0.038  0.00  0.00    +0.310 C 
BRANCH  17  23
ATOM     18  C   LIG    1        1.921  -2.167  -0.982  0.00  0.00    +0.140 A 
ATOM     19  C   LIG    1        0.952  -2.443  -1.935  0.00  0.00    -0.080 A 
ATOM     20  C   LIG    1        0.732  -1.556  -2.971  0.00  0.00    +0.040 A 
ATOM     21  C   LIG    1        1.476  -0.394  -3.058  0.00  0.00    -0.040 A 
ATOM     22  C   LIG    1        2.443  -0.117  -2.109  0.00  0.00    +0.050 A 
ATOM     23  C   LIG    1        2.667  -1.000  -1.071  0.00  0.00    -0.130 A 
BRANCH  18  24
ATOM     24  O   LIG    1        2.140  -3.038   0.038  0.00  0.00    -0.310 OA
BRANCH  24  26
ATOM     25  C   LIG    1        1.723  -5.071   1.277  0.00  0.00    +0.070 C 
ATOM     26  C   LIG    1        1.336  -4.219   0.067  0.00  0.00    +0.170 C 
ENDBRANCH  24  26
ENDBRANCH  18  24
ENDBRANCH  17  23
BRANCH  17  27
ATOM     27  C   LIG    1        3.078   0.017   1.152  0.00  0.00    +0.030 C 
ATOM     28  C   LIG    1        4.121   0.213   2.254  0.00  0.00    +0.020 C 
ENDBRANCH  17  27
ENDBRANCH   1  17
TORSDOF 7
