REMARK  Name = ZINCqH0000033N5e.0
REMARK                            x       y       z     vdW  Elec       q    Type
REMARK                         _______ _______ _______ _____ _____    ______ ____
ROOT
ATOM      1  N   LIG    1        4.750   0.163  -0.626  0.00  0.00    -0.720 N 
ATOM      2  H   LIG    1        4.686   1.127  -0.535  0.00  0.00    +0.400 HD
ATOM      3  C   LIG    1        5.784  -0.384  -1.295  0.00  0.00    +0.560 C 
ATOM      4  O   LIG    1        5.864  -1.591  -1.409  0.00  0.00    -0.520 OA
ENDROOT
BRANCH   3   5
ATOM      5  C   LIG    1        6.823   0.485  -1.889  0.00  0.00    -0.140 A 
ATOM      6  C   LIG    1        6.730   1.873  -1.764  0.00  0.00    +0.060 A 
ATOM      7  C   LIG    1        7.702   2.684  -2.315  0.00  0.00    +0.010 A 
ATOM      8  C   LIG    1        8.765   2.130  -3.001  0.00  0.00    +0.090 A 
ATOM      9  C   LIG    1        8.866   0.746  -3.137  0.00  0.00    -0.020 A 
ATOM     10  C   LIG    1        7.894  -0.078  -2.581  0.00  0.00    +0.120 A 
BRANCH   9  11
ATOM     11  C   LIG    1       10.009   0.153  -3.874  0.00  0.00    +0.270 A 
ATOM     12  N   LIG    1       10.216  -1.131  -4.063  0.00  0.00    -0.300 NA
ATOM     13  N   LIG    1       11.402  -1.244  -4.808  0.00  0.00    -0.480 N 
ATOM     14  H   LIG    1       11.821  -2.065  -5.110  0.00  0.00    +0.450 HD
ATOM     15  C   LIG    1       11.844   0.009  -5.015  0.00  0.00    +0.500 A 
ATOM     16  N   LIG    1       11.005   0.839  -4.453  0.00  0.00    -0.540 NA
ENDBRANCH   9  11
ENDBRANCH   3   5
BRANCH   1  17
ATOM     17  C   LIG    1        3.721  -0.698  -0.038  0.00  0.00    +0.300 C 
BRANCH  17  23
ATOM     18  C   LIG    1        1.921  -2.167  -0.982  0.00  0.00    +0.140 A 
ATOM     19  C   LIG    1        0.952  -2.443  -1.935  0.00  0.00    -0.080 A 
ATOM     20  C   LIG    1        0.732  -1.556  -2.971  0.00  0.00    +0.040 A 
ATOM     21  C   LIG    1        1.476  -0.394  -3.058  0.00  0.00    -0.040 A 
ATOM     22  C   LIG    1        2.443  -0.117  -2.109  0.00  0.00    +0.050 A 
ATOM     23  C   LIG    1        2.667  -1.000  -1.071  0.00  0.00    -0.130 A 
BRANCH  18  24
ATOM     24  O   LIG    1        2.140  -3.038   0.038  0.00  0.00    -0.310 OA
BRANCH  24  26
ATOM     25  C   LIG    1        1.724  -5.071   1.277  0.00  0.00    +0.070 C 
ATOM     26  C   LIG    1        1.336  -4.219   0.066  0.00  0.00    +0.170 C 
ENDBRANCH  24  26
ENDBRANCH  18  24
ENDBRANCH  17  23
BRANCH  17  27
ATOM     27  C   LIG    1        3.078   0.017   1.152  0.00  0.00    +0.030 C 
ATOM     28  C   LIG    1        4.121   0.213   2.254  0.00  0.00    +0.030 C 
ENDBRANCH  17  27
ENDBRANCH   1  17
TORSDOF 7
