REMARK  Name = ZINCrD00000F5LtF.0
REMARK                            x       y       z     vdW  Elec       q    Type
REMARK                         _______ _______ _______ _____ _____    ______ ____
ROOT
ATOM      1  C   LIG    1       -2.320   4.676   0.039  0.00  0.00    +0.230 C 
ATOM      2  C   LIG    1       -2.889   4.755   1.471  0.00  0.00    +0.060 C 
ATOM      3  C   LIG    1       -3.382   6.223   1.570  0.00  0.00    +0.040 C 
ATOM      4  C   LIG    1       -2.312   6.967   0.731  0.00  0.00    +0.270 C 
ATOM      5  N   LIG    1       -1.997   6.049  -0.378  0.00  0.00    -0.600 N 
ATOM      6  C   LIG    1       -1.494   6.408  -1.576  0.00  0.00    +0.570 C 
ATOM      7  O   LIG    1       -1.271   5.561  -2.421  0.00  0.00    -0.530 OA
ENDROOT
BRANCH   1   9
ATOM      8  O   LIG    1        0.018   4.359   0.026  0.00  0.00    -0.450 OA
ATOM      9  C   LIG    1       -1.073   3.830   0.028  0.00  0.00    +0.500 C 
ATOM     10  N   LIG    1       -1.171   2.486   0.021  0.00  0.00    -0.640 N 
ATOM     11  H   LIG    1       -2.044   2.063   0.023  0.00  0.00    +0.420 HD
BRANCH  10  12
ATOM     12  C   LIG    1       -0.021   1.705   0.011  0.00  0.00    +0.270 A 
ATOM     13  N   LIG    1        1.190   2.168   0.002  0.00  0.00    -0.480 NA
ATOM     14  C   LIG    1        2.168   1.281  -0.012  0.00  0.00    +0.250 A 
ATOM     15  C   LIG    1        1.764   0.009  -0.015  0.00  0.00    -0.090 A 
ATOM     16  S   LIG    1        0.002  -0.004   0.002  0.00  0.00    +0.120 S 
ENDBRANCH  10  12
ENDBRANCH   1   9
BRANCH   6  17
ATOM     17  C   LIG    1       -1.218   7.815  -1.861  0.00  0.00    -0.080 C 
ATOM     18  C   LIG    1       -0.714   8.175  -3.062  0.00  0.00    +0.150 C 
BRANCH  18  19
ATOM     19  C   LIG    1       -0.436   9.588  -3.347  0.00  0.00    -0.050 A 
ATOM     20  C   LIG    1       -0.686  10.568  -2.392  0.00  0.00    +0.060 A 
ATOM     21  C   LIG    1       -0.423  11.903  -2.663  0.00  0.00    +0.010 A 
ATOM     22  C   LIG    1        0.085  12.304  -3.861  0.00  0.00    +0.050 A 
ATOM     23  C   LIG    1        0.362  11.369  -4.871  0.00  0.00    -0.110 A 
ATOM     24  C   LIG    1        0.887  11.766  -6.115  0.00  0.00    +0.090 A 
ATOM     25  C   LIG    1        1.146  10.797  -7.044  0.00  0.00    -0.030 A 
ATOM     26  C   LIG    1        0.874   9.464  -6.752  0.00  0.00    +0.300 A 
ATOM     27  N   LIG    1        0.379   9.100  -5.592  0.00  0.00    -0.470 NA
ATOM     28  C   LIG    1        0.115   9.993  -4.641  0.00  0.00    +0.150 A 
ENDBRANCH  18  19
ENDBRANCH   6  17
TORSDOF 4
