REMARK  Name = ZINCtV00000vwWdB.0
REMARK                            x       y       z     vdW  Elec       q    Type
REMARK                         _______ _______ _______ _____ _____    ______ ____
ROOT
ATOM      1  N   LIG    1       -1.675  -3.418  -0.217  0.00  0.00    -0.610 N 
ATOM      2  H   LIG    1       -1.573  -4.240   0.288  0.00  0.00    +0.420 HD
ENDROOT
BRANCH   1  15
ATOM      3  C   LIG    1        0.655  -3.184  -0.822  0.00  0.00    +0.120 A 
ATOM      4  C   LIG    1        1.755  -2.384  -1.064  0.00  0.00    -0.010 A 
ATOM      5  C   LIG    1        1.643  -1.001  -0.949  0.00  0.00    -0.070 A 
ATOM      6  C   LIG    1        0.422  -0.415  -0.588  0.00  0.00    +0.060 A 
ATOM      7  O   LIG    1        0.585   0.926  -0.548  0.00  0.00    -0.190 OA
ATOM      8  C   LIG    1        1.850   1.282  -0.862  0.00  0.00    +0.090 A 
ATOM      9  C   LIG    1        2.480   2.518  -0.952  0.00  0.00    +0.020 A 
ATOM     10  C   LIG    1        3.812   2.591  -1.302  0.00  0.00    +0.060 A 
ATOM     11  C   LIG    1        4.536   1.440  -1.566  0.00  0.00    -0.010 A 
ATOM     12  C   LIG    1        3.929   0.204  -1.481  0.00  0.00    +0.070 A 
ATOM     13  C   LIG    1       -0.678  -1.229  -0.346  0.00  0.00    +0.130 A 
ATOM     14  C   LIG    1        2.586   0.119  -1.129  0.00  0.00    -0.130 A 
ATOM     15  C   LIG    1       -0.563  -2.604  -0.462  0.00  0.00    +0.130 A 
BRANCH   3  17
ATOM     16  C   LIG    1        2.036  -5.060  -1.304  0.00  0.00    +0.250 C 
ATOM     17  O   LIG    1        0.759  -4.536  -0.933  0.00  0.00    -0.320 OA
ENDBRANCH   3  17
ENDBRANCH   1  15
BRANCH   1  18
ATOM     18  C   LIG    1       -2.889  -3.059  -0.681  0.00  0.00    +0.550 C 
ATOM     19  S   LIG    1       -3.053  -1.659  -1.653  0.00  0.00    -0.580 S 
BRANCH  18  20
ATOM     20  N   LIG    1       -3.972  -3.803  -0.381  0.00  0.00    -0.630 N 
ATOM     21  H   LIG    1       -3.896  -4.540   0.244  0.00  0.00    +0.410 HD
BRANCH  20  22
ATOM     22  C   LIG    1       -5.208  -3.509  -0.972  0.00  0.00    +0.130 A 
ATOM     23  C   LIG    1       -6.367  -3.538  -0.207  0.00  0.00    +0.030 A 
ATOM     24  C   LIG    1       -7.585  -3.243  -0.787  0.00  0.00    +0.020 A 
ATOM     25  C   LIG    1       -7.652  -2.929  -2.139  0.00  0.00    -0.090 A 
ATOM     26  C   LIG    1       -6.494  -2.907  -2.905  0.00  0.00    +0.060 A 
ATOM     27  C   LIG    1       -5.276  -3.196  -2.323  0.00  0.00    +0.100 A 
BRANCH  25  28
ATOM     28  S   LIG    1       -9.207  -2.561  -2.881  0.00  0.00    -0.090 S 
BRANCH  28  29
ATOM     29  C   LIG    1      -10.369  -2.723  -1.498  0.00  0.00    +0.430 C 
ATOM     30  F   LIG    1      -10.025  -1.813  -0.491  0.00  0.00    -0.180 F 
ATOM     31  F   LIG    1      -10.311  -4.025  -0.989  0.00  0.00    -0.180 F 
ENDBRANCH  28  29
ENDBRANCH  25  28
ENDBRANCH  20  22
ENDBRANCH  18  20
ENDBRANCH   1  18
TORSDOF 7
