REMARK  Name = ZINCnE000001HVP9.1
REMARK                            x       y       z     vdW  Elec       q    Type
REMARK                         _______ _______ _______ _____ _____    ______ ____
ROOT
ATOM      1  C   LIG    1       -0.016   1.344   0.009  0.00  0.00    +0.490 C 
ATOM      2  N   LIG    1        0.002  -0.004   0.002  0.00  0.00    -0.640 NA
ATOM      3  O   LIG    1       -1.076   1.937   0.018  0.00  0.00    -0.580 OA
ENDROOT
BRANCH   2   4
ATOM      4  C   LIG    1       -1.187  -0.712   0.010  0.00  0.00    +0.410 A 
ATOM      5  N   LIG    1       -1.278  -1.997   0.004  0.00  0.00    -0.550 NA
ATOM      6  C   LIG    1       -2.510  -2.543   0.013  0.00  0.00    +0.140 A 
ATOM      7  C   LIG    1       -2.872  -3.907   0.009  0.00  0.00    -0.070 A 
ATOM      8  C   LIG    1       -4.194  -4.275   0.021  0.00  0.00    +0.010 A 
ATOM      9  C   LIG    1       -5.194  -3.314   0.036  0.00  0.00    -0.130 A 
ATOM     10  C   LIG    1       -4.864  -1.977   0.039  0.00  0.00    +0.050 A 
ATOM     11  C   LIG    1       -6.641  -3.734   0.048  0.00  0.00    +0.080 C 
ATOM     12  C   LIG    1       -1.800  -4.966  -0.007  0.00  0.00    +0.080 C 
ATOM     13  C   LIG    1       -3.528  -1.585   0.028  0.00  0.00    -0.230 A 
ATOM     14  S   LIG    1       -2.788   0.014   0.036  0.00  0.00    -0.020 S 
ENDBRANCH   2   4
BRANCH   1  17
ATOM     15  C   LIG    1        3.651   2.131  -0.020  0.00  0.00    +0.130 A 
ATOM     16  C   LIG    1        2.497   1.425  -0.008  0.00  0.00    -0.010 A 
ATOM     17  C   LIG    1        1.259   2.103   0.001  0.00  0.00    +0.030 A 
ATOM     18  C   LIG    1        1.253   3.486   0.009  0.00  0.00    -0.050 A 
ATOM     19  C   LIG    1        2.483   4.175   0.001  0.00  0.00    +0.520 A 
ATOM     20  O   LIG    1        2.498   5.395   0.008  0.00  0.00    -0.570 OA
ATOM     21  N   LIG    1        3.640   3.488  -0.013  0.00  0.00    -0.600 N 
ATOM     22  H   LIG    1        4.481   3.972  -0.017  0.00  0.00    +0.410 HD
BRANCH  15  24
ATOM     23  C   LIG    1        5.463   1.270  -1.477  0.00  0.00    +0.030 C 
ATOM     24  C   LIG    1        4.968   1.400  -0.035  0.00  0.00    +0.090 C 
ENDBRANCH  15  24
ENDBRANCH   1  17
TORSDOF 3
