REMARK  Name = ZINCnE000005qSjn.1
REMARK                            x       y       z     vdW  Elec       q    Type
REMARK                         _______ _______ _______ _____ _____    ______ ____
ROOT
ATOM      1  C   LIG    1       -1.977   8.845   0.520  0.00  0.00    +0.120 C 
ENDROOT
BRANCH   1   3
ATOM      2  N   LIG    1       -1.867   6.374   0.558  0.00  0.00    -0.660 NA
ATOM      3  C   LIG    1       -1.332   7.550   0.942  0.00  0.00    +0.470 C 
ATOM      4  O   LIG    1       -0.332   7.567   1.628  0.00  0.00    -0.600 OA
BRANCH   2   8
ATOM      5  C   LIG    1       -0.749   3.086   1.275  0.00  0.00    +0.030 A 
ATOM      6  N   LIG    1        0.098   3.874   1.875  0.00  0.00    -0.420 NA
ATOM      7  O   LIG    1       -0.171   5.040   1.701  0.00  0.00    +0.040 OA
ATOM      8  C   LIG    1       -1.273   5.183   0.947  0.00  0.00    +0.260 A 
ATOM      9  C   LIG    1       -1.692   3.920   0.641  0.00  0.00    -0.200 A 
BRANCH   5  11
ATOM     10  C   LIG    1       -0.013   1.086   0.008  0.00  0.00    +0.020 C 
ATOM     11  C   LIG    1       -0.729   1.579   1.267  0.00  0.00    +0.060 C 
ATOM     12  C   LIG    1       -2.164   1.050   1.278  0.00  0.00    +0.020 C 
ENDBRANCH   5  11
ENDBRANCH   2   8
ENDBRANCH   1   3
BRANCH   1  13
ATOM     13  S   LIG    1       -1.032  10.236   1.188  0.00  0.00    +0.050 S 
BRANCH  13  14
ATOM     14  C   LIG    1       -1.980  11.581   0.559  0.00  0.00    +0.260 A 
ATOM     15  N   LIG    1       -3.053  11.463  -0.185  0.00  0.00    -0.500 NA
ATOM     16  C   LIG    1       -3.535  12.697  -0.490  0.00  0.00    +0.060 A 
ATOM     17  C   LIG    1       -4.630  13.142  -1.233  0.00  0.00    +0.060 A 
ATOM     18  C   LIG    1       -4.860  14.493  -1.371  0.00  0.00    +0.000 A 
ATOM     19  C   LIG    1       -4.012  15.415  -0.777  0.00  0.00    +0.020 A 
ATOM     20  C   LIG    1       -2.926  14.991  -0.038  0.00  0.00    +0.010 A 
ATOM     21  C   LIG    1       -2.679  13.636   0.111  0.00  0.00    +0.050 A 
ATOM     22  N   LIG    1       -1.704  12.903   0.768  0.00  0.00    -0.480 N 
ATOM     23  C   LIG    1       -0.585  13.445   1.544  0.00  0.00    +0.330 C 
ENDBRANCH  13  14
ENDBRANCH   1  13
TORSDOF 5
