REMARK  Name = ZINCpk00000xOi1j.0
REMARK                            x       y       z     vdW  Elec       q    Type
REMARK                         _______ _______ _______ _____ _____    ______ ____
ROOT
ATOM      1  C   LIG    1        1.237   1.998  -0.269  0.00  0.00    +0.040 A 
ATOM      2  N   LIG    1        1.231   3.299  -0.001  0.00  0.00    -0.420 NA
ATOM      3  C   LIG    1        2.338   4.007   0.008  0.00  0.00    +0.230 A 
ATOM      4  C   LIG    1        3.564   3.424  -0.276  0.00  0.00    +0.050 A 
ATOM      5  C   LIG    1        3.622   2.073  -0.568  0.00  0.00    -0.020 A 
ATOM      6  C   LIG    1        2.437   1.341  -0.566  0.00  0.00    +0.140 A 
ENDROOT
BRANCH   1   8
ATOM      7  O   LIG    1       -0.031   0.051  -0.512  0.00  0.00    -0.490 OA
ATOM      8  C   LIG    1       -0.032   1.240  -0.262  0.00  0.00    +0.570 C 
ATOM      9  N   LIG    1       -1.191   1.869   0.018  0.00  0.00    -0.710 N 
ATOM     10  H   LIG    1       -1.191   2.818   0.218  0.00  0.00    +0.410 HD
BRANCH   9  11
ATOM     11  C   LIG    1       -2.449   1.120   0.020  0.00  0.00    +0.250 C 
ATOM     12  C   LIG    1       -3.527   1.925   0.750  0.00  0.00    +0.050 C 
ATOM     13  C   LIG    1       -3.345   3.412   0.505  0.00  0.00    +0.020 C 
ATOM     14  C   LIG    1       -3.589   3.830  -0.933  0.00  0.00    +0.010 C 
ATOM     15  C   LIG    1       -2.518   3.250  -1.859  0.00  0.00    +0.270 C 
ATOM     16  N   LIG    1       -2.935   1.900  -2.273  0.00  0.00    -0.720 N 
ATOM     17  H   LIG    1       -3.232   1.746  -3.184  0.00  0.00    +0.400 HD
ATOM     18  C   LIG    1       -2.903   0.884  -1.405  0.00  0.00    +0.510 C 
ATOM     19  O   LIG    1       -3.243  -0.226  -1.756  0.00  0.00    -0.530 OA
ENDBRANCH   9  11
ENDBRANCH   1   8
BRANCH   6  20
ATOM     20  O   LIG    1        2.445   0.014  -0.846  0.00  0.00    -0.260 OA
BRANCH  20  21
ATOM     21  C   LIG    1        3.712  -0.579  -1.138  0.00  0.00    +0.250 C 
BRANCH  21  22
ATOM     22  C   LIG    1        3.526  -2.048  -1.421  0.00  0.00    -0.050 A 
ATOM     23  C   LIG    1        3.596  -2.982  -0.400  0.00  0.00    -0.010 A 
ATOM     24  C   LIG    1        3.415  -4.320  -0.698  0.00  0.00    +0.260 A 
ATOM     25  N   LIG    1        3.188  -4.711  -1.936  0.00  0.00    -0.480 NA
ATOM     26  C   LIG    1        3.120  -3.850  -2.933  0.00  0.00    +0.260 A 
ATOM     27  C   LIG    1        3.285  -2.496  -2.711  0.00  0.00    -0.010 A 
ENDBRANCH  21  22
ENDBRANCH  20  21
ENDBRANCH   6  20
TORSDOF 5
