REMARK  Name = ZINCrD000000AY0G.0
REMARK                            x       y       z     vdW  Elec       q    Type
REMARK                         _______ _______ _______ _____ _____    ______ ____
ROOT
ATOM      1  O   LIG    1       -1.886   8.306   0.065  0.00  0.00    -0.510 OA
ATOM      2  C   LIG    1       -2.474   7.241   0.064  0.00  0.00    +0.590 C 
ATOM      3  N   LIG    1       -3.822   7.216   0.077  0.00  0.00    -0.730 N 
ATOM      4  H   LIG    1       -4.291   6.367   0.077  0.00  0.00    +0.400 HD
ENDROOT
BRANCH   2   5
ATOM      5  C   LIG    1       -1.716   5.982   0.050  0.00  0.00    +0.020 A 
ATOM      6  C   LIG    1       -0.361   5.878   0.036  0.00  0.00    +0.060 A 
ATOM      7  C   LIG    1       -0.033   4.501   0.026  0.00  0.00    -0.120 A 
ATOM      8  C   LIG    1        1.180   3.801   0.011  0.00  0.00    +0.100 A 
ATOM      9  C   LIG    1        1.177   2.437   0.004  0.00  0.00    +0.000 A 
ATOM     10  C   LIG    1       -0.021   1.732   0.012  0.00  0.00    -0.000 A 
ATOM     11  C   LIG    1       -1.228   2.398   0.021  0.00  0.00    +0.000 A 
ATOM     12 CL   LIG    1        0.002  -0.004   0.002  0.00  0.00    -0.060 Cl
ATOM     13  C   LIG    1       -1.250   3.789   0.033  0.00  0.00    +0.120 A 
ATOM     14  N   LIG    1       -2.267   4.715   0.048  0.00  0.00    -0.580 N 
ATOM     15  H   LIG    1       -3.215   4.511   0.056  0.00  0.00    +0.420 HD
ENDBRANCH   2   5
BRANCH   3  16
ATOM     16  C   LIG    1       -4.578   8.471   0.091  0.00  0.00    +0.270 C 
BRANCH  16  17
ATOM     17  C   LIG    1       -6.076   8.163   0.104  0.00  0.00    +0.160 C 
BRANCH  17  18
ATOM     18  N   LIG    1       -6.834   9.421   0.118  0.00  0.00    -0.540 NA
ATOM     19  C   LIG    1       -6.620  10.151   1.376  0.00  0.00    +0.190 C 
ATOM     20  C   LIG    1       -7.361  11.489   1.319  0.00  0.00    +0.210 C 
ATOM     21  N   LIG    1       -8.792  11.245   1.093  0.00  0.00    -0.490 N 
ATOM     22  C   LIG    1       -9.007  10.515  -0.165  0.00  0.00    +0.200 C 
ATOM     23  C   LIG    1       -8.266   9.177  -0.107  0.00  0.00    +0.200 C 
BRANCH  21  24
ATOM     24  C   LIG    1       -9.513  12.441   1.106  0.00  0.00    +0.110 A 
ATOM     25  C   LIG    1      -10.293  12.796   0.014  0.00  0.00    -0.040 A 
ATOM     26  C   LIG    1      -11.008  13.977   0.032  0.00  0.00    +0.030 A 
ATOM     27  C   LIG    1      -10.940  14.811   1.133  0.00  0.00    -0.030 A 
ATOM     28  C   LIG    1      -10.159  14.464   2.220  0.00  0.00    +0.020 A 
ATOM     29  C   LIG    1       -9.446  13.281   2.210  0.00  0.00    -0.020 A 
ENDBRANCH  21  24
ENDBRANCH  17  18
ENDBRANCH  16  17
ENDBRANCH   3  16
TORSDOF 5
