REMARK  Name = ZINCwl0000000D73.0
REMARK                            x       y       z     vdW  Elec       q    Type
REMARK                         _______ _______ _______ _____ _____    ______ ____
ROOT
ATOM      1  C   LIG    1       -2.680   1.765  -4.825  0.00  0.00    +0.620 C 
ATOM      2  N   LIG    1       -2.097   2.644  -5.634  0.00  0.00    -0.580 NA
ATOM      3  C   LIG    1       -2.738   3.081  -6.714  0.00  0.00    +0.620 C 
ATOM      4  N   LIG    1       -3.965   2.646  -6.979  0.00  0.00    -0.580 NA
ATOM      5  C   LIG    1       -4.551   1.771  -6.167  0.00  0.00    +0.620 C 
ATOM      6  H   LIG    1       -4.435   2.967  -7.765  0.00  0.00    +0.450 HD
ATOM      7  N   LIG    1       -3.908   1.330  -5.090  0.00  0.00    -0.560 NA
ENDROOT
BRANCH   1  11
ATOM      8  N   LIG    1       -0.723   1.572  -1.182  0.00  0.00    -0.530 NA
ATOM      9  C   LIG    1       -2.058   0.966  -1.283  0.00  0.00    +0.220 C 
ATOM     10  C   LIG    1       -2.794   1.557  -2.488  0.00  0.00    +0.260 C 
ATOM     11  N   LIG    1       -2.012   1.308  -3.707  0.00  0.00    -0.430 NA
ATOM     12  C   LIG    1       -0.677   1.914  -3.606  0.00  0.00    +0.250 C 
ATOM     13  C   LIG    1        0.059   1.323  -2.401  0.00  0.00    +0.200 C 
BRANCH   8  14
ATOM     14  C   LIG    1       -0.013   1.086   0.008  0.00  0.00    +0.220 C 
BRANCH  14  16
ATOM     15  O   LIG    1       -1.714   2.256   1.150  0.00  0.00    -0.530 OA
ATOM     16  C   LIG    1       -0.718   1.572   1.248  0.00  0.00    +0.510 C 
ATOM     17  N   LIG    1       -0.242   1.246   2.466  0.00  0.00    -0.600 N 
ATOM     18  C   LIG    1        0.945   0.424   2.549  0.00  0.00    +0.260 C 
ATOM     19  C   LIG    1        0.551  -1.068   2.561  0.00  0.00    -0.000 C 
ATOM     20  C   LIG    1       -0.078  -1.418   3.844  0.00  0.00    +0.000 C 
ATOM     21  C   LIG    1       -1.382  -0.679   4.127  0.00  0.00    +0.010 C 
ATOM     22  C   LIG    1       -1.073   0.659   4.752  0.00  0.00    +0.020 C 
ATOM     23  C   LIG    1       -0.956   1.738   3.660  0.00  0.00    +0.270 C 
ENDBRANCH  14  16
ENDBRANCH   8  14
ENDBRANCH   1  11
BRANCH   5  24
ATOM     24  N   LIG    1       -5.825   1.319  -6.442  0.00  0.00    -0.450 NA
ATOM     25  C   LIG    1       -5.862   0.583  -7.732  0.00  0.00    +0.220 C 
ATOM     26  C   LIG    1       -7.153  -0.266  -7.619  0.00  0.00    +0.070 C 
ATOM     27  C   LIG    1       -7.164  -0.682  -6.130  0.00  0.00    +0.040 C 
ATOM     28  C   LIG    1       -6.280   0.356  -5.416  0.00  0.00    +0.250 C 
ENDBRANCH   5  24
BRANCH   3  29
ATOM     29  N   LIG    1       -2.130   3.989  -7.557  0.00  0.00    -0.450 NA
ATOM     30  C   LIG    1       -2.885   5.268  -7.595  0.00  0.00    +0.220 C 
ATOM     31  C   LIG    1       -1.837   6.282  -8.116  0.00  0.00    +0.070 C 
ATOM     32  C   LIG    1       -0.531   5.812  -7.435  0.00  0.00    +0.040 C 
ATOM     33  C   LIG    1       -0.775   4.335  -7.075  0.00  0.00    +0.250 C 
ENDBRANCH   3  29
TORSDOF 5
