REMARK  Name = ZINCrH000004sk3L.0
REMARK                            x       y       z     vdW  Elec       q    Type
REMARK                         _______ _______ _______ _____ _____    ______ ____
ROOT
ATOM      1  C   LIG    1        1.262   1.544   0.057  0.00  0.00    +0.130 A 
ATOM      2  C   LIG    1        1.402   2.924  -0.007  0.00  0.00    +0.050 A 
ATOM      3  C   LIG    1        2.660   3.493   0.048  0.00  0.00    +0.020 A 
ATOM      4  C   LIG    1        3.779   2.688   0.156  0.00  0.00    +0.110 A 
ATOM      5  C   LIG    1        3.643   1.313   0.215  0.00  0.00    -0.660 A 
ATOM      6  C   LIG    1        2.389   0.739   0.166  0.00  0.00    +0.130 A 
ENDROOT
BRANCH   1   8
ATOM      7  C   LIG    1       -0.264  -0.168   0.691  0.00  0.00    +0.540 C 
ATOM      8  N   LIG    1       -0.011   0.966   0.007  0.00  0.00    -0.670 N 
ATOM      9  H   LIG    1       -0.713   1.383  -0.516  0.00  0.00    +0.420 HD
ATOM     10  O   LIG    1        0.583  -0.636   1.423  0.00  0.00    -0.490 OA
BRANCH   7  11
ATOM     11  C   LIG    1       -1.598  -0.854   0.547  0.00  0.00    -0.010 C 
ATOM     12  C   LIG    1       -2.634  -0.142   1.419  0.00  0.00    +0.090 C 
BRANCH  11  13
ATOM     13  S   LIG    1       -1.449  -2.579   1.074  0.00  0.00    +0.110 S 
BRANCH  13  18
ATOM     14  C   LIG    1       -5.345  -6.004   0.645  0.00  0.00    +0.160 C 
ATOM     15  C   LIG    1       -4.723  -4.640   0.490  0.00  0.00    +0.080 A 
ATOM     16  C   LIG    1       -5.383  -3.603  -0.027  0.00  0.00    -0.080 A 
ATOM     17  S   LIG    1       -4.301  -2.212  -0.029  0.00  0.00    +0.130 S 
ATOM     18  C   LIG    1       -3.062  -3.162   0.668  0.00  0.00    +0.000 A 
ATOM     19  N   LIG    1       -3.480  -4.377   0.850  0.00  0.00    -0.450 NA
ENDBRANCH  13  18
ENDBRANCH  11  13
ENDBRANCH   7  11
ENDBRANCH   1   8
BRANCH   5  20
ATOM     20  S   LIG    1        5.073   0.293   0.353  0.00  0.00    +2.690 S 
ATOM     21  O   LIG    1        4.639  -0.930   0.933  0.00  0.00    -0.940 OA
ATOM     22  O   LIG    1        6.092   1.104   0.923  0.00  0.00    -0.950 OA
BRANCH  20  23
ATOM     23  N   LIG    1        5.568  -0.068  -1.185  0.00  0.00    -1.000 NA
ATOM     24  C   LIG    1        5.062  -1.264  -1.873  0.00  0.00    +0.290 C 
ATOM     25  C   LIG    1        4.479  -0.837  -3.229  0.00  0.00    +0.010 C 
ATOM     26  C   LIG    1        5.540  -0.063  -4.013  0.00  0.00    +0.010 C 
ATOM     27  C   LIG    1        5.931   1.198  -3.239  0.00  0.00    +0.010 C 
ATOM     28  C   LIG    1        6.527   0.797  -1.886  0.00  0.00    +0.290 C 
ENDBRANCH  20  23
ENDBRANCH   5  20
TORSDOF 6
