REMARK  Name = ZINCpe000000V1VI.0
REMARK                            x       y       z     vdW  Elec       q    Type
REMARK                         _______ _______ _______ _____ _____    ______ ____
ROOT
ATOM      1  C   LIG    1        2.775  -0.098   3.665  0.00  0.00    +0.570 C 
ATOM      2  N   LIG    1        1.539   0.271   3.274  0.00  0.00    -0.720 N 
ATOM      3  H   LIG    1        0.809  -0.366   3.307  0.00  0.00    +0.400 HD
ATOM      4  O   LIG    1        3.690   0.701   3.624  0.00  0.00    -0.520 OA
ENDROOT
BRANCH   1   9
ATOM      5  C   LIG    1        4.516  -3.148   4.997  0.00  0.00    -0.690 A 
ATOM      6  C   LIG    1        3.472  -4.055   5.044  0.00  0.00    +0.160 A 
ATOM      7  C   LIG    1        2.202  -3.679   4.644  0.00  0.00    +0.000 A 
ATOM      8  C   LIG    1        1.968  -2.394   4.199  0.00  0.00    +0.100 A 
ATOM      9  C   LIG    1        3.018  -1.475   4.145  0.00  0.00    -0.160 A 
ATOM     10  C   LIG    1        4.296  -1.861   4.551  0.00  0.00    +0.200 A 
BRANCH   5  11
ATOM     11  S   LIG    1        6.129  -3.637   5.510  0.00  0.00    +2.700 S 
ATOM     12  O   LIG    1        7.040  -2.761   4.861  0.00  0.00    -0.950 OA
ATOM     13  O   LIG    1        6.181  -5.051   5.376  0.00  0.00    -0.950 OA
BRANCH  11  15
ATOM     14  C   LIG    1        5.402  -4.040   8.084  0.00  0.00    +0.300 C 
ATOM     15  N   LIG    1        6.247  -3.316   7.131  0.00  0.00    -1.120 NA
ATOM     16  H   LIG    1        6.875  -2.649   7.449  0.00  0.00    +0.420 HD
ENDBRANCH  11  15
ENDBRANCH   5  11
ENDBRANCH   1   9
BRANCH   2  17
ATOM     17  C   LIG    1        1.299   1.636   2.799  0.00  0.00    +0.410 C 
BRANCH  17  18
ATOM     18  C   LIG    1       -0.153   1.790   2.426  0.00  0.00    +0.140 A 
ATOM     19  N   LIG    1       -1.121   2.172   3.216  0.00  0.00    -0.270 NA
ATOM     20  N   LIG    1       -2.230   2.199   2.562  0.00  0.00    -0.290 NA
ATOM     21  C   LIG    1       -2.017   1.841   1.328  0.00  0.00    +0.190 A 
ATOM     22  C   LIG    1       -3.031   1.754   0.217  0.00  0.00    +0.160 C 
ATOM     23  C   LIG    1       -2.855   0.422  -0.518  0.00  0.00    +0.020 C 
ATOM     24  C   LIG    1       -1.830   0.587  -1.636  0.00  0.00    +0.020 C 
ATOM     25  C   LIG    1       -0.754   1.593  -1.232  0.00  0.00    +0.030 C 
ATOM     26  C   LIG    1       -0.013   1.086   0.008  0.00  0.00    +0.290 C 
ATOM     27  N   LIG    1       -0.698   1.558   1.211  0.00  0.00    -0.460 N 
ENDBRANCH  17  18
ENDBRANCH   2  17
TORSDOF 5
