REMARK  Name = ZINCrH000004nCkM.0
REMARK                            x       y       z     vdW  Elec       q    Type
REMARK                         _______ _______ _______ _____ _____    ______ ____
ROOT
ATOM      1  C   LIG    1        2.138  -0.840   6.183  0.00  0.00    +0.170 A 
ATOM      2  C   LIG    1        2.783  -1.516   5.152  0.00  0.00    +0.020 A 
ATOM      3  C   LIG    1        2.430  -1.294   3.845  0.00  0.00    +0.090 A 
ATOM      4  C   LIG    1        1.406  -0.379   3.525  0.00  0.00    +0.090 A 
ATOM      5  N   LIG    1        0.927  -0.041   2.309  0.00  0.00    -0.500 NA
ATOM      6  C   LIG    1       -0.019   0.832   2.256  0.00  0.00    +0.290 A 
ATOM      7  S   LIG    1       -0.455   1.362   3.874  0.00  0.00    +0.090 S 
ATOM      8  C   LIG    1        0.764   0.295   4.568  0.00  0.00    -0.160 A 
ATOM      9  C   LIG    1        1.131   0.063   5.890  0.00  0.00    +0.070 A 
ENDROOT
BRANCH   1  13
ATOM     10  N   LIG    1        1.947  -1.140   9.781  0.00  0.00    -0.670 N 
ATOM     11  H   LIG    1        2.888  -1.182  10.013  0.00  0.00    +0.410 HD
ATOM     12  C   LIG    1        1.577  -1.022   8.490  0.00  0.00    +0.700 C 
ATOM     13  N   LIG    1        2.506  -1.074   7.515  0.00  0.00    -0.680 N 
ATOM     14  H   LIG    1        3.429  -1.272   7.735  0.00  0.00    +0.410 HD
ATOM     15  O   LIG    1        0.404  -0.870   8.205  0.00  0.00    -0.550 OA
BRANCH  10  21
ATOM     16  C   LIG    1        1.306  -0.887  12.102  0.00  0.00    +0.100 A 
ATOM     17  C   LIG    1        0.338  -0.943  13.091  0.00  0.00    -0.060 A 
ATOM     18  C   LIG    1       -0.954  -1.321  12.773  0.00  0.00    +0.030 A 
ATOM     19  C   LIG    1       -1.284  -1.639  11.469  0.00  0.00    +0.000 A 
ATOM     20  C   LIG    1       -0.325  -1.579  10.476  0.00  0.00    +0.060 A 
ATOM     21  C   LIG    1        0.973  -1.201  10.786  0.00  0.00    +0.140 A 
BRANCH  16  23
ATOM     22  C   LIG    1        2.848  -0.214  13.783  0.00  0.00    +0.250 C 
ATOM     23  O   LIG    1        2.579  -0.521  12.414  0.00  0.00    -0.320 OA
ENDBRANCH  16  23
ENDBRANCH  10  21
ENDBRANCH   1  13
BRANCH   6  24
ATOM     24  N   LIG    1       -0.611   1.283   1.093  0.00  0.00    -0.450 N 
ATOM     25  C   LIG    1       -0.013   0.639  -0.086  0.00  0.00    +0.200 C 
ATOM     26  C   LIG    1       -0.736   1.122  -1.347  0.00  0.00    +0.230 C 
ATOM     27  O   LIG    1       -0.665   2.549  -1.414  0.00  0.00    -0.380 OA
ATOM     28  C   LIG    1       -1.239   3.208  -0.283  0.00  0.00    +0.240 C 
ATOM     29  C   LIG    1       -0.522   2.747   0.989  0.00  0.00    +0.190 C 
ENDBRANCH   6  24
TORSDOF 4
