REMARK  Name = ZINCrg00000SjSFt.0
REMARK                            x       y       z     vdW  Elec       q    Type
REMARK                         _______ _______ _______ _____ _____    ______ ____
ROOT
ATOM      1  C   LIG    1        2.530   4.839  -1.250  0.00  0.00    +0.280 C 
ATOM      2  C   LIG    1        2.624   6.277  -0.697  0.00  0.00    +0.260 C 
ATOM      3  N   LIG    1        3.177   6.118   0.668  0.00  0.00    -0.620 N 
ATOM      4  C   LIG    1        2.504   4.909   1.197  0.00  0.00    +0.280 C 
ATOM      5  C   LIG    1        4.086   6.896   1.288  0.00  0.00    +0.540 C 
ATOM      6  O   LIG    1        4.442   6.632   2.417  0.00  0.00    -0.520 OA
ATOM      7  C   LIG    1        2.451   3.937  -0.001  0.00  0.00    +0.030 C 
ENDROOT
BRANCH   7   8
ATOM      8  C   LIG    1        1.156   3.165   0.008  0.00  0.00    -0.080 A 
ATOM      9  C   LIG    1        1.175   1.783   0.000  0.00  0.00    +0.010 A 
ATOM     10  C   LIG    1       -0.013   1.076   0.008  0.00  0.00    +0.000 A 
ATOM     11  C   LIG    1       -1.219   1.751   0.017  0.00  0.00    +0.000 A 
ATOM     12  C   LIG    1       -1.238   3.133   0.030  0.00  0.00    +0.000 A 
ATOM     13  C   LIG    1       -0.050   3.840   0.023  0.00  0.00    +0.010 A 
ENDBRANCH   7   8
BRANCH   1  15
ATOM     14  C   LIG    1        3.751   4.782  -3.357  0.00  0.00    +0.650 C 
ATOM     15  N   LIG    1        3.723   4.516  -2.036  0.00  0.00    -0.710 N 
ATOM     16  H   LIG    1        4.493   4.112  -1.606  0.00  0.00    +0.410 HD
ATOM     17  O   LIG    1        2.787   5.288  -3.896  0.00  0.00    -0.560 OA
BRANCH  14  18
ATOM     18  O   LIG    1        4.848   4.486  -4.080  0.00  0.00    -0.360 OA
BRANCH  18  20
ATOM     19  C   LIG    1        4.588   6.302  -5.681  0.00  0.00    +0.040 C 
ATOM     20  C   LIG    1        4.808   4.799  -5.497  0.00  0.00    +0.140 C 
ATOM     21  C   LIG    1        3.661   4.031  -6.157  0.00  0.00    +0.040 C 
ATOM     22  C   LIG    1        6.133   4.394  -6.147  0.00  0.00    +0.080 C 
ENDBRANCH  18  20
ENDBRANCH  14  18
ENDBRANCH   1  15
BRANCH   5  23
ATOM     23  C   LIG    1        4.661   8.095   0.578  0.00  0.00    +0.310 C 
BRANCH  23  24
ATOM     24  N   LIG    1        5.619   8.770   1.457  0.00  0.00    -1.110 NA
ATOM     25  H   LIG    1        5.635   8.565   2.405  0.00  0.00    +0.430 HD
BRANCH  24  26
ATOM     26  S   LIG    1        6.674   9.883   0.832  0.00  0.00    +2.620 S 
ATOM     27  O   LIG    1        7.276   9.216  -0.269  0.00  0.00    -0.950 OA
ATOM     28  O   LIG    1        7.447  10.299   1.949  0.00  0.00    -0.950 OA
ATOM     29  C   LIG    1        5.613  11.237   0.254  0.00  0.00    -0.280 C 
ENDBRANCH  24  26
ENDBRANCH  23  24
ENDBRANCH   5  23
TORSDOF 7
