REMARK  Name = ZINCrD00000l2r81.0
REMARK                            x       y       z     vdW  Elec       q    Type
REMARK                         _______ _______ _______ _____ _____    ______ ____
ROOT
ATOM      1  C   LIG    1       -4.361   2.541   1.281  0.00  0.00    +0.510 C 
ATOM      2  N   LIG    1       -5.495   1.815   1.346  0.00  0.00    -0.710 N 
ATOM      3  H   LIG    1       -5.764   1.268   0.592  0.00  0.00    +0.400 HD
ATOM      4  O   LIG    1       -4.024   3.226   2.224  0.00  0.00    -0.520 OA
ENDROOT
BRANCH   1  15
ATOM      5  C   LIG    1       -4.354   5.323  -0.044  0.00  0.00    +0.110 C 
ATOM      6  C   LIG    1       -2.904   4.923   0.055  0.00  0.00    +0.530 C 
ATOM      7  N   LIG    1       -2.562   3.619   0.045  0.00  0.00    -0.540 N 
ATOM      8  C   LIG    1       -1.251   3.134   0.027  0.00  0.00    +0.150 A 
ATOM      9  C   LIG    1       -0.047   3.840   0.014  0.00  0.00    +0.010 A 
ATOM     10  C   LIG    1        1.155   3.164  -0.004  0.00  0.00    +0.040 A 
ATOM     11  C   LIG    1        1.176   1.782  -0.010  0.00  0.00    -0.010 A 
ATOM     12  C   LIG    1       -0.013   1.076   0.003  0.00  0.00    +0.050 A 
ATOM     13  C   LIG    1       -1.219   1.748   0.016  0.00  0.00    -0.140 A 
ATOM     14  C   LIG    1       -2.641   1.234   0.025  0.00  0.00    +0.120 C 
ATOM     15  C   LIG    1       -3.511   2.502   0.037  0.00  0.00    +0.230 C 
ATOM     16  O   LIG    1       -2.045   5.774   0.142  0.00  0.00    -0.520 OA
ENDBRANCH   1  15
BRANCH   2  17
ATOM     17  C   LIG    1       -6.321   1.854   2.555  0.00  0.00    +0.250 C 
ATOM     18  C   LIG    1       -5.787   0.839   3.569  0.00  0.00    +0.010 C 
ATOM     19  C   LIG    1       -6.650   0.879   4.832  0.00  0.00    +0.020 C 
ATOM     20  C   LIG    1       -8.096   0.530   4.473  0.00  0.00    +0.010 C 
ATOM     21  C   LIG    1       -8.629   1.544   3.459  0.00  0.00    +0.010 C 
ATOM     22  C   LIG    1       -7.766   1.504   2.196  0.00  0.00    +0.160 C 
BRANCH  22  23
ATOM     23  O   LIG    1       -8.264   2.451   1.249  0.00  0.00    -0.370 OA
BRANCH  23  24
ATOM     24  C   LIG    1       -9.248   1.921   0.359  0.00  0.00    +0.140 C 
ATOM     25  C   LIG    1       -8.572   1.393  -0.922  0.00  0.00    +0.000 C 
ATOM     26  C   LIG    1       -9.567   1.755  -2.054  0.00  0.00    +0.020 C 
ATOM     27  C   LIG    1      -10.094   3.144  -1.614  0.00  0.00    +0.020 C 
ATOM     28  C   LIG    1      -10.216   3.034  -0.080  0.00  0.00    +0.030 C 
ENDBRANCH  23  24
ENDBRANCH  22  23
ENDBRANCH   2  17
TORSDOF 4
