REMARK  Name = ZINCrH000004t4vZ.0
REMARK                            x       y       z     vdW  Elec       q    Type
REMARK                         _______ _______ _______ _____ _____    ______ ____
ROOT
ATOM      1  C   LIG    1       -2.260   2.107  -0.652  0.00  0.00    +0.320 C 
ATOM      2  C   LIG    1       -3.252   2.934   0.201  0.00  0.00    +0.010 C 
ATOM      3  C   LIG    1       -4.515   3.129  -0.528  0.00  0.00    +0.000 C 
ATOM      4  C   LIG    1       -5.267   1.838  -0.838  0.00  0.00    +0.010 C 
ATOM      5  C   LIG    1       -4.730   1.240  -2.114  0.00  0.00    +0.020 C 
ATOM      6  C   LIG    1       -3.599   0.244  -1.797  0.00  0.00    +0.260 C 
ATOM      7  N   LIG    1       -2.710   0.735  -0.726  0.00  0.00    -0.600 N 
ATOM      8  C   LIG    1       -2.301  -0.131   0.223  0.00  0.00    +0.510 C 
ATOM      9  O   LIG    1       -1.659   0.268   1.171  0.00  0.00    -0.490 OA
ENDROOT
BRANCH   8  10
ATOM     10  C   LIG    1       -2.642  -1.594   0.105  0.00  0.00    +0.060 C 
ATOM     11  C   LIG    1       -4.088  -1.818   0.550  0.00  0.00    +0.100 C 
ATOM     12  C   LIG    1       -4.196  -1.650   2.042  0.00  0.00    +0.530 C 
ATOM     13  N   LIG    1       -3.195  -2.038   2.852  0.00  0.00    -0.660 N 
ATOM     14  H   LIG    1       -3.285  -1.934   3.813  0.00  0.00    +0.410 HD
ATOM     15  C   LIG    1       -2.025  -2.590   2.320  0.00  0.00    +0.210 A 
ATOM     16  C   LIG    1       -1.173  -3.330   3.128  0.00  0.00    -0.050 A 
ATOM     17  C   LIG    1       -0.018  -3.874   2.594  0.00  0.00    +0.140 A 
ATOM     18  C   LIG    1        0.287  -3.679   1.258  0.00  0.00    -0.030 A 
ATOM     19  C   LIG    1       -0.562  -2.942   0.452  0.00  0.00    +0.100 A 
ATOM     20  F   LIG    1        0.814  -4.595   3.378  0.00  0.00    -0.130 F 
ATOM     21  O   LIG    1       -5.198  -1.160   2.518  0.00  0.00    -0.520 OA
ATOM     22  C   LIG    1       -1.716  -2.397   0.980  0.00  0.00    -0.120 A 
ENDBRANCH   8  10
BRANCH   1  28
ATOM     23  C   LIG    1       -1.603   2.986   2.248  0.00  0.00    +0.300 C 
ATOM     24  N   LIG    1       -0.618   2.543   1.259  0.00  0.00    -0.410 N 
ATOM     25  C   LIG    1        0.728   2.455   1.463  0.00  0.00    +0.140 A 
ATOM     26  C   LIG    1        1.298   2.010   0.325  0.00  0.00    -0.070 A 
ATOM     27  C   LIG    1        0.267   1.815  -0.616  0.00  0.00    -0.080 A 
ATOM     28  C   LIG    1       -0.893   2.154  -0.018  0.00  0.00    +0.030 A 
ENDBRANCH   1  28
TORSDOF 2
