REMARK  Name = ZINCrH000004ovX4.0
REMARK                            x       y       z     vdW  Elec       q    Type
REMARK                         _______ _______ _______ _____ _____    ______ ____
ROOT
ATOM      1  C   LIG    1       -3.945  -1.659   1.254  0.00  0.00    +0.030 C 
ATOM      2  C   LIG    1       -3.651  -0.783   0.034  0.00  0.00    +0.240 C 
ENDROOT
BRANCH   2   3
ATOM      3  C   LIG    1       -3.599  -1.643  -1.202  0.00  0.00    +0.450 A 
ATOM      4  N   LIG    1       -4.361  -1.322  -2.210  0.00  0.00    -0.560 NA
ATOM      5  C   LIG    1       -4.367  -2.038  -3.351  0.00  0.00    +0.530 A 
ATOM      6  C   LIG    1       -3.488  -3.218  -3.433  0.00  0.00    -0.210 A 
ATOM      7  C   LIG    1       -3.431  -4.020  -4.570  0.00  0.00    +0.110 A 
ATOM      8  C   LIG    1       -2.585  -5.108  -4.590  0.00  0.00    -0.020 A 
ATOM      9  C   LIG    1       -1.794  -5.405  -3.489  0.00  0.00    +0.080 A 
ATOM     10  C   LIG    1       -1.840  -4.619  -2.356  0.00  0.00    -0.020 A 
ATOM     11  C   LIG    1       -2.686  -3.520  -2.317  0.00  0.00    +0.180 A 
ATOM     12  O   LIG    1       -5.086  -1.725  -4.284  0.00  0.00    -0.480 OA
ATOM     13  N   LIG    1       -2.769  -2.701  -1.208  0.00  0.00    -0.630 N 
ATOM     14  H   LIG    1       -2.225  -2.890  -0.428  0.00  0.00    +0.420 HD
ENDBRANCH   2   3
BRANCH   2  15
ATOM     15  N   LIG    1       -4.711   0.223  -0.113  0.00  0.00    -0.510 NA
ATOM     16  C   LIG    1       -4.575   1.282   0.895  0.00  0.00    +0.180 C 
ATOM     17  C   LIG    1       -5.603   2.383   0.622  0.00  0.00    +0.040 C 
ATOM     18  C   LIG    1       -7.011   1.784   0.672  0.00  0.00    -0.010 C 
ATOM     19  C   LIG    1       -7.111   0.651  -0.354  0.00  0.00    +0.040 C 
ATOM     20  C   LIG    1       -6.039  -0.400  -0.053  0.00  0.00    +0.180 C 
BRANCH  18  21
ATOM     21  C   LIG    1       -8.039   2.866   0.340  0.00  0.00    +0.190 C 
BRANCH  21  22
ATOM     22  O   LIG    1       -8.025   3.866   1.361  0.00  0.00    -0.310 OA
BRANCH  22  23
ATOM     23  C   LIG    1       -8.887   4.907   1.218  0.00  0.00    +0.130 A 
ATOM     24  C   LIG    1       -9.725   4.968   0.113  0.00  0.00    -0.080 A 
ATOM     25  C   LIG    1      -10.604   6.024  -0.028  0.00  0.00    +0.040 A 
ATOM     26  C   LIG    1      -10.642   7.026   0.925  0.00  0.00    -0.040 A 
ATOM     27  C   LIG    1       -9.804   6.970   2.024  0.00  0.00    +0.050 A 
ATOM     28  C   LIG    1       -8.927   5.913   2.172  0.00  0.00    -0.020 A 
ENDBRANCH  22  23
ENDBRANCH  21  22
ENDBRANCH  18  21
ENDBRANCH   2  15
TORSDOF 5
