REMARK  Name = ZINCnE000001SoiL.0
REMARK                            x       y       z     vdW  Elec       q    Type
REMARK                         _______ _______ _______ _____ _____    ______ ____
ROOT
ATOM      1  S   LIG    1       -5.863   8.704  -0.267  0.00  0.00    +0.030 S 
ENDROOT
BRANCH   1   2
ATOM      2  C   LIG    1       -4.692   7.388  -0.254  0.00  0.00    -0.080 A 
ATOM      3  N   LIG    1       -4.940   6.125  -0.107  0.00  0.00    -0.250 NA
ATOM      4  N   LIG    1       -3.887   5.239  -0.124  0.00  0.00    -0.510 NA
ATOM      5  C   LIG    1       -2.645   5.778  -0.297  0.00  0.00    +0.340 A 
ATOM      6  N   LIG    1       -1.496   5.148  -0.347  0.00  0.00    -0.630 NA
ATOM      7  S   LIG    1       -2.933   7.524  -0.431  0.00  0.00    -0.100 S 
BRANCH   6   8
ATOM      8  C   LIG    1       -1.454   3.691  -0.209  0.00  0.00    +0.170 C 
ATOM      9  C   LIG    1       -0.841   3.077  -1.470  0.00  0.00    +0.010 C 
ATOM     10  C   LIG    1       -0.797   1.554  -1.327  0.00  0.00    -0.010 C 
ATOM     11  C   LIG    1        0.056   1.181  -0.112  0.00  0.00    +0.000 C 
ATOM     12  C   LIG    1       -0.557   1.795   1.149  0.00  0.00    -0.010 C 
ATOM     13  C   LIG    1       -0.601   3.317   1.005  0.00  0.00    +0.010 C 
ENDBRANCH   6   8
ENDBRANCH   1   2
BRANCH   1  14
ATOM     14  C   LIG    1       -7.444   7.846  -0.029  0.00  0.00    +0.100 C 
BRANCH  14  16
ATOM     15  O   LIG    1       -8.322  10.033  -0.156  0.00  0.00    -0.500 OA
ATOM     16  C   LIG    1       -8.565   8.853  -0.018  0.00  0.00    +0.540 C 
ATOM     17  N   LIG    1       -9.838   8.442   0.147  0.00  0.00    -0.670 N 
ATOM     18  H   LIG    1      -10.041   7.494   0.181  0.00  0.00    +0.420 HD
BRANCH  17  19
ATOM     19  C   LIG    1      -10.867   9.383   0.268  0.00  0.00    +0.100 A 
ATOM     20  C   LIG    1      -10.633  10.610   0.883  0.00  0.00    +0.070 A 
ATOM     21  C   LIG    1      -11.682  11.511   0.974  0.00  0.00    -0.010 A 
ATOM     22  C   LIG    1      -12.919  11.161   0.466  0.00  0.00    +0.230 A 
ATOM     23  N   LIG    1      -13.109   9.988  -0.106  0.00  0.00    -0.470 NA
ATOM     24  C   LIG    1      -12.138   9.104  -0.218  0.00  0.00    +0.230 A 
ENDBRANCH  17  19
ENDBRANCH  14  16
ENDBRANCH   1  14
TORSDOF 5
