REMARK  Name = ZINCtV000002N8DE.0
REMARK                            x       y       z     vdW  Elec       q    Type
REMARK                         _______ _______ _______ _____ _____    ______ ____
ROOT
ATOM      1  O   LIG    1        0.198   1.263  -2.798  0.00  0.00    -0.580 OA
ATOM      2  C   LIG    1       -0.964   1.367  -2.456  0.00  0.00    +0.730 C 
ATOM      3  N   LIG    1       -1.302   1.208  -1.161  0.00  0.00    -0.630 N 
ATOM      4  C   LIG    1       -2.662   1.306  -0.612  0.00  0.00    +0.240 C 
ATOM      5  C   LIG    1       -2.559   1.080   0.911  0.00  0.00    +0.070 C 
ATOM      6  C   LIG    1       -1.075   1.428   1.216  0.00  0.00    +0.000 C 
ATOM      7  C   LIG    1       -0.368   0.907  -0.060  0.00  0.00    +0.320 C 
ATOM      8  N   LIG    1       -1.914   1.640  -3.372  0.00  0.00    -0.740 N 
ATOM      9  H   LIG    1       -2.841   1.723  -3.098  0.00  0.00    +0.400 HD
ENDROOT
BRANCH   6  10
ATOM     10  S   LIG    1       -0.486   0.550   2.690  0.00  0.00    -0.070 S 
BRANCH  10  11
ATOM     11  C   LIG    1       -1.194   1.475   4.012  0.00  0.00    -0.070 A 
ATOM     12  C   LIG    1       -1.872   2.659   3.748  0.00  0.00    +0.000 A 
ATOM     13  C   LIG    1       -2.430   3.379   4.786  0.00  0.00    +0.070 A 
ATOM     14  C   LIG    1       -2.304   2.929   6.088  0.00  0.00    -0.100 A 
ATOM     15  C   LIG    1       -1.625   1.754   6.355  0.00  0.00    +0.070 A 
ATOM     16 BR   LIG    1       -3.063   3.923   7.507  0.00  0.00    -0.040 Br
ATOM     17  C   LIG    1       -1.069   1.026   5.321  0.00  0.00    +0.050 A 
ENDBRANCH  10  11
ENDBRANCH   6  10
BRANCH   8  18
ATOM     18  C   LIG    1       -1.547   1.813  -4.779  0.00  0.00    +0.410 C 
BRANCH  18  19
ATOM     19  C   LIG    1       -2.784   2.109  -5.588  0.00  0.00    -0.030 A 
ATOM     20  C   LIG    1       -3.283   3.334  -5.840  0.00  0.00    -0.010 A 
ATOM     21  C   LIG    1       -4.439   3.155  -6.627  0.00  0.00    -0.030 A 
ATOM     22  C   LIG    1       -4.582   1.816  -6.813  0.00  0.00    +0.040 A 
ATOM     23  O   LIG    1       -3.568   1.194  -6.182  0.00  0.00    -0.160 OA
BRANCH  22  24
ATOM     24  C   LIG    1       -5.660   1.158  -7.580  0.00  0.00    -0.020 A 
ATOM     25  C   LIG    1       -6.655   1.925  -8.190  0.00  0.00    +0.060 A 
ATOM     26  C   LIG    1       -7.656   1.305  -8.909  0.00  0.00    +0.030 A 
ATOM     27  C   LIG    1       -7.681  -0.075  -9.018  0.00  0.00    -0.030 A 
ATOM     28  C   LIG    1       -6.700  -0.841  -8.412  0.00  0.00    +0.030 A 
ATOM     29 CL   LIG    1       -8.947  -0.849  -9.919  0.00  0.00    -0.060 Cl
ATOM     30  C   LIG    1       -5.691  -0.233  -7.694  0.00  0.00    +0.050 A 
ENDBRANCH  22  24
ENDBRANCH  18  19
ENDBRANCH   8  18
TORSDOF 5
