REMARK  Name = ZINCrH000004qZgk.0
REMARK                            x       y       z     vdW  Elec       q    Type
REMARK                         _______ _______ _______ _____ _____    ______ ____
ROOT
ATOM      1  C   LIG    1        4.050   0.855   1.411  0.00  0.00    +0.080 C 
ENDROOT
BRANCH   1   2
ATOM      2  C   LIG    1        5.554   0.943   1.398  0.00  0.00    +0.530 C 
ATOM      3  N   LIG    1        6.238   0.977   2.559  0.00  0.00    -0.610 N 
ATOM      4  C   LIG    1        5.643   0.940   3.907  0.00  0.00    +0.240 C 
ATOM      5  C   LIG    1        6.696   1.605   4.825  0.00  0.00    +0.040 C 
ATOM      6  C   LIG    1        8.022   1.100   4.199  0.00  0.00    +0.050 C 
ATOM      7  C   LIG    1        7.700   1.062   2.691  0.00  0.00    +0.270 C 
ATOM      8  O   LIG    1        6.150   0.984   0.342  0.00  0.00    -0.520 OA
BRANCH   7   9
ATOM      9  C   LIG    1        8.342  -0.146   2.060  0.00  0.00    -0.040 A 
ATOM     10  C   LIG    1        7.785  -1.407   2.212  0.00  0.00    -0.030 A 
ATOM     11  C   LIG    1        8.400  -2.491   1.614  0.00  0.00    +0.250 A 
ATOM     12  N   LIG    1        9.508  -2.338   0.916  0.00  0.00    -0.490 NA
ATOM     13  C   LIG    1       10.069  -1.155   0.755  0.00  0.00    +0.260 A 
ATOM     14  C   LIG    1        9.508  -0.025   1.318  0.00  0.00    -0.030 A 
ENDBRANCH   7   9
ENDBRANCH   1   2
BRANCH   1  15
ATOM     15  C   LIG    1        3.528   0.832  -0.027  0.00  0.00    +0.220 C 
BRANCH  15  19
ATOM     16  C   LIG    1        0.002  -0.004   0.002  0.00  0.00    +0.210 A 
ATOM     17  N   LIG    1       -0.016   1.308   0.009  0.00  0.00    -0.280 NA
ATOM     18  N   LIG    1        1.193   1.749   0.000  0.00  0.00    -0.280 NA
ATOM     19  C   LIG    1        2.023   0.744  -0.013  0.00  0.00    +0.160 A 
ATOM     20  O   LIG    1        1.295  -0.386  -0.012  0.00  0.00    -0.220 OA
BRANCH  16  25
ATOM     21  C   LIG    1       -4.584  -3.480   0.028  0.00  0.00    +0.100 C 
ATOM     22  C   LIG    1       -3.383  -2.570   0.021  0.00  0.00    -0.060 A 
ATOM     23  C   LIG    1       -3.559  -1.198   0.031  0.00  0.00    +0.020 A 
ATOM     24  C   LIG    1       -2.464  -0.359   0.025  0.00  0.00    +0.080 A 
ATOM     25  C   LIG    1       -1.176  -0.897   0.009  0.00  0.00    -0.040 A 
ATOM     26  C   LIG    1       -1.006  -2.282  -0.005  0.00  0.00    +0.050 A 
ATOM     27  C   LIG    1       -2.110  -3.110   0.006  0.00  0.00    +0.010 A 
ENDBRANCH  16  25
ENDBRANCH  15  19
ENDBRANCH   1  15
TORSDOF 5
