REMARK  Name = ZINCqH0000000nR3.0
REMARK                            x       y       z     vdW  Elec       q    Type
REMARK                         _______ _______ _______ _____ _____    ______ ____
ROOT
ATOM      1  N   LIG    1       -7.034   4.320   0.856  0.00  0.00    -0.660 N 
ATOM      2  H   LIG    1       -6.989   4.397  -0.110  0.00  0.00    +0.410 HD
ATOM      3  C   LIG    1       -6.077   3.647   1.524  0.00  0.00    +0.570 C 
ATOM      4  O   LIG    1       -6.089   3.619   2.740  0.00  0.00    -0.510 OA
ENDROOT
BRANCH   3   5
ATOM      5  C   LIG    1       -5.013   2.944   0.781  0.00  0.00    -0.120 A 
ATOM      6  C   LIG    1       -4.998   2.975  -0.616  0.00  0.00    +0.080 A 
ATOM      7  C   LIG    1       -4.004   2.318  -1.311  0.00  0.00    -0.040 A 
ATOM      8  C   LIG    1       -3.019   1.625  -0.621  0.00  0.00    +0.110 A 
ATOM      9  O   LIG    1       -2.034   0.973  -1.302  0.00  0.00    -0.310 OA
ATOM     10  C   LIG    1       -0.719   1.517  -1.174  0.00  0.00    +0.230 C 
ATOM     11  C   LIG    1       -0.039   0.994   0.081  0.00  0.00    +0.000 C 
ATOM     12  C   LIG    1       -0.739   1.453   1.350  0.00  0.00    +0.230 C 
ATOM     13  O   LIG    1       -2.053   0.904   1.433  0.00  0.00    -0.310 OA
ATOM     14  C   LIG    1       -3.029   1.591   0.769  0.00  0.00    +0.070 A 
ATOM     15 CL   LIG    1       -3.985   2.358  -3.046  0.00  0.00    -0.040 Cl
ATOM     16  C   LIG    1       -4.019   2.245   1.473  0.00  0.00    +0.110 A 
ENDBRANCH   3   5
BRANCH   1  20
ATOM     17  C   LIG    1      -10.191   6.073   2.939  0.00  0.00    +0.140 A 
ATOM     18  C   LIG    1       -8.923   6.036   3.503  0.00  0.00    -0.010 A 
ATOM     19  C   LIG    1       -7.878   5.456   2.814  0.00  0.00    +0.050 A 
ATOM     20  C   LIG    1       -8.095   4.908   1.556  0.00  0.00    +0.110 A 
ATOM     21  C   LIG    1       -9.362   4.949   0.990  0.00  0.00    +0.010 A 
ATOM     22  C   LIG    1      -10.409   5.525   1.682  0.00  0.00    +0.040 A 
BRANCH  17  25
ATOM     23  C   LIG    1      -13.664   7.105   3.966  0.00  0.00    +0.110 C 
ATOM     24  C   LIG    1      -12.508   6.579   3.156  0.00  0.00    +0.510 C 
ATOM     25  N   LIG    1      -11.252   6.662   3.639  0.00  0.00    -0.560 N 
ATOM     26  C   LIG    1      -10.997   7.370   4.896  0.00  0.00    +0.310 C 
ATOM     27  O   LIG    1      -12.707   6.080   2.068  0.00  0.00    -0.520 OA
ENDBRANCH  17  25
ENDBRANCH   1  20
TORSDOF 3
