REMARK  Name = ZINCvU00000004Jl.0
REMARK                            x       y       z     vdW  Elec       q    Type
REMARK                         _______ _______ _______ _____ _____    ______ ____
ROOT
ATOM      1  O   LIG    1       -0.980  -2.184   0.102  0.00  0.00    -0.500 OA
ATOM      2  C   LIG    1        0.082  -2.771   0.089  0.00  0.00    +0.540 C 
ATOM      3  N   LIG    1        1.233  -2.079  -0.020  0.00  0.00    -0.660 N 
ATOM      4  H   LIG    1        2.077  -2.551  -0.097  0.00  0.00    +0.420 HD
ENDROOT
BRANCH   3   5
ATOM      5  C   LIG    1        1.211  -0.682  -0.023  0.00  0.00    +0.150 A 
ATOM      6  C   LIG    1        0.155  -0.004  -0.614  0.00  0.00    +0.020 A 
ATOM      7  C   LIG    1        0.135   1.378  -0.616  0.00  0.00    +0.030 A 
ATOM      8  C   LIG    1        1.165   2.092  -0.029  0.00  0.00    +0.000 A 
ATOM      9  C   LIG    1        2.222   1.430   0.563  0.00  0.00    +0.040 A 
ATOM     10  C   LIG    1        2.254   0.038   0.571  0.00  0.00    -0.070 A 
BRANCH  10  11
ATOM     11  C   LIG    1        3.387  -0.677   1.205  0.00  0.00    -0.050 A 
ATOM     12  C   LIG    1        3.144  -1.696   2.125  0.00  0.00    +0.010 A 
ATOM     13  C   LIG    1        4.203  -2.362   2.708  0.00  0.00    +0.010 A 
ATOM     14  C   LIG    1        5.503  -2.013   2.389  0.00  0.00    +0.010 A 
ATOM     15  C   LIG    1        5.750  -1.000   1.481  0.00  0.00    +0.010 A 
ATOM     16  C   LIG    1        4.699  -0.331   0.887  0.00  0.00    +0.030 A 
ENDBRANCH  10  11
ENDBRANCH   3   5
BRANCH   2  17
ATOM     17  C   LIG    1        0.113  -4.274   0.195  0.00  0.00    +0.110 C 
BRANCH  17  18
ATOM     18  S   LIG    1       -1.579  -4.905   0.328  0.00  0.00    +0.170 S 
BRANCH  18  19
ATOM     19  C   LIG    1       -1.253  -6.633   0.434  0.00  0.00    +0.130 A 
ATOM     20  N   LIG    1       -0.073  -7.205   0.414  0.00  0.00    -0.290 NA
ATOM     21  N   LIG    1       -0.217  -8.480   0.512  0.00  0.00    -0.240 NA
ATOM     22  C   LIG    1       -1.482  -8.771   0.599  0.00  0.00    +0.160 A 
ATOM     23  O   LIG    1       -2.169  -7.612   0.557  0.00  0.00    -0.190 OA
BRANCH  22  24
ATOM     24  C   LIG    1       -2.071 -10.152   0.727  0.00  0.00    +0.380 C 
BRANCH  24  25
ATOM     25  O   LIG    1       -2.188 -10.493   2.110  0.00  0.00    -0.310 OA
BRANCH  25  26
ATOM     26  C   LIG    1       -2.706 -11.715   2.402  0.00  0.00    +0.120 A 
ATOM     27  C   LIG    1       -3.099 -12.566   1.379  0.00  0.00    -0.040 A 
ATOM     28  C   LIG    1       -3.621 -13.809   1.677  0.00  0.00    +0.030 A 
ATOM     29  C   LIG    1       -3.762 -14.203   2.997  0.00  0.00    +0.070 A 
ATOM     30  C   LIG    1       -3.375 -13.353   4.020  0.00  0.00    +0.040 A 
ATOM     31  F   LIG    1       -4.277 -15.418   3.288  0.00  0.00    -0.140 F 
ATOM     32  C   LIG    1       -2.848 -12.111   3.724  0.00  0.00    +0.020 A 
ENDBRANCH  25  26
ENDBRANCH  24  25
ENDBRANCH  22  24
ENDBRANCH  18  19
ENDBRANCH  17  18
ENDBRANCH   2  17
TORSDOF 8
