REMARK  Name = ZINCtV00000L6jGu.0
REMARK                            x       y       z     vdW  Elec       q    Type
REMARK                         _______ _______ _______ _____ _____    ______ ____
ROOT
ATOM      1  C   LIG    1       -1.001   3.165  -0.324  0.00  0.00    -0.340 A 
ATOM      2  C   LIG    1       -1.174   1.801  -0.284  0.00  0.00    +0.270 A 
ATOM      3  C   LIG    1       -0.011   1.078  -0.403  0.00  0.00    +0.020 A 
ATOM      4  C   LIG    1        1.116   1.829  -0.552  0.00  0.00    -0.090 A 
ATOM      5  S   LIG    1        0.704   3.538  -0.535  0.00  0.00    +0.240 S 
ENDROOT
BRANCH   4   6
ATOM      6  C   LIG    1        2.482   1.287  -0.705  0.00  0.00    -0.040 A 
ATOM      7  C   LIG    1        2.693  -0.093  -0.699  0.00  0.00    +0.080 A 
ATOM      8  C   LIG    1        3.970  -0.593  -0.846  0.00  0.00    -0.010 A 
ATOM      9  C   LIG    1        5.043   0.272  -0.991  0.00  0.00    +0.110 A 
ATOM     10  C   LIG    1        4.840   1.643  -0.993  0.00  0.00    -0.010 A 
ATOM     11  F   LIG    1        6.293  -0.224  -1.130  0.00  0.00    -0.130 F 
ATOM     12  C   LIG    1        3.567   2.153  -0.851  0.00  0.00    +0.070 A 
ENDBRANCH   4   6
BRANCH   2  13
ATOM     13  N   LIG    1       -2.425   1.202  -0.130  0.00  0.00    -0.650 N 
ATOM     14  H   LIG    1       -3.204   1.747   0.061  0.00  0.00    +0.430 HD
ATOM     15  C   LIG    1       -2.550  -0.135  -0.248  0.00  0.00    +0.710 C 
ATOM     16  N   LIG    1       -3.770  -0.705  -0.191  0.00  0.00    -0.670 N 
ATOM     17  H   LIG    1       -4.564  -0.148  -0.144  0.00  0.00    +0.420 HD
ATOM     18  O   LIG    1       -1.563  -0.827  -0.406  0.00  0.00    -0.550 OA
BRANCH  16  19
ATOM     19  C   LIG    1       -3.893  -2.099  -0.199  0.00  0.00    +0.180 A 
ATOM     20  C   LIG    1       -2.914  -2.886   0.393  0.00  0.00    +0.050 A 
ATOM     21  C   LIG    1       -3.037  -4.262   0.385  0.00  0.00    +0.080 A 
ATOM     22  C   LIG    1       -4.134  -4.857  -0.213  0.00  0.00    -0.050 A 
ATOM     23  C   LIG    1       -5.112  -4.074  -0.805  0.00  0.00    -0.010 A 
ATOM     24 CL   LIG    1       -6.487  -4.823  -1.554  0.00  0.00    -0.040 Cl
ATOM     25 CL   LIG    1       -4.285  -6.586  -0.222  0.00  0.00    -0.040 Cl
ATOM     26  C   LIG    1       -4.996  -2.697  -0.794  0.00  0.00    +0.020 A 
ENDBRANCH  16  19
ENDBRANCH   2  13
BRANCH   1  27
ATOM     27  C   LIG    1       -2.037   4.121  -0.218  0.00  0.00    +0.550 C 
ATOM     28  O   LIG    1       -3.189   3.756  -0.074  0.00  0.00    -0.520 OA
BRANCH  27  29
ATOM     29  O   LIG    1       -1.748   5.438  -0.277  0.00  0.00    -0.350 OA
BRANCH  29  31
ATOM     30  C   LIG    1       -2.325   7.785  -0.251  0.00  0.00    +0.070 C 
ATOM     31  C   LIG    1       -2.844   6.348  -0.163  0.00  0.00    +0.200 C 
ENDBRANCH  29  31
ENDBRANCH  27  29
ENDBRANCH   1  27
TORSDOF 6
