REMARK  Name = ZINCpk00000KfLTI.0
REMARK                            x       y       z     vdW  Elec       q    Type
REMARK                         _______ _______ _______ _____ _____    ______ ____
ROOT
ATOM      1  N   LIG    1        0.153  -0.271   4.986  0.00  0.00    -0.530 NA
ATOM      2  C   LIG    1        0.100   1.194   4.883  0.00  0.00    +0.180 C 
ATOM      3  C   LIG    1       -0.763   1.587   3.681  0.00  0.00    +0.190 C 
ATOM      4  N   LIG    1       -0.196   0.995   2.460  0.00  0.00    -0.540 NA
ATOM      5  C   LIG    1       -0.143  -0.469   2.564  0.00  0.00    +0.180 C 
ATOM      6  C   LIG    1        0.719  -0.862   3.766  0.00  0.00    +0.200 C 
ENDROOT
BRANCH   1   8
ATOM      7  C   LIG    1        0.983  -2.215   6.223  0.00  0.00    +0.080 C 
ATOM      8  C   LIG    1        0.910  -0.688   6.174  0.00  0.00    +0.270 C 
BRANCH   8   9
ATOM      9  C   LIG    1        0.222  -0.177   7.413  0.00  0.00    +0.190 A 
ATOM     10  N   LIG    1        0.791   0.420   8.432  0.00  0.00    -0.480 NA
ATOM     11  C   LIG    1       -0.205   0.695   9.293  0.00  0.00    +0.200 A 
ATOM     12  N   LIG    1       -1.308   0.252   8.767  0.00  0.00    -0.380 NA
ATOM     13  O   LIG    1       -1.084  -0.253   7.687  0.00  0.00    +0.100 OA
BRANCH  11  14
ATOM     14  C   LIG    1       -0.068   1.386  10.625  0.00  0.00    +0.060 C 
ATOM     15  C   LIG    1       -1.296   1.413  11.537  0.00  0.00    +0.050 C 
ATOM     16  C   LIG    1       -0.842   2.690  10.828  0.00  0.00    +0.050 C 
ENDBRANCH  11  14
ENDBRANCH   8   9
ENDBRANCH   1   8
BRANCH   4  17
ATOM     17  C   LIG    1       -0.954   1.412   1.273  0.00  0.00    +0.180 C 
BRANCH  17  18
ATOM     18  C   LIG    1       -0.199   0.989   0.011  0.00  0.00    +0.290 C 
BRANCH  18  19
ATOM     19  N   LIG    1       -0.955   1.404  -1.173  0.00  0.00    -0.500 N 
ATOM     20  C   LIG    1       -1.869   0.560  -1.715  0.00  0.00    +0.290 A 
ATOM     21  C   LIG    1       -2.584   0.924  -2.806  0.00  0.00    -0.080 A 
ATOM     22  C   LIG    1       -2.374   2.180  -3.393  0.00  0.00    +0.120 A 
ATOM     23  C   LIG    1       -1.450   3.024  -2.850  0.00  0.00    -0.090 A 
ATOM     24  C   LIG    1       -0.730   2.616  -1.714  0.00  0.00    +0.510 A 
ATOM     25  O   LIG    1        0.100   3.362  -1.218  0.00  0.00    -0.550 OA
ENDBRANCH  18  19
ENDBRANCH  17  18
ENDBRANCH   4  17
TORSDOF 6
