REMARK  Name = ZINCqH000000702f.0
REMARK                            x       y       z     vdW  Elec       q    Type
REMARK                         _______ _______ _______ _____ _____    ______ ____
ROOT
ATOM      1  C   LIG    1       -3.376  -1.233   0.045  0.00  0.00    +0.220 A 
ATOM      2  N   LIG    1       -3.059  -1.207   1.314  0.00  0.00    -0.350 NA
ATOM      3  O   LIG    1       -1.923  -0.805   1.452  0.00  0.00    +0.090 OA
ATOM      4  C   LIG    1       -1.388  -0.527   0.259  0.00  0.00    +0.180 A 
ATOM      5  N   LIG    1       -2.300  -0.788  -0.644  0.00  0.00    -0.460 NA
ENDROOT
BRANCH   1   9
ATOM      6  C   LIG    1       -7.099  -2.468  -1.607  0.00  0.00    +0.190 A 
ATOM      7  C   LIG    1       -6.075  -2.038  -2.442  0.00  0.00    -0.110 A 
ATOM      8  C   LIG    1       -4.870  -1.632  -1.909  0.00  0.00    +0.160 A 
ATOM      9  C   LIG    1       -4.672  -1.663  -0.530  0.00  0.00    -0.100 A 
ATOM     10  C   LIG    1       -5.704  -2.097   0.311  0.00  0.00    +0.200 A 
ATOM     11  C   LIG    1       -6.912  -2.497  -0.233  0.00  0.00    -0.110 A 
BRANCH   6  13
ATOM     12  C   LIG    1       -8.410  -2.807  -3.560  0.00  0.00    +0.240 C 
ATOM     13  O   LIG    1       -8.285  -2.862  -2.138  0.00  0.00    -0.310 OA
ENDBRANCH   6  13
BRANCH  10  14
ATOM     14  O   LIG    1       -5.519  -2.124   1.656  0.00  0.00    -0.290 OA
ATOM     15  C   LIG    1       -6.616  -2.578   2.452  0.00  0.00    +0.240 C 
ENDBRANCH  10  14
ENDBRANCH   1   9
BRANCH   4  16
ATOM     16  C   LIG    1        0.002  -0.004   0.002  0.00  0.00    +0.360 C 
BRANCH  16  17
ATOM     17  N   LIG    1       -0.018   1.465   0.010  0.00  0.00    -0.480 N 
ATOM     18  C   LIG    1       -0.689   1.964  -1.113  0.00  0.00    +0.080 A 
ATOM     19  C   LIG    1       -2.055   2.031  -1.382  0.00  0.00    +0.030 A 
ATOM     20  C   LIG    1       -2.502   2.564  -2.574  0.00  0.00    +0.020 A 
ATOM     21  C   LIG    1       -1.599   3.038  -3.507  0.00  0.00    +0.010 A 
ATOM     22  C   LIG    1       -0.242   2.978  -3.246  0.00  0.00    +0.030 A 
ATOM     23  C   LIG    1        0.210   2.447  -2.056  0.00  0.00    -0.130 A 
ATOM     24  C   LIG    1        1.610   2.261  -1.505  0.00  0.00    +0.070 C 
ATOM     25  C   LIG    1        1.356   2.014  -0.000  0.00  0.00    +0.190 C 
ATOM     26  C   LIG    1        2.351   0.995   0.558  0.00  0.00    +0.050 C 
ENDBRANCH  16  17
ENDBRANCH   4  16
TORSDOF 5
