REMARK  Name = ZINCqH0000008uIj.0
REMARK                            x       y       z     vdW  Elec       q    Type
REMARK                         _______ _______ _______ _____ _____    ______ ____
ROOT
ATOM      1  C   LIG    1        1.531  10.239   1.627  0.00  0.00    +0.070 C 
ATOM      2  C   LIG    1        1.134  10.121   0.153  0.00  0.00    +0.160 C 
ENDROOT
BRANCH   2   3
ATOM      3  C   LIG    1        1.026  11.498  -0.449  0.00  0.00    +0.360 C 
ATOM      4  O   LIG    1       -0.058  12.014  -0.585  0.00  0.00    -0.360 OA
BRANCH   3   5
ATOM      5  C   LIG    1        2.269  12.232  -0.881  0.00  0.00    +0.220 C 
BRANCH   5   6
ATOM      6  C   LIG    1        1.916  13.231  -1.953  0.00  0.00    +0.180 A 
ATOM      7  N   LIG    1        1.078  14.223  -1.823  0.00  0.00    -0.440 NA
ATOM      8  C   LIG    1        1.013  14.901  -2.978  0.00  0.00    +0.160 A 
ATOM      9  C   LIG    1        1.842  14.307  -3.857  0.00  0.00    +0.150 A 
ATOM     10  N   LIG    1        2.419  13.251  -3.206  0.00  0.00    -0.450 N 
ATOM     11  C   LIG    1        3.398  12.315  -3.765  0.00  0.00    +0.330 C 
ENDBRANCH   5   6
BRANCH   5  12
ATOM     12  C   LIG    1        2.849  12.937   0.274  0.00  0.00    +0.210 C 
ATOM     13  N   LIG    1        3.297  13.480   1.165  0.00  0.00    -0.370 NA
ENDBRANCH   5  12
ENDBRANCH   3   5
ENDBRANCH   2   3
BRANCH   2  14
ATOM     14  O   LIG    1       -0.126   9.456   0.051  0.00  0.00    -0.290 OA
BRANCH  14  15
ATOM     15  C   LIG    1       -0.108   8.097   0.046  0.00  0.00    +0.130 A 
ATOM     16  C   LIG    1        1.086   7.420   0.251  0.00  0.00    -0.080 A 
ATOM     17  C   LIG    1        1.108   6.041   0.246  0.00  0.00    +0.060 A 
ATOM     18  C   LIG    1       -0.071   5.327   0.035  0.00  0.00    -0.080 A 
ATOM     19  C   LIG    1       -1.267   6.011  -0.176  0.00  0.00    +0.060 A 
ATOM     20  C   LIG    1       -1.284   7.389  -0.165  0.00  0.00    +0.000 A 
BRANCH  18  21
ATOM     21  C   LIG    1       -0.051   3.844   0.029  0.00  0.00    -0.040 A 
ATOM     22  C   LIG    1       -1.228   3.130  -0.183  0.00  0.00    +0.020 A 
ATOM     23  C   LIG    1       -1.204   1.750  -0.187  0.00  0.00    +0.000 A 
ATOM     24  C   LIG    1       -0.013   1.076   0.018  0.00  0.00    +0.000 A 
ATOM     25  C   LIG    1        1.158   1.780   0.233  0.00  0.00    +0.000 A 
ATOM     26  C   LIG    1        1.146   3.160   0.234  0.00  0.00    +0.000 A 
ENDBRANCH  18  21
ENDBRANCH  14  15
ENDBRANCH   2  14
TORSDOF 7
