REMARK  Name = ZINCqH0000002VPl.0
REMARK                            x       y       z     vdW  Elec       q    Type
REMARK                         _______ _______ _______ _____ _____    ______ ____
ROOT
ATOM      1  C   LIG    1       -1.538  -0.614  -2.273  0.00  0.00    +0.060 C 
ENDROOT
BRANCH   1   3
ATOM      2  N   LIG    1        0.688  -0.476  -1.203  0.00  0.00    -0.570 N 
ATOM      3  C   LIG    1       -0.068  -0.938  -2.220  0.00  0.00    +0.530 C 
ATOM      4  O   LIG    1        0.437  -1.614  -3.091  0.00  0.00    -0.520 OA
BRANCH   2   5
ATOM      5  C   LIG    1        2.072  -0.691  -1.206  0.00  0.00    +0.130 A 
ATOM      6  C   LIG    1        2.647  -1.530  -0.261  0.00  0.00    +0.050 A 
ATOM      7  C   LIG    1        4.011  -1.744  -0.268  0.00  0.00    +0.000 A 
ATOM      8  C   LIG    1        4.807  -1.114  -1.210  0.00  0.00    +0.100 A 
ATOM      9  C   LIG    1        4.236  -0.273  -2.150  0.00  0.00    +0.000 A 
ATOM     10  F   LIG    1        6.142  -1.320  -1.212  0.00  0.00    -0.140 F 
ATOM     11  C   LIG    1        2.871  -0.060  -2.150  0.00  0.00    +0.050 A 
ENDBRANCH   2   5
BRANCH   2  13
ATOM     12  C   LIG    1        0.034   1.745  -0.417  0.00  0.00    +0.020 C 
ATOM     13  C   LIG    1        0.061   0.249  -0.096  0.00  0.00    +0.280 C 
ENDBRANCH   2  13
ENDBRANCH   1   3
BRANCH   1  14
ATOM     14  C   LIG    1       -2.157  -1.254  -3.518  0.00  0.00    +0.330 C 
BRANCH  14  15
ATOM     15  N   LIG    1       -3.587  -0.939  -3.569  0.00  0.00    -0.550 N 
ATOM     16  C   LIG    1       -4.006   0.181  -4.213  0.00  0.00    +0.590 A 
ATOM     17  N   LIG    1       -5.254   0.528  -4.303  0.00  0.00    -0.520 NA
ATOM     18  C   LIG    1       -6.242  -0.219  -3.749  0.00  0.00    +0.170 A 
ATOM     19  C   LIG    1       -7.584   0.153  -3.846  0.00  0.00    +0.050 A 
ATOM     20  C   LIG    1       -8.554  -0.635  -3.268  0.00  0.00    +0.100 A 
ATOM     21  C   LIG    1       -8.214  -1.799  -2.590  0.00  0.00    -0.110 A 
ATOM     22  C   LIG    1       -6.896  -2.188  -2.482  0.00  0.00    +0.140 A 
ATOM     23 BR   LIG    1       -9.572  -2.859  -1.809  0.00  0.00    -0.030 Br
ATOM     24  C   LIG    1       -5.900  -1.403  -3.059  0.00  0.00    -0.190 A 
ATOM     25  C   LIG    1       -4.478  -1.770  -2.981  0.00  0.00    +0.550 A 
ATOM     26  O   LIG    1       -4.116  -2.780  -2.405  0.00  0.00    -0.500 OA
ENDBRANCH  14  15
ENDBRANCH   1  14
TORSDOF 5
