REMARK  Name = ZINCah0000006lDo.1
REMARK                            x       y       z     vdW  Elec       q    Type
REMARK                         _______ _______ _______ _____ _____    ______ ____
ROOT
ATOM      1  C   LIG    1       -0.487   3.060   1.944  0.00  0.00    -0.040 A 
ATOM      2  C   LIG    1       -0.722   1.881   1.250  0.00  0.00    -0.230 A 
ATOM      3  C   LIG    1       -1.746   1.239   1.947  0.00  0.00    +0.240 A 
ATOM      4  N   LIG    1       -2.078   1.995   2.963  0.00  0.00    -0.260 NA
ATOM      5  N   LIG    1       -1.368   3.066   2.992  0.00  0.00    -0.350 N 
ATOM      6  H   LIG    1       -1.443   3.768   3.656  0.00  0.00    +0.460 HD
ENDROOT
BRANCH   2   7
ATOM      7  C   LIG    1       -0.017   1.395   0.010  0.00  0.00    +0.480 C 
ATOM      8  F   LIG    1        1.296   1.879  -0.000  0.00  0.00    -0.200 F 
ATOM      9  F   LIG    1        0.002  -0.004   0.002  0.00  0.00    -0.190 F 
ENDBRANCH   2   7
BRANCH   1  11
ATOM     10  O   LIG    1        0.599   5.076   2.320  0.00  0.00    -0.450 OA
ATOM     11  C   LIG    1        0.500   4.089   1.621  0.00  0.00    +0.550 C 
ENDBRANCH   1  11
TORSDOF 2
