REMARK  Name = ZINCah0000006lDo.0
REMARK                            x       y       z     vdW  Elec       q    Type
REMARK                         _______ _______ _______ _____ _____    ______ ____
ROOT
ATOM      1  C   LIG    1       -0.485   3.087   1.954  0.00  0.00    -0.030 A 
ATOM      2  N   LIG    1       -1.323   3.111   2.974  0.00  0.00    -0.220 NA
ATOM      3  N   LIG    1       -2.049   2.051   2.972  0.00  0.00    -0.380 N 
ATOM      4  H   LIG    1       -2.736   1.848   3.626  0.00  0.00    +0.450 HD
ATOM      5  C   LIG    1       -1.719   1.260   1.921  0.00  0.00    +0.240 A 
ATOM      6  C   LIG    1       -0.722   1.881   1.250  0.00  0.00    -0.250 A 
ENDROOT
BRANCH   6   7
ATOM      7  C   LIG    1       -0.017   1.395   0.010  0.00  0.00    +0.480 C 
ATOM      8  F   LIG    1        1.296   1.879  -0.000  0.00  0.00    -0.200 F 
ATOM      9  F   LIG    1        0.002  -0.004   0.002  0.00  0.00    -0.200 F 
ENDBRANCH   6   7
BRANCH   1  11
ATOM     10  O   LIG    1        0.610   5.111   2.302  0.00  0.00    -0.440 OA
ATOM     11  C   LIG    1        0.506   4.118   1.613  0.00  0.00    +0.550 C 
ENDBRANCH   1  11
TORSDOF 2
