REMARK  Name = ZINCnE000001KbGa.0
REMARK                            x       y       z     vdW  Elec       q    Type
REMARK                         _______ _______ _______ _____ _____    ______ ____
ROOT
ATOM      1  C   LIG    1       -1.217   1.568   0.018  0.00  0.00    +0.600 C 
ATOM      2  N   LIG    1       -0.011   0.966   0.007  0.00  0.00    -0.650 N 
ATOM      3  H   LIG    1        0.048  -0.002   0.007  0.00  0.00    +0.420 HD
ATOM      4  O   LIG    1       -1.293   2.779  -0.066  0.00  0.00    -0.510 OA
ENDROOT
BRANCH   2   5
ATOM      5  C   LIG    1        1.157   1.738  -0.009  0.00  0.00    +0.130 A 
ATOM      6  C   LIG    1        1.181   2.944  -0.712  0.00  0.00    +0.030 A 
ATOM      7  C   LIG    1        2.313   3.704  -0.734  0.00  0.00    +0.070 A 
ATOM      8  C   LIG    1        3.463   3.287  -0.055  0.00  0.00    -0.170 A 
ATOM      9  S   LIG    1        5.043   4.050   0.090  0.00  0.00    +0.120 S 
ATOM     10  C   LIG    1        5.641   2.737   1.089  0.00  0.00    -0.170 A 
ATOM     11  C   LIG    1        4.689   1.814   1.275  0.00  0.00    +0.020 A 
ATOM     12  C   LIG    1        3.458   2.080   0.656  0.00  0.00    -0.050 A 
ATOM     13  C   LIG    1        2.272   1.307   0.671  0.00  0.00    +0.020 A 
BRANCH  10  14
ATOM     14  C   LIG    1        6.995   2.662   1.643  0.00  0.00    +0.540 C 
ATOM     15  O   LIG    1        7.799   3.557   1.418  0.00  0.00    -0.680 OA
ATOM     16  O   LIG    1        7.322   1.704   2.332  0.00  0.00    -0.670 OA
ENDBRANCH  10  14
ENDBRANCH   2   5
BRANCH   1  19
ATOM     17  C   LIG    1       -3.585  -1.136   0.320  0.00  0.00    +0.020 A 
ATOM     18  N   LIG    1       -2.432  -0.573   0.228  0.00  0.00    -0.420 NA
ATOM     19  C   LIG    1       -2.442   0.759   0.132  0.00  0.00    +0.010 A 
ATOM     20  C   LIG    1       -3.683   1.296   0.154  0.00  0.00    -0.030 A 
ATOM     21  S   LIG    1       -4.828   0.035   0.291  0.00  0.00    +0.250 S 
BRANCH  17  22
ATOM     22  C   LIG    1       -3.808  -2.622   0.438  0.00  0.00    +0.300 C 
BRANCH  22  24
ATOM     23  C   LIG    1       -4.023  -4.391   2.041  0.00  0.00    +0.220 C 
ATOM     24  O   LIG    1       -3.818  -2.994   1.817  0.00  0.00    -0.380 OA
ENDBRANCH  22  24
ENDBRANCH  17  22
ENDBRANCH   1  19
TORSDOF 5
