REMARK  Name = ZINCpk00000y6wi4.0
REMARK                            x       y       z     vdW  Elec       q    Type
REMARK                         _______ _______ _______ _____ _____    ______ ____
ROOT
ATOM      1  S   LIG    1       -3.046   0.037  -1.919  0.00  0.00    +0.100 S 
ENDROOT
BRANCH   1   2
ATOM      2  C   LIG    1       -4.562   0.916  -1.744  0.00  0.00    +0.420 A 
ATOM      3  N   LIG    1       -4.958   1.318  -0.547  0.00  0.00    -0.560 NA
ATOM      4  C   LIG    1       -6.101   1.985  -0.384  0.00  0.00    +0.680 A 
ATOM      5  N   LIG    1       -6.889   2.270  -1.438  0.00  0.00    -0.370 N 
ATOM      6  N   LIG    1       -8.112   2.941  -1.551  0.00  0.00    -0.230 NA
ATOM      7  C   LIG    1       -8.479   2.960  -2.802  0.00  0.00    +0.360 A 
ATOM      8  C   LIG    1       -7.496   2.292  -3.568  0.00  0.00    -0.170 A 
ATOM      9  C   LIG    1       -6.511   1.871  -2.684  0.00  0.00    +0.360 A 
ATOM     10  O   LIG    1       -6.436   2.341   0.732  0.00  0.00    -0.460 OA
ATOM     11  N   LIG    1       -5.326   1.187  -2.845  0.00  0.00    -0.600 N 
ATOM     12  H   LIG    1       -5.040   0.898  -3.726  0.00  0.00    +0.440 HD
BRANCH   8  13
ATOM     13  C   LIG    1       -7.513   2.089  -4.985  0.00  0.00    +0.280 C 
ATOM     14  N   LIG    1       -7.526   1.927  -6.109  0.00  0.00    -0.400 NA
ENDBRANCH   8  13
ENDBRANCH   1   2
BRANCH   1  15
ATOM     15  C   LIG    1       -2.506  -0.007  -0.192  0.00  0.00    +0.210 C 
BRANCH  15  22
ATOM     16  C   LIG    1       -1.171  -2.127  -0.016  0.00  0.00    -0.160 A 
ATOM     17  C   LIG    1        0.062  -2.784   0.078  0.00  0.00    +0.170 A 
ATOM     18  C   LIG    1        1.214  -2.019   0.078  0.00  0.00    +0.010 A 
ATOM     19  C   LIG    1        1.112  -0.640  -0.004  0.00  0.00    +0.210 A 
ATOM     20  N   LIG    1       -0.065  -0.048  -0.087  0.00  0.00    -0.460 NA
ATOM     21 CL   LIG    1        2.555   0.325   0.002  0.00  0.00    -0.000 Cl
ATOM     22  C   LIG    1       -1.189  -0.733  -0.095  0.00  0.00    +0.210 A 
BRANCH  16  23
ATOM     23  C   LIG    1       -2.432  -2.895  -0.025  0.00  0.00    +0.510 C 
ATOM     24  O   LIG    1       -3.489  -2.327  -0.217  0.00  0.00    -0.480 OA
BRANCH  23  26
ATOM     25  C   LIG    1       -3.689  -4.917   0.164  0.00  0.00    +0.290 C 
ATOM     26  O   LIG    1       -2.412  -4.226   0.186  0.00  0.00    -0.350 OA
ENDBRANCH  23  26
ENDBRANCH  16  23
ENDBRANCH  15  22
ENDBRANCH   1  15
TORSDOF 6
