REMARK  Name = ZINCrD000000CxR4.1
REMARK                            x       y       z     vdW  Elec       q    Type
REMARK                         _______ _______ _______ _____ _____    ______ ____
ROOT
ATOM      1  C   LIG    1       -3.998  -0.594  -0.513  0.00  0.00    -0.010 A 
ATOM      2  N   LIG    1       -4.525   0.357   0.232  0.00  0.00    -0.230 NA
ATOM      3  N   LIG    1       -3.649   1.260   0.493  0.00  0.00    -0.370 N 
ATOM      4  H   LIG    1       -3.810   2.053   1.028  0.00  0.00    +0.450 HD
ATOM      5  C   LIG    1       -2.462   0.942  -0.098  0.00  0.00    +0.030 A 
ATOM      6  C   LIG    1       -2.650  -0.245  -0.748  0.00  0.00    +0.030 A 
ENDROOT
BRANCH   1   8
ATOM      7  O   LIG    1       -4.088  -2.609  -1.692  0.00  0.00    -0.530 OA
ATOM      8  C   LIG    1       -4.689  -1.802  -1.009  0.00  0.00    +0.630 C 
ATOM      9  N   LIG    1       -5.986  -2.009  -0.706  0.00  0.00    -0.610 N 
ATOM     10  C   LIG    1       -6.875  -1.149   0.111  0.00  0.00    +0.280 C 
ATOM     11  C   LIG    1       -8.242  -1.201  -0.619  0.00  0.00    +0.000 C 
ATOM     12  C   LIG    1       -8.208  -2.518  -1.405  0.00  0.00    -0.090 C 
ATOM     13  C   LIG    1       -9.416  -3.434  -1.213  0.00  0.00    +0.030 C 
ATOM     14  C   LIG    1       -9.283  -3.776  -2.709  0.00  0.00    +0.010 C 
ATOM     15  C   LIG    1       -8.582  -2.416  -2.882  0.00  0.00    +0.020 C 
ATOM     16  C   LIG    1       -6.842  -3.151  -1.109  0.00  0.00    +0.300 C 
BRANCH  11  17
ATOM     17  C   LIG    1       -9.387  -1.214   0.395  0.00  0.00    +0.180 C 
BRANCH  17  18
ATOM     18  O   LIG    1       -9.473   0.062   1.033  0.00  0.00    -0.570 OA
ATOM     19  H   LIG    1      -10.179   0.127   1.690  0.00  0.00    +0.380 HD
ENDBRANCH  17  18
ENDBRANCH  11  17
ENDBRANCH   1   8
BRANCH   5  20
ATOM     20  C   LIG    1       -1.209   1.727  -0.039  0.00  0.00    +0.030 A 
ATOM     21  C   LIG    1       -0.484   1.976  -1.204  0.00  0.00    +0.050 A 
ATOM     22  C   LIG    1        0.681   2.714  -1.144  0.00  0.00    +0.060 A 
ATOM     23  C   LIG    1        1.132   3.202   0.069  0.00  0.00    +0.030 A 
ATOM     24  C   LIG    1        0.420   2.954   1.229  0.00  0.00    +0.070 A 
ATOM     25  C   LIG    1       -0.746   2.218   1.182  0.00  0.00    -0.180 A 
BRANCH  25  26
ATOM     26  C   LIG    1       -1.520   1.949   2.446  0.00  0.00    +0.510 C 
ATOM     27  F   LIG    1       -1.745   0.574   2.572  0.00  0.00    -0.170 F 
ATOM     28  F   LIG    1       -2.748   2.618   2.393  0.00  0.00    -0.180 F 
ATOM     29  F   LIG    1       -0.788   2.405   3.548  0.00  0.00    -0.170 F 
ENDBRANCH  25  26
ENDBRANCH   5  20
TORSDOF 5
