REMARK  Name = ZINCrD000000CxR4.0
REMARK                            x       y       z     vdW  Elec       q    Type
REMARK                         _______ _______ _______ _____ _____    ______ ____
ROOT
ATOM      1  C   LIG    1       -1.592  -5.530  -0.122  0.00  0.00    -0.030 A 
ATOM      2  C   LIG    1       -2.407  -4.417  -0.034  0.00  0.00    +0.050 A 
ATOM      3  C   LIG    1       -3.718  -4.904  -0.182  0.00  0.00    +0.040 A 
ATOM      4  N   LIG    1       -3.641  -6.207  -0.351  0.00  0.00    -0.240 NA
ATOM      5  N   LIG    1       -2.419  -6.600  -0.321  0.00  0.00    -0.370 N 
ATOM      6  H   LIG    1       -2.126  -7.519  -0.424  0.00  0.00    +0.450 HD
ENDROOT
BRANCH   1   8
ATOM      7  O   LIG    1        0.505  -4.515  -0.029  0.00  0.00    -0.510 OA
ATOM      8  C   LIG    1       -0.123  -5.556  -0.027  0.00  0.00    +0.610 C 
ATOM      9  N   LIG    1        0.525  -6.735   0.062  0.00  0.00    -0.620 N 
ATOM     10  C   LIG    1        1.986  -6.961   0.167  0.00  0.00    +0.290 C 
ATOM     11  C   LIG    1        2.130  -8.131   1.168  0.00  0.00    +0.000 C 
ATOM     12  C   LIG    1        0.787  -8.867   1.097  0.00  0.00    -0.090 C 
ATOM     13  C   LIG    1        0.114  -9.147   2.440  0.00  0.00    +0.030 C 
ATOM     14  C   LIG    1       -0.330 -10.493   1.838  0.00  0.00    +0.010 C 
ATOM     15  C   LIG    1        0.870 -10.377   0.880  0.00  0.00    +0.040 C 
ATOM     16  C   LIG    1       -0.065  -8.096   0.084  0.00  0.00    +0.280 C 
BRANCH  11  17
ATOM     17  C   LIG    1        3.272  -9.057   0.745  0.00  0.00    +0.200 C 
BRANCH  17  18
ATOM     18  O   LIG    1        4.516  -8.362   0.856  0.00  0.00    -0.570 OA
ATOM     19  H   LIG    1        5.285  -8.890   0.604  0.00  0.00    +0.380 HD
ENDBRANCH  17  18
ENDBRANCH  11  17
ENDBRANCH   1   8
BRANCH   3  20
ATOM     20  C   LIG    1       -4.962  -4.095  -0.158  0.00  0.00    +0.040 A 
ATOM     21  C   LIG    1       -4.896  -2.716   0.030  0.00  0.00    +0.040 A 
ATOM     22  C   LIG    1       -6.056  -1.968   0.052  0.00  0.00    +0.060 A 
ATOM     23  C   LIG    1       -7.283  -2.586  -0.113  0.00  0.00    +0.020 A 
ATOM     24  C   LIG    1       -7.354  -3.954  -0.300  0.00  0.00    +0.070 A 
ATOM     25  C   LIG    1       -6.201  -4.712  -0.324  0.00  0.00    -0.170 A 
BRANCH  25  26
ATOM     26  C   LIG    1       -6.280  -6.202  -0.527  0.00  0.00    +0.520 C 
ATOM     27  F   LIG    1       -5.724  -6.855   0.579  0.00  0.00    -0.170 F 
ATOM     28  F   LIG    1       -5.572  -6.554  -1.681  0.00  0.00    -0.170 F 
ATOM     29  F   LIG    1       -7.619  -6.583  -0.668  0.00  0.00    -0.180 F 
ENDBRANCH  25  26
ENDBRANCH   3  20
TORSDOF 5
