REMARK  Name = ZINCnE000008Ji7m.1
REMARK                            x       y       z     vdW  Elec       q    Type
REMARK                         _______ _______ _______ _____ _____    ______ ____
ROOT
ATOM      1  C   LIG    1        3.306   2.659  -0.895  0.00  0.00    +0.110 A 
ATOM      2  C   LIG    1        3.678   2.786   0.383  0.00  0.00    -0.070 A 
ATOM      3  S   LIG    1        2.325   2.285   1.394  0.00  0.00    +0.110 S 
ATOM      4  C   LIG    1        1.397   1.946  -0.001  0.00  0.00    +0.030 A 
ATOM      5  N   LIG    1        2.079   2.208  -1.064  0.00  0.00    -0.410 NA
ENDROOT
BRANCH   1   6
ATOM      6  C   LIG    1        4.214   3.004  -2.047  0.00  0.00    +0.130 C 
BRANCH   6   8
ATOM      7  O   LIG    1        3.740   0.789  -2.709  0.00  0.00    -0.560 OA
ATOM      8  C   LIG    1        4.333   1.815  -2.965  0.00  0.00    +0.460 C 
ATOM      9  N   LIG    1        5.100   1.893  -4.071  0.00  0.00    -0.700 NA
BRANCH   9  10
ATOM     10  C   LIG    1        5.211   0.796  -4.918  0.00  0.00    +0.340 A 
ATOM     11  N   LIG    1        4.625  -0.345  -4.735  0.00  0.00    -0.560 NA
ATOM     12  C   LIG    1        4.837  -1.278  -5.644  0.00  0.00    +0.230 A 
ATOM     13  C   LIG    1        5.649  -0.911  -6.638  0.00  0.00    -0.220 A 
ATOM     14  S   LIG    1        6.145   0.755  -6.349  0.00  0.00    -0.000 S 
ENDBRANCH   9  10
ENDBRANCH   6   8
ENDBRANCH   1   6
BRANCH   4  15
ATOM     15  C   LIG    1       -0.017   1.425   0.010  0.00  0.00    +0.320 C 
BRANCH  15  16
ATOM     16  O   LIG    1        0.002  -0.004   0.002  0.00  0.00    -0.300 OA
BRANCH  16  17
ATOM     17  C   LIG    1       -1.201  -0.638   0.010  0.00  0.00    +0.130 A 
ATOM     18  C   LIG    1       -2.374   0.101   0.031  0.00  0.00    -0.040 A 
ATOM     19  C   LIG    1       -3.596  -0.544   0.035  0.00  0.00    +0.030 A 
ATOM     20  C   LIG    1       -3.649  -1.927   0.028  0.00  0.00    +0.050 A 
ATOM     21  C   LIG    1       -2.478  -2.666   0.012  0.00  0.00    +0.030 A 
ATOM     22  F   LIG    1       -4.844  -2.557   0.036  0.00  0.00    -0.140 F 
ATOM     23  C   LIG    1       -1.255  -2.024   0.003  0.00  0.00    +0.020 A 
ENDBRANCH  16  17
ENDBRANCH  15  16
ENDBRANCH   4  15
TORSDOF 6
