REMARK  Name = ZINCrD00000l1pMu.0
REMARK                            x       y       z     vdW  Elec       q    Type
REMARK                         _______ _______ _______ _____ _____    ______ ____
ROOT
ATOM      1  C   LIG    1        3.379   1.695   1.108  0.00  0.00    +0.540 C 
ATOM      2  N   LIG    1        2.403   1.331   0.253  0.00  0.00    -0.610 N 
ATOM      3  C   LIG    1        1.246   2.197   0.002  0.00  0.00    +0.340 C 
ATOM      4  C   LIG    1       -0.017   1.373   0.010  0.00  0.00    -0.100 A 
ATOM      5  C   LIG    1       -1.230   2.047   0.019  0.00  0.00    +0.020 A 
ATOM      6  C   LIG    1       -2.420   1.348   0.016  0.00  0.00    +0.010 A 
ATOM      7  C   LIG    1       -2.403  -0.034   0.001  0.00  0.00    +0.000 A 
ATOM      8  C   LIG    1       -1.198  -0.705  -0.006  0.00  0.00    +0.010 A 
ATOM      9  C   LIG    1        0.002  -0.004   0.002  0.00  0.00    -0.060 A 
ATOM     10  C   LIG    1        1.278  -0.804   0.006  0.00  0.00    +0.070 C 
ATOM     11  C   LIG    1        2.455   0.047  -0.467  0.00  0.00    +0.300 C 
ATOM     12  O   LIG    1        4.325   0.960   1.298  0.00  0.00    -0.520 OA
ENDROOT
BRANCH  10  13
ATOM     13  C   LIG    1        1.123  -1.989  -0.912  0.00  0.00    -0.080 A 
ATOM     14  C   LIG    1        0.847  -1.792  -2.252  0.00  0.00    +0.010 A 
ATOM     15  C   LIG    1        0.710  -2.879  -3.096  0.00  0.00    +0.000 A 
ATOM     16  C   LIG    1        0.839  -4.162  -2.598  0.00  0.00    +0.000 A 
ATOM     17  C   LIG    1        1.111  -4.358  -1.257  0.00  0.00    +0.000 A 
ATOM     18  C   LIG    1        1.253  -3.272  -0.414  0.00  0.00    +0.010 A 
ENDBRANCH  10  13
BRANCH   1  19
ATOM     19  C   LIG    1        3.295   3.016   1.829  0.00  0.00    +0.120 C 
BRANCH  19  20
ATOM     20  S   LIG    1        4.743   3.214   2.897  0.00  0.00    +0.020 S 
BRANCH  20  26
ATOM     21  C   LIG    1        5.274   5.373   4.522  0.00  0.00    +0.140 A 
ATOM     22  C   LIG    1        4.955   6.620   5.037  0.00  0.00    +0.250 A 
ATOM     23  N   LIG    1        3.833   7.211   4.648  0.00  0.00    -0.480 NA
ATOM     24  C   LIG    1        3.027   6.635   3.780  0.00  0.00    +0.450 A 
ATOM     25  N   LIG    1        3.292   5.453   3.259  0.00  0.00    -0.490 NA
ATOM     26  C   LIG    1        4.395   4.793   3.596  0.00  0.00    +0.070 A 
BRANCH  21  27
ATOM     27  N   LIG    1        6.446   4.713   4.912  0.00  0.00    -0.850 N 
ATOM     28  H   LIG    1        7.045   5.127   5.553  0.00  0.00    +0.410 HD
ATOM     29  H   LIG    1        6.659   3.843   4.540  0.00  0.00    +0.410 HD
ENDBRANCH  21  27
ENDBRANCH  20  26
ENDBRANCH  19  20
ENDBRANCH   1  19
TORSDOF 5
