REMARK  Name = ZINCpk000000nT7v.0
REMARK                            x       y       z     vdW  Elec       q    Type
REMARK                         _______ _______ _______ _____ _____    ______ ____
ROOT
ATOM      1  N   LIG    1        1.360   2.011  -0.000  0.00  0.00    -0.540 NA
ATOM      2  C   LIG    1        2.058   1.667   1.247  0.00  0.00    +0.200 C 
ATOM      3  C   LIG    1        3.510   2.144   1.164  0.00  0.00    +0.180 C 
ATOM      4  N   LIG    1        3.534   3.595   0.933  0.00  0.00    -0.530 NA
ATOM      5  C   LIG    1        2.836   3.939  -0.314  0.00  0.00    +0.200 C 
ATOM      6  C   LIG    1        1.384   3.462  -0.231  0.00  0.00    +0.210 C 
ENDROOT
BRANCH   1   7
ATOM      7  C   LIG    1       -0.018   1.503   0.010  0.00  0.00    +0.310 C 
BRANCH   7  12
ATOM      8  N   LIG    1       -0.003  -0.802  -1.082  0.00  0.00    -0.290 N 
ATOM      9  N   LIG    1        0.023  -2.020  -0.657  0.00  0.00    -0.090 NA
ATOM     10  N   LIG    1        0.035  -2.010   0.630  0.00  0.00    -0.080 NA
ATOM     11  N   LIG    1        0.022  -0.792   1.049  0.00  0.00    -0.300 NA
ATOM     12  C   LIG    1        0.002  -0.004   0.002  0.00  0.00    +0.190 A 
BRANCH   8  14
ATOM     13  C   LIG    1        1.218  -0.890  -3.200  0.00  0.00    +0.070 C 
ATOM     14  C   LIG    1       -0.029  -0.369  -2.481  0.00  0.00    +0.260 C 
ATOM     15  C   LIG    1       -1.280  -0.923  -3.164  0.00  0.00    +0.070 C 
ENDBRANCH   8  14
ENDBRANCH   7  12
ENDBRANCH   1   7
BRANCH   4  16
ATOM     16  C   LIG    1        4.912   4.104   0.923  0.00  0.00    +0.310 C 
BRANCH  16  17
ATOM     17  C   LIG    1        5.668   3.530   2.093  0.00  0.00    +0.280 A 
ATOM     18  N   LIG    1        5.670   4.027   3.295  0.00  0.00    -0.470 NA
ATOM     19  C   LIG    1        6.449   3.264   4.104  0.00  0.00    +0.040 A 
ATOM     20  C   LIG    1        6.795   3.335   5.456  0.00  0.00    +0.070 A 
ATOM     21  C   LIG    1        7.628   2.396   5.995  0.00  0.00    +0.000 A 
ATOM     22  C   LIG    1        8.137   1.368   5.214  0.00  0.00    +0.030 A 
ATOM     23  C   LIG    1        7.810   1.279   3.878  0.00  0.00    +0.010 A 
ATOM     24  C   LIG    1        6.965   2.223   3.312  0.00  0.00    +0.050 A 
ATOM     25  N   LIG    1        6.452   2.419   2.045  0.00  0.00    -0.600 N 
ATOM     26  H   LIG    1        6.620   1.867   1.266  0.00  0.00    +0.420 HD
ENDBRANCH  16  17
ENDBRANCH   4  16
TORSDOF 5
