REMARK  Name = ZINCrH000004khso.0
REMARK                            x       y       z     vdW  Elec       q    Type
REMARK                         _______ _______ _______ _____ _____    ______ ____
ROOT
ATOM      1  C   LIG    1       -0.021   1.705   0.011  0.00  0.00    +0.270 A 
ATOM      2  N   LIG    1        1.188   2.167   0.002  0.00  0.00    -0.470 NA
ATOM      3  C   LIG    1        2.180   1.288  -0.011  0.00  0.00    +0.100 A 
ATOM      4  C   LIG    1        1.759   0.010  -0.015  0.00  0.00    -0.280 A 
ATOM      5  C   LIG    1        2.672  -1.193  -0.032  0.00  0.00    +0.330 C 
ATOM      6  N   LIG    1        4.019  -0.749  -0.427  0.00  0.00    -0.510 NA
ATOM      7  C   LIG    1        4.453   0.398   0.383  0.00  0.00    +0.220 C 
ATOM      8  C   LIG    1        3.660   1.644  -0.023  0.00  0.00    +0.100 C 
ATOM      9  S   LIG    1        0.002  -0.004   0.002  0.00  0.00    +0.130 S 
ENDROOT
BRANCH   1  11
ATOM     10  C   LIG    1       -1.073   3.829   0.028  0.00  0.00    +0.600 C 
ATOM     11  N   LIG    1       -1.171   2.485   0.021  0.00  0.00    -0.630 N 
ATOM     12  H   LIG    1       -2.043   2.063   0.023  0.00  0.00    +0.420 HD
ATOM     13  O   LIG    1        0.023   4.360   0.026  0.00  0.00    -0.460 OA
BRANCH  10  15
ATOM     14  C   LIG    1       -2.923   5.088  -1.119  0.00  0.00    +0.160 A 
ATOM     15  C   LIG    1       -2.286   4.653   0.039  0.00  0.00    -0.340 A 
ATOM     16  C   LIG    1       -2.916   5.071   1.210  0.00  0.00    +0.200 A 
ATOM     17  N   LIG    1       -3.978   5.799   1.079  0.00  0.00    -0.490 NA
ATOM     18  C   LIG    1       -2.382   4.697   2.568  0.00  0.00    +0.160 C 
ATOM     19  S   LIG    1       -4.274   6.004  -0.577  0.00  0.00    +0.270 S 
BRANCH  14  21
ATOM     20  C   LIG    1       -3.345   5.379  -3.530  0.00  0.00    +0.310 C 
ATOM     21  N   LIG    1       -2.550   4.838  -2.425  0.00  0.00    -0.680 N 
ATOM     22  H   LIG    1       -1.762   4.303  -2.610  0.00  0.00    +0.410 HD
ENDBRANCH  14  21
ENDBRANCH  10  15
ENDBRANCH   1  11
BRANCH   6  23
ATOM     23  C   LIG    1        4.068  -0.430  -1.860  0.00  0.00    +0.230 C 
BRANCH  23  24
ATOM     24  C   LIG    1        3.855  -1.687  -2.663  0.00  0.00    -0.080 A 
ATOM     25  C   LIG    1        4.938  -2.459  -3.039  0.00  0.00    +0.020 A 
ATOM     26  C   LIG    1        4.742  -3.615  -3.772  0.00  0.00    +0.000 A 
ATOM     27  C   LIG    1        3.463  -3.994  -4.136  0.00  0.00    +0.000 A 
ATOM     28  C   LIG    1        2.380  -3.219  -3.764  0.00  0.00    +0.000 A 
ATOM     29  C   LIG    1        2.576  -2.066  -3.028  0.00  0.00    +0.000 A 
ENDBRANCH  23  24
ENDBRANCH   6  23
TORSDOF 5
