REMARK  Name = ZINCb700000010mM.0
REMARK                            x       y       z     vdW  Elec       q    Type
REMARK                         _______ _______ _______ _____ _____    ______ ____
ROOT
ATOM      1  C   LIG    1       -2.736   2.251   2.434  0.00  0.00    +0.180 C 
ENDROOT
BRANCH   1   2
ATOM      2  C   LIG    1       -2.030   1.765   1.194  0.00  0.00    +0.500 C 
ATOM      3  N   LIG    1       -0.698   1.558   1.213  0.00  0.00    -0.590 N 
ATOM      4  C   LIG    1        0.063   1.806   2.440  0.00  0.00    +0.310 C 
ATOM      5  C   LIG    1       -0.013   1.086   0.008  0.00  0.00    +0.320 C 
ATOM      6  O   LIG    1       -2.661   1.560   0.178  0.00  0.00    -0.520 OA
ENDBRANCH   1   2
BRANCH   1   7
ATOM      7  N   LIG    1       -4.169   1.949   2.332  0.00  0.00    -0.620 N 
ATOM      8  H   LIG    1       -4.554   2.412   1.522  0.00  0.00    +0.440 HD
ATOM      9  H   LIG    1       -4.642   2.274   3.162  0.00  0.00    +0.440 HD
ATOM     10  H   LIG    1       -4.297   0.952   2.241  0.00  0.00    +0.440 HD
ENDBRANCH   1   7
BRANCH   1  11
ATOM     11  C   LIG    1       -2.541   3.762   2.571  0.00  0.00    +0.110 C 
BRANCH  11  12
ATOM     12  C   LIG    1       -3.150   4.236   3.893  0.00  0.00    +0.060 C 
BRANCH  12  14
ATOM     13  C   LIG    1       -3.693   6.395   5.656  0.00  0.00    +0.140 C 
ATOM     14  S   LIG    1       -2.920   6.028   4.056  0.00  0.00    -0.220 S 
ENDBRANCH  12  14
ENDBRANCH  11  12
ENDBRANCH   1  11
TORSDOF 5
