REMARK  Name = ZINCpe00000bcSCJ.0
REMARK                            x       y       z     vdW  Elec       q    Type
REMARK                         _______ _______ _______ _____ _____    ______ ____
ROOT
ATOM      1  C   LIG    1       -3.635   3.615   0.054  0.00  0.00    +0.510 C 
ATOM      2  N   LIG    1       -2.345   4.006   0.044  0.00  0.00    -0.560 N 
ATOM      3  C   LIG    1       -1.889   5.399   0.047  0.00  0.00    +0.270 C 
ATOM      4  C   LIG    1       -0.354   5.321   0.032  0.00  0.00    +0.110 C 
ATOM      5  C   LIG    1       -0.048   3.840   0.022  0.00  0.00    -0.160 A 
ATOM      6  C   LIG    1        1.156   3.163   0.007  0.00  0.00    +0.160 A 
ATOM      7  C   LIG    1        1.177   1.781   0.000  0.00  0.00    -0.700 A 
ATOM      8  C   LIG    1       -0.013   1.076   0.008  0.00  0.00    +0.160 A 
ATOM      9  C   LIG    1       -1.217   1.747   0.017  0.00  0.00    +0.000 A 
ATOM     10  C   LIG    1       -1.246   3.142   0.029  0.00  0.00    +0.200 A 
ATOM     11  O   LIG    1       -3.911   2.434   0.050  0.00  0.00    -0.490 OA
ENDROOT
BRANCH   7  12
ATOM     12  S   LIG    1        2.714   0.920  -0.018  0.00  0.00    +2.700 S 
ATOM     13  O   LIG    1        2.458  -0.369   0.523  0.00  0.00    -0.950 OA
ATOM     14  O   LIG    1        3.679   1.812   0.522  0.00  0.00    -0.950 OA
BRANCH  12  15
ATOM     15  N   LIG    1        3.127   0.688  -1.605  0.00  0.00    -1.010 NA
ATOM     16  C   LIG    1        2.690  -0.521  -2.306  0.00  0.00    +0.310 C 
ATOM     17  C   LIG    1        3.930   1.692  -2.307  0.00  0.00    +0.290 C 
ENDBRANCH  12  15
ENDBRANCH   7  12
BRANCH   1  18
ATOM     18  C   LIG    1       -4.734   4.646   0.070  0.00  0.00    +0.330 C 
BRANCH  18  20
ATOM     19  C   LIG    1       -6.623   3.656   1.249  0.00  0.00    +0.550 C 
ATOM     20  N   LIG    1       -6.035   3.972   0.078  0.00  0.00    -0.600 N 
ATOM     21  O   LIG    1       -6.073   3.930   2.299  0.00  0.00    -0.540 OA
BRANCH  19  23
ATOM     22  C   LIG    1       -8.509   2.667   2.413  0.00  0.00    +0.140 C 
ATOM     23  C   LIG    1       -7.929   2.979   1.257  0.00  0.00    -0.090 C 
ENDBRANCH  19  23
BRANCH  20  24
ATOM     24  C   LIG    1       -6.697   3.642  -1.186  0.00  0.00    +0.270 C 
ATOM     25  C   LIG    1       -6.264   2.247  -1.640  0.00  0.00    +0.010 C 
ENDBRANCH  20  24
ENDBRANCH  18  20
ENDBRANCH   1  18
TORSDOF 6
