REMARK  Name = ZINCvU0000000B2U.0
REMARK                            x       y       z     vdW  Elec       q    Type
REMARK                         _______ _______ _______ _____ _____    ______ ____
ROOT
ATOM      1  N   LIG    1        4.751   3.277  -0.193  0.00  0.00    -0.520 N 
ATOM      2  C   LIG    1        4.992   4.599  -0.095  0.00  0.00    +0.510 C 
ATOM      3  O   LIG    1        4.094   5.395  -0.278  0.00  0.00    -0.440 OA
ENDROOT
BRANCH   1   8
ATOM      4  C   LIG    1       -0.167   5.086  -0.840  0.00  0.00    +0.110 C 
ATOM      5  C   LIG    1       -0.036   3.586  -0.891  0.00  0.00    -0.030 A 
ATOM      6  C   LIG    1        1.231   2.987  -0.731  0.00  0.00    +0.110 A 
ATOM      7  N   LIG    1        2.424   3.578  -0.526  0.00  0.00    -0.460 NA
ATOM      8  C   LIG    1        3.460   2.822  -0.407  0.00  0.00    +0.340 A 
ATOM      9  S   LIG    1        3.003   1.131  -0.555  0.00  0.00    +0.060 S 
ATOM     10  C   LIG    1        1.318   1.592  -0.784  0.00  0.00    -0.180 A 
ATOM     11  C   LIG    1        0.176   0.822  -0.990  0.00  0.00    +0.050 A 
ATOM     12  C   LIG    1       -1.050   1.429  -1.148  0.00  0.00    +0.040 A 
ATOM     13  C   LIG    1       -1.151   2.811  -1.093  0.00  0.00    +0.030 A 
ENDBRANCH   1   8
BRANCH   2  14
ATOM     14  C   LIG    1        6.375   5.090   0.244  0.00  0.00    +0.100 C 
BRANCH  14  15
ATOM     15  C   LIG    1        6.356   6.613   0.386  0.00  0.00    +0.270 C 
ATOM     16  O   LIG    1        6.109   7.232  -0.906  0.00  0.00    -0.300 OA
ATOM     17  C   LIG    1        7.156   8.011  -1.225  0.00  0.00    +0.520 C 
ATOM     18  C   LIG    1        8.173   7.961  -0.159  0.00  0.00    -0.190 A 
ATOM     19  C   LIG    1        9.416   8.577  -0.010  0.00  0.00    +0.110 A 
ATOM     20  C   LIG    1       10.169   8.338   1.121  0.00  0.00    +0.020 A 
ATOM     21  C   LIG    1        9.697   7.492   2.109  0.00  0.00    +0.060 A 
ATOM     22  C   LIG    1        8.463   6.877   1.968  0.00  0.00    +0.040 A 
ATOM     23  O   LIG    1        7.251   8.664  -2.245  0.00  0.00    -0.450 OA
ATOM     24  C   LIG    1        7.705   7.107   0.845  0.00  0.00    -0.100 A 
ENDBRANCH  14  15
ENDBRANCH   2  14
BRANCH   1  25
ATOM     25  C   LIG    1        5.854   2.321  -0.074  0.00  0.00    +0.350 C 
BRANCH  25  26
ATOM     26  C   LIG    1        5.951   1.841   1.351  0.00  0.00    -0.120 A 
ATOM     27  C   LIG    1        6.846   2.435   2.221  0.00  0.00    +0.010 A 
ATOM     28  C   LIG    1        6.933   1.998   3.529  0.00  0.00    +0.010 A 
ATOM     29  C   LIG    1        6.130   0.960   3.965  0.00  0.00    +0.020 A 
ATOM     30  C   LIG    1        5.239   0.362   3.094  0.00  0.00    +0.020 A 
ATOM     31  C   LIG    1        5.150   0.802   1.787  0.00  0.00    +0.030 A 
ENDBRANCH  25  26
ENDBRANCH   1  25
TORSDOF 5
