REMARK  Name = ZINCnE000001FJaX.1
REMARK                            x       y       z     vdW  Elec       q    Type
REMARK                         _______ _______ _______ _____ _____    ______ ____
ROOT
ATOM      1  C   LIG    1       -0.776   4.018   0.030  0.00  0.00    +0.160 C 
ENDROOT
BRANCH   1   2
ATOM      2  C   LIG    1       -1.094   5.492   0.040  0.00  0.00    -0.060 A 
ATOM      3  C   LIG    1       -1.250   6.172  -1.151  0.00  0.00    +0.050 A 
ATOM      4  C   LIG    1       -1.541   7.526  -1.142  0.00  0.00    +0.070 A 
ATOM      5  C   LIG    1       -1.674   8.198   0.061  0.00  0.00    +0.030 A 
ATOM      6  C   LIG    1       -1.518   7.519   1.255  0.00  0.00    -0.180 A 
ATOM      7  C   LIG    1       -1.661   8.262   2.559  0.00  0.00    +0.300 C 
ATOM      8  O   LIG    1       -1.833   7.321   3.623  0.00  0.00    -0.390 OA
ATOM      9  C   LIG    1       -0.869   6.262   3.596  0.00  0.00    +0.440 C 
ATOM     10  O   LIG    1       -1.081   5.482   2.416  0.00  0.00    -0.310 OA
ATOM     11  F   LIG    1       -1.695   8.191  -2.307  0.00  0.00    -0.140 F 
ATOM     12  C   LIG    1       -1.234   6.163   1.248  0.00  0.00    +0.140 A 
ENDBRANCH   1   2
BRANCH   1  13
ATOM     13  S   LIG    1        1.019   3.788   0.012  0.00  0.00    -0.040 S 
BRANCH  13  18
ATOM     14  C   LIG    1        0.002  -0.004   0.002  0.00  0.00    +0.180 A 
ATOM     15  C   LIG    1        1.192  -0.673  -0.013  0.00  0.00    -0.270 A 
ATOM     16  C   LIG    1        2.388   0.066  -0.020  0.00  0.00    +0.490 A 
ATOM     17  N   LIG    1        2.317   1.415  -0.013  0.00  0.00    -0.640 NA
ATOM     18  C   LIG    1        1.101   2.028   0.002  0.00  0.00    +0.330 A 
ATOM     19  O   LIG    1        3.469  -0.500  -0.033  0.00  0.00    -0.620 OA
ATOM     20  N   LIG    1       -0.016   1.326   0.009  0.00  0.00    -0.620 NA
BRANCH  14  21
ATOM     21  C   LIG    1       -1.294  -0.774   0.011  0.00  0.00    +0.080 C 
BRANCH  21  23
ATOM     22  C   LIG    1       -3.097  -1.716   1.461  0.00  0.00    +0.000 C 
ATOM     23  C   LIG    1       -1.782  -0.934   1.452  0.00  0.00    +0.010 C 
ENDBRANCH  21  23
ENDBRANCH  14  21
ENDBRANCH  13  18
ENDBRANCH   1  13
TORSDOF 5
