REMARK  Name = ZINCAx0000000ary.0
REMARK                            x       y       z     vdW  Elec       q    Type
REMARK                         _______ _______ _______ _____ _____    ______ ____
ROOT
ATOM      1  C   LIG    1       -1.619   2.498   0.027  0.00  0.00    +0.220 C 
ENDROOT
BRANCH   1   2
ATOM      2  N   LIG    1       -0.368   1.885   0.493  0.00  0.00    -0.520 NA
ATOM      3  C   LIG    1        0.778   2.365  -0.291  0.00  0.00    +0.190 C 
ATOM      4  C   LIG    1        2.076   1.847   0.337  0.00  0.00    +0.280 C 
ATOM      5  N   LIG    1        1.981   0.385   0.467  0.00  0.00    -0.610 N 
ATOM      6  C   LIG    1        0.790  -0.179   1.121  0.00  0.00    +0.300 C 
ATOM      7  C   LIG    1        2.958  -0.416  -0.002  0.00  0.00    +0.530 C 
ATOM      8  O   LIG    1        2.903  -1.613   0.186  0.00  0.00    -0.510 OA
ATOM      9  C   LIG    1       -0.457   0.419   0.463  0.00  0.00    +0.180 C 
BRANCH   7  10
ATOM     10  C   LIG    1        4.119   0.175  -0.759  0.00  0.00    +0.140 C 
ATOM     11  C   LIG    1        3.651   0.637  -2.146  0.00  0.00    +0.250 C 
ATOM     12  O   LIG    1        4.778   1.180  -2.841  0.00  0.00    -0.300 OA
ATOM     13  C   LIG    1        5.930   0.455  -2.799  0.00  0.00    +0.040 A 
ATOM     14  C   LIG    1        6.933   0.717  -3.720  0.00  0.00    +0.030 A 
ATOM     15  C   LIG    1        8.109  -0.009  -3.688  0.00  0.00    +0.020 A 
ATOM     16  C   LIG    1        8.288  -0.997  -2.739  0.00  0.00    +0.030 A 
ATOM     17  C   LIG    1        7.292  -1.264  -1.818  0.00  0.00    +0.030 A 
ATOM     18  C   LIG    1        6.109  -0.540  -1.846  0.00  0.00    +0.050 A 
ATOM     19  O   LIG    1        5.135  -0.818  -0.937  0.00  0.00    -0.280 OA
ENDBRANCH   7  10
ENDBRANCH   1   2
BRANCH   1  22
ATOM     20  N   LIG    1       -2.632   4.754  -0.044  0.00  0.00    -0.650 N 
ATOM     21  H   LIG    1       -3.435   4.349  -0.407  0.00  0.00    +0.410 HD
ATOM     22  C   LIG    1       -1.584   3.980   0.301  0.00  0.00    +0.510 C 
ATOM     23  O   LIG    1       -0.612   4.476   0.831  0.00  0.00    -0.500 OA
BRANCH  20  27
ATOM     24  N   LIG    1       -2.702   8.307  -0.243  0.00  0.00    -0.320 N 
ATOM     25  N   LIG    1       -2.183   8.111   1.044  0.00  0.00    -0.280 NA
ATOM     26  C   LIG    1       -2.104   6.824   1.265  0.00  0.00    +0.100 A 
ATOM     27  C   LIG    1       -2.561   6.149   0.122  0.00  0.00    -0.000 A 
ATOM     28  C   LIG    1       -1.603   6.175   2.529  0.00  0.00    +0.170 C 
ATOM     29  C   LIG    1       -2.928   7.083  -0.793  0.00  0.00    +0.080 A 
ATOM     30  C   LIG    1       -3.485   6.813  -2.167  0.00  0.00    +0.150 C 
BRANCH  24  35
ATOM     31  C   LIG    1       -3.689  13.317  -2.720  0.00  0.00    +0.090 C 
ATOM     32  C   LIG    1       -3.427  11.987  -2.062  0.00  0.00    -0.080 A 
ATOM     33  C   LIG    1       -4.341  10.958  -2.198  0.00  0.00    +0.030 A 
ATOM     34  C   LIG    1       -4.104   9.738  -1.596  0.00  0.00    +0.010 A 
ATOM     35  C   LIG    1       -2.946   9.544  -0.854  0.00  0.00    +0.150 A 
ATOM     36  C   LIG    1       -2.033  10.581  -0.715  0.00  0.00    +0.030 A 
ATOM     37  C   LIG    1       -2.273  11.797  -1.323  0.00  0.00    +0.030 A 
ENDBRANCH  24  35
ENDBRANCH  20  27
ENDBRANCH   1  22
TORSDOF 5
