REMARK  Name = ZINCrD00000F5Lnd.0
REMARK                            x       y       z     vdW  Elec       q    Type
REMARK                         _______ _______ _______ _____ _____    ______ ____
ROOT
ATOM      1  O   LIG    1        3.582   7.363   0.008  0.00  0.00    -0.330 OA
ENDROOT
BRANCH   1   2
ATOM      2  C   LIG    1        3.605   6.014   0.007  0.00  0.00    +0.510 C 
ATOM      3  O   LIG    1        4.668   5.424   0.004  0.00  0.00    -0.510 OA
BRANCH   2   4
ATOM      4  C   LIG    1        2.389   5.285   0.012  0.00  0.00    -0.080 C 
ATOM      5  C   LIG    1        2.412   3.934   0.012  0.00  0.00    +0.170 C 
BRANCH   5   6
ATOM      6  C   LIG    1        1.151   3.178   0.017  0.00  0.00    -0.120 A 
ATOM      7  C   LIG    1        1.172   1.778   0.017  0.00  0.00    +0.090 A 
ATOM      8  C   LIG    1       -0.011   1.075   0.021  0.00  0.00    +0.000 A 
ATOM      9  C   LIG    1       -1.225   1.752   0.019  0.00  0.00    +0.130 A 
ATOM     10  C   LIG    1       -1.252   3.142   0.025  0.00  0.00    -0.060 A 
ATOM     11  C   LIG    1       -0.074   3.855   0.021  0.00  0.00    +0.090 A 
BRANCH   9  12
ATOM     12  O   LIG    1       -2.389   1.054   0.018  0.00  0.00    -0.320 OA
BRANCH  12  13
ATOM     13  C   LIG    1       -3.601   1.812   0.016  0.00  0.00    +0.600 C 
ATOM     14  F   LIG    1       -3.645   2.619  -1.125  0.00  0.00    -0.200 F 
ATOM     15  F   LIG    1       -3.647   2.618   1.159  0.00  0.00    -0.200 F 
ENDBRANCH  12  13
ENDBRANCH   9  12
ENDBRANCH   5   6
ENDBRANCH   2   4
ENDBRANCH   1   2
BRANCH   1  16
ATOM     16  C   LIG    1        4.844   8.033   0.003  0.00  0.00    +0.270 C 
BRANCH  16  19
ATOM     17  N   LIG    1        5.677  10.363  -0.000  0.00  0.00    -0.670 N 
ATOM     18  H   LIG    1        6.578  10.009   0.064  0.00  0.00    +0.420 HD
ATOM     19  C   LIG    1        4.622   9.524   0.004  0.00  0.00    +0.520 C 
ATOM     20  O   LIG    1        3.493   9.969   0.008  0.00  0.00    -0.490 OA
BRANCH  17  25
ATOM     21  C   LIG    1        4.170  13.703   0.408  0.00  0.00    -0.010 A 
ATOM     22  C   LIG    1        5.084  14.486  -0.299  0.00  0.00    +0.060 A 
ATOM     23  C   LIG    1        6.179  13.897  -0.897  0.00  0.00    +0.040 A 
ATOM     24  C   LIG    1        6.379  12.534  -0.794  0.00  0.00    +0.030 A 
ATOM     25  C   LIG    1        5.472  11.744  -0.097  0.00  0.00    +0.140 A 
ATOM     26  C   LIG    1        4.369  12.325   0.507  0.00  0.00    +0.070 A 
BRANCH  21  28
ATOM     27  N   LIG    1        2.130  14.793   1.524  0.00  0.00    -0.410 NA
ATOM     28  C   LIG    1        3.032  14.311   1.030  0.00  0.00    +0.250 C 
ENDBRANCH  21  28
ENDBRANCH  17  25
ENDBRANCH  16  19
ENDBRANCH   1  16
TORSDOF 9
