REMARK  Name = ZINCpk00000eawLF.1
REMARK                            x       y       z     vdW  Elec       q    Type
REMARK                         _______ _______ _______ _____ _____    ______ ____
ROOT
ATOM      1  N   LIG    1       -0.028   1.016   0.025  0.00  0.00    -0.670 NA
ATOM      2  H   LIG    1       -0.009   0.007   0.018  0.00  0.00    +0.360 HD
ENDROOT
BRANCH   1   3
ATOM      3  C   LIG    1       -0.808   1.535  -1.107  0.00  0.00    +0.150 C 
ATOM      4  C   LIG    1       -1.425   2.882  -0.725  0.00  0.00    +0.060 C 
BRANCH   3   7
ATOM      5  N   LIG    1       -2.751   0.829  -2.465  0.00  0.00    -0.660 N 
ATOM      6  H   LIG    1       -2.696   1.679  -2.930  0.00  0.00    +0.410 HD
ATOM      7  C   LIG    1       -1.904   0.560  -1.451  0.00  0.00    +0.510 C 
ATOM      8  O   LIG    1       -2.023  -0.467  -0.817  0.00  0.00    -0.510 OA
BRANCH   5  14
ATOM      9  C   LIG    1       -4.076  -0.243  -4.184  0.00  0.00    +0.100 A 
ATOM     10  C   LIG    1       -5.020  -1.185  -4.556  0.00  0.00    -0.060 A 
ATOM     11  C   LIG    1       -5.607  -1.991  -3.598  0.00  0.00    +0.040 A 
ATOM     12  C   LIG    1       -5.250  -1.864  -2.269  0.00  0.00    -0.010 A 
ATOM     13  C   LIG    1       -4.303  -0.930  -1.891  0.00  0.00    +0.070 A 
ATOM     14  C   LIG    1       -3.711  -0.118  -2.846  0.00  0.00    +0.110 A 
BRANCH   9  16
ATOM     15  C   LIG    1       -3.925   0.371  -6.477  0.00  0.00    +0.250 C 
ATOM     16  O   LIG    1       -3.502   0.555  -5.125  0.00  0.00    -0.320 OA
ENDBRANCH   9  16
ENDBRANCH   5  14
ENDBRANCH   3   7
ENDBRANCH   1   3
BRANCH   1  17
ATOM     17  C   LIG    1        1.333   1.568   0.024  0.00  0.00    +0.230 C 
BRANCH  17  18
ATOM     18  C   LIG    1        2.101   1.013   1.196  0.00  0.00    -0.030 A 
ATOM     19  C   LIG    1        2.087   1.677   2.409  0.00  0.00    +0.020 A 
ATOM     20  C   LIG    1        2.787   1.166   3.485  0.00  0.00    +0.120 A 
ATOM     21  C   LIG    1        3.510  -0.004   3.346  0.00  0.00    -0.680 A 
ATOM     22  C   LIG    1        3.529  -0.665   2.132  0.00  0.00    +0.120 A 
ATOM     23  C   LIG    1        2.825  -0.156   1.057  0.00  0.00    +0.000 A 
BRANCH  21  24
ATOM     24  S   LIG    1        4.408  -0.653   4.717  0.00  0.00    +2.700 S 
ATOM     25  O   LIG    1        4.562  -2.044   4.473  0.00  0.00    -0.960 OA
ATOM     26  O   LIG    1        3.788  -0.133   5.885  0.00  0.00    -0.960 OA
BRANCH  24  27
ATOM     27  N   LIG    1        5.927   0.003   4.662  0.00  0.00    -1.250 NA
ATOM     28  H   LIG    1        6.322   0.244   3.809  0.00  0.00    +0.420 HD
ATOM     29  H   LIG    1        6.423   0.147   5.484  0.00  0.00    +0.420 HD
ENDBRANCH  24  27
ENDBRANCH  21  24
ENDBRANCH  17  18
ENDBRANCH   1  17
TORSDOF 8
