REMARK  Name = ZINCrD0000075gD3.0
REMARK                            x       y       z     vdW  Elec       q    Type
REMARK                         _______ _______ _______ _____ _____    ______ ____
ROOT
ATOM      1  C   LIG    1       -0.336   6.299   0.056  0.00  0.00    +0.130 C 
ENDROOT
BRANCH   1   4
ATOM      2  N   LIG    1       -0.164   8.766   0.048  0.00  0.00    -0.660 N 
ATOM      3  H   LIG    1        0.799   8.669   0.108  0.00  0.00    +0.420 HD
ATOM      4  C   LIG    1       -0.953   7.673   0.056  0.00  0.00    +0.540 C 
ATOM      5  O   LIG    1       -2.159   7.796   0.064  0.00  0.00    -0.500 OA
BRANCH   2  11
ATOM      6  C   LIG    1       -0.074  11.056  -0.741  0.00  0.00    -0.120 A 
ATOM      7  C   LIG    1       -0.649  12.315  -0.835  0.00  0.00    +0.020 A 
ATOM      8  C   LIG    1       -1.867  12.566  -0.232  0.00  0.00    +0.020 A 
ATOM      9  C   LIG    1       -2.519  11.563   0.462  0.00  0.00    +0.030 A 
ATOM     10  C   LIG    1       -1.956  10.303   0.556  0.00  0.00    +0.050 A 
ATOM     11  C   LIG    1       -0.736  10.042  -0.046  0.00  0.00    +0.170 A 
BRANCH   6  12
ATOM     12  S   LIG    1        1.482  10.735  -1.503  0.00  0.00    -0.070 S 
BRANCH  12  13
ATOM     13  C   LIG    1        1.905  12.331  -2.255  0.00  0.00    +0.260 C 
BRANCH  13  15
ATOM     14  N   LIG    1        4.204  12.136  -3.471  0.00  0.00    -0.390 NA
ATOM     15  C   LIG    1        3.202  12.221  -2.941  0.00  0.00    +0.210 C 
ENDBRANCH  13  15
ENDBRANCH  12  13
ENDBRANCH   6  12
ENDBRANCH   2  11
ENDBRANCH   1   4
BRANCH   1  16
ATOM     16  S   LIG    1       -1.645   5.049   0.068  0.00  0.00    +0.080 S 
BRANCH  16  17
ATOM     17  C   LIG    1       -0.669   3.583   0.065  0.00  0.00    +0.100 A 
ATOM     18  N   LIG    1        0.642   3.518   0.056  0.00  0.00    -0.280 NA
ATOM     19  N   LIG    1        1.018   2.289   0.057  0.00  0.00    -0.270 NA
ATOM     20  C   LIG    1       -0.021   1.503   0.066  0.00  0.00    +0.230 A 
ATOM     21  N   LIG    1       -1.133   2.298   0.067  0.00  0.00    -0.300 N 
BRANCH  20  22
ATOM     22  C   LIG    1       -0.001  -0.004   0.070  0.00  0.00    +0.110 C 
ATOM     23  C   LIG    1        0.736  -0.502   1.315  0.00  0.00    +0.030 C 
ATOM     24  C   LIG    1        0.756  -2.032   1.318  0.00  0.00    +0.010 C 
ATOM     25  C   LIG    1        1.475  -2.535   0.065  0.00  0.00    +0.010 C 
ATOM     26  C   LIG    1        0.739  -2.037  -1.180  0.00  0.00    +0.010 C 
ATOM     27  C   LIG    1        0.718  -0.507  -1.184  0.00  0.00    +0.030 C 
ENDBRANCH  20  22
BRANCH  21  28
ATOM     28  N   LIG    1       -2.438   1.893   0.070  0.00  0.00    -0.580 N 
ATOM     29  H   LIG    1       -3.016   2.530  -0.456  0.00  0.00    +0.380 HD
ATOM     30  H   LIG    1       -2.781   1.788   1.014  0.00  0.00    +0.370 HD
ENDBRANCH  21  28
ENDBRANCH  16  17
ENDBRANCH   1  16
TORSDOF 9
