REMARK  Name = ZINCpe000000ZpfP.0
REMARK                            x       y       z     vdW  Elec       q    Type
REMARK                         _______ _______ _______ _____ _____    ______ ____
ROOT
ATOM      1  C   LIG    1        1.198   1.686  -0.000  0.00  0.00    +0.000 A 
ATOM      2  C   LIG    1        2.446   1.152  -0.010  0.00  0.00    +0.200 A 
ATOM      3  N   LIG    1        3.332   2.182  -0.018  0.00  0.00    -0.360 N 
ATOM      4  N   LIG    1        2.602   3.377  -0.004  0.00  0.00    -0.250 NA
ATOM      5  C   LIG    1        1.327   3.082   0.006  0.00  0.00    +0.260 A 
ENDROOT
BRANCH   1   8
ATOM      6  O   LIG    1       -1.204   2.839   0.023  0.00  0.00    -0.500 OA
ATOM      7  C   LIG    1       -1.187   1.624   0.017  0.00  0.00    +0.600 C 
ATOM      8  N   LIG    1       -0.011   0.966   0.007  0.00  0.00    -0.630 N 
ATOM      9  H   LIG    1        0.002  -0.004   0.002  0.00  0.00    +0.420 HD
BRANCH   7  10
ATOM     10  C   LIG    1       -2.461   0.865   0.018  0.00  0.00    -0.020 A 
ATOM     11  N   LIG    1       -2.602  -0.438   0.013  0.00  0.00    -0.330 NA
ATOM     12  O   LIG    1       -3.768  -0.756   0.016  0.00  0.00    +0.120 OA
ATOM     13  C   LIG    1       -4.577   0.313   0.025  0.00  0.00    +0.010 A 
ATOM     14  C   LIG    1       -3.778   1.404   0.033  0.00  0.00    +0.010 A 
BRANCH  13  15
ATOM     15  C   LIG    1       -6.084   0.300   0.032  0.00  0.00    +0.050 C 
ATOM     16  C   LIG    1       -6.779  -1.048   0.231  0.00  0.00    +0.060 C 
ATOM     17  C   LIG    1       -6.790  -0.377  -1.144  0.00  0.00    +0.050 C 
ENDBRANCH  13  15
ENDBRANCH   7  10
ENDBRANCH   1   8
BRANCH   3  18
ATOM     18  C   LIG    1        4.792   2.063  -0.032  0.00  0.00    +0.380 C 
BRANCH  18  19
ATOM     19  C   LIG    1        5.347   2.841  -1.197  0.00  0.00    +0.500 C 
ATOM     20  N   LIG    1        6.678   2.876  -1.411  0.00  0.00    -0.620 N 
ATOM     21  C   LIG    1        7.607   2.167  -0.517  0.00  0.00    +0.250 C 
ATOM     22  C   LIG    1        8.546   1.311  -1.383  0.00  0.00    +0.220 C 
ATOM     23  O   LIG    1        9.138   2.137  -2.389  0.00  0.00    -0.380 OA
ATOM     24  C   LIG    1        8.200   2.706  -3.306  0.00  0.00    +0.220 C 
ATOM     25  C   LIG    1        7.244   3.628  -2.542  0.00  0.00    +0.260 C 
ATOM     26  O   LIG    1        4.598   3.436  -1.942  0.00  0.00    -0.500 OA
ENDBRANCH  18  19
ENDBRANCH   3  18
TORSDOF 5
