REMARK  Name = ZINCkj000005jy6k.0
REMARK                            x       y       z     vdW  Elec       q    Type
REMARK                         _______ _______ _______ _____ _____    ______ ____
ROOT
ATOM      1  C   LIG    1       -3.246   1.360  -2.687  0.00  0.00    +0.510 C 
ATOM      2  N   LIG    1       -2.396   1.145  -3.710  0.00  0.00    -0.720 N 
ATOM      3  H   LIG    1       -2.707   0.697  -4.513  0.00  0.00    +0.410 HD
ATOM      4  O   LIG    1       -2.857   1.921  -1.684  0.00  0.00    -0.500 OA
ENDROOT
BRANCH   1   6
ATOM      5  C   LIG    1       -4.719  -0.611  -2.990  0.00  0.00    +0.090 C 
ATOM      6  C   LIG    1       -4.679   0.905  -2.788  0.00  0.00    +0.290 C 
BRANCH   6   7
ATOM      7  N   LIG    1       -5.391   1.253  -1.556  0.00  0.00    -0.380 N 
ATOM      8  C   LIG    1       -5.437   0.533  -0.422  0.00  0.00    +0.490 A 
ATOM      9  N   LIG    1       -6.172   1.185   0.443  0.00  0.00    -0.540 NA
ATOM     10  C   LIG    1       -6.617   2.316  -0.104  0.00  0.00    +0.430 A 
ATOM     11  N   LIG    1       -6.165   2.402  -1.327  0.00  0.00    -0.310 NA
ENDBRANCH   6   7
ENDBRANCH   1   6
BRANCH   2  12
ATOM     12  C   LIG    1       -1.003   1.588  -3.611  0.00  0.00    +0.290 C 
BRANCH  12  13
ATOM     13  C   LIG    1       -0.232   1.126  -4.849  0.00  0.00    +0.270 C 
BRANCH  13  14
ATOM     14  C   LIG    1       -0.792   1.804  -6.073  0.00  0.00    -0.290 A 
ATOM     15  C   LIG    1       -1.646   1.251  -6.936  0.00  0.00    +0.090 A 
ATOM     16  C   LIG    1       -2.025   2.068  -7.987  0.00  0.00    +0.020 A 
ATOM     17  C   LIG    1       -1.478   3.285  -7.978  0.00  0.00    +0.030 A 
ATOM     18  S   LIG    1       -0.427   3.449  -6.577  0.00  0.00    +0.120 S 
ENDBRANCH  13  14
BRANCH  13  19
ATOM     19  N   LIG    1        1.187   1.477  -4.702  0.00  0.00    -0.380 N 
ATOM     20  C   LIG    1        1.924   1.048  -5.898  0.00  0.00    +0.330 C 
ATOM     21  C   LIG    1        1.738   0.802  -3.519  0.00  0.00    +0.330 C 
ATOM     22  H   LIG    1        1.277   2.475  -4.591  0.00  0.00    +0.420 HD
ENDBRANCH  13  19
ENDBRANCH  12  13
ENDBRANCH   2  12
TORSDOF 6
