REMARK  Name = ZINCvU00000006ck.1
REMARK                            x       y       z     vdW  Elec       q    Type
REMARK                         _______ _______ _______ _____ _____    ______ ____
ROOT
ATOM      1  C   LIG    1        0.004   1.229   0.573  0.00  0.00    -0.660 A 
ATOM      2  C   LIG    1        1.268   0.682   0.678  0.00  0.00    +0.150 A 
ATOM      3  C   LIG    1        2.387   1.499   0.586  0.00  0.00    +0.140 A 
ATOM      4  C   LIG    1        2.232   2.864   0.388  0.00  0.00    +0.070 A 
ATOM      5  C   LIG    1        0.966   3.406   0.283  0.00  0.00    +0.050 A 
ATOM      6  C   LIG    1       -0.147   2.590   0.375  0.00  0.00    +0.040 A 
ATOM      7 CL   LIG    1       -1.737   3.273   0.235  0.00  0.00    -0.040 Cl
ENDROOT
BRANCH   3   8
ATOM      8  N   LIG    1        3.669   0.947   0.694  0.00  0.00    -0.670 N 
ATOM      9  H   LIG    1        4.384   1.458   1.104  0.00  0.00    +0.420 HD
ATOM     10  C   LIG    1        3.909  -0.294   0.226  0.00  0.00    +0.510 C 
ATOM     11  O   LIG    1        3.042  -0.896  -0.372  0.00  0.00    -0.510 OA
BRANCH  10  12
ATOM     12  C   LIG    1        5.256  -0.934   0.447  0.00  0.00    +0.090 C 
BRANCH  12  13
ATOM     13  C   LIG    1        5.265  -2.331  -0.178  0.00  0.00    +0.060 C 
BRANCH  13  14
ATOM     14  C   LIG    1        6.611  -2.971   0.042  0.00  0.00    +0.430 C 
ATOM     15  O   LIG    1        7.479  -2.369   0.641  0.00  0.00    -0.450 OA
BRANCH  14  16
ATOM     16  C   LIG    1        6.863  -4.271  -0.447  0.00  0.00    -0.320 A 
ATOM     17  C   LIG    1        8.043  -4.959  -0.311  0.00  0.00    +0.110 A 
ATOM     18  C   LIG    1        8.012  -6.205  -0.883  0.00  0.00    -0.010 A 
ATOM     19  C   LIG    1        6.853  -6.535  -1.470  0.00  0.00    -0.050 A 
ATOM     20  S   LIG    1        5.714  -5.273  -1.323  0.00  0.00    +0.240 S 
ENDBRANCH  14  16
ENDBRANCH  13  14
ENDBRANCH  12  13
ENDBRANCH  10  12
ENDBRANCH   3   8
BRANCH   1  21
ATOM     21  S   LIG    1       -1.416   0.192   0.689  0.00  0.00    +2.690 S 
ATOM     22  O   LIG    1       -0.936  -1.116   0.966  0.00  0.00    -0.930 OA
ATOM     23  O   LIG    1       -2.231   0.500  -0.434  0.00  0.00    -0.930 OA
BRANCH  21  24
ATOM     24  N   LIG    1       -2.265   0.672   2.028  0.00  0.00    -1.050 N 
ATOM     25  H   LIG    1       -3.132   1.094   1.927  0.00  0.00    +0.430 HD
BRANCH  24  30
ATOM     26  C   LIG    1       -0.099  -0.153   7.204  0.00  0.00    +0.100 C 
ATOM     27  C   LIG    1       -0.674   0.066   5.828  0.00  0.00    -0.100 A 
ATOM     28  C   LIG    1        0.169   0.286   4.755  0.00  0.00    +0.040 A 
ATOM     29  C   LIG    1       -0.355   0.487   3.493  0.00  0.00    -0.050 A 
ATOM     30  C   LIG    1       -1.731   0.469   3.303  0.00  0.00    +0.170 A 
ATOM     31  C   LIG    1       -2.576   0.253   4.384  0.00  0.00    -0.100 A 
ATOM     32  C   LIG    1       -4.069   0.238   4.184  0.00  0.00    +0.100 C 
ATOM     33  C   LIG    1       -2.045   0.047   5.642  0.00  0.00    +0.040 A 
ENDBRANCH  24  30
ENDBRANCH  21  24
ENDBRANCH   1  21
TORSDOF 8
