REMARK  Name = ZINCpk000000o5Yk.0
REMARK                            x       y       z     vdW  Elec       q    Type
REMARK                         _______ _______ _______ _____ _____    ______ ____
ROOT
ATOM      1  C   LIG    1        1.164   2.374  -4.692  0.00  0.00    -0.210 A 
ATOM      2  C   LIG    1        1.776   2.980  -5.800  0.00  0.00    +0.140 A 
ATOM      3  C   LIG    1        1.026   3.194  -6.925  0.00  0.00    -0.050 A 
ATOM      4  C   LIG    1       -0.316   2.818  -6.934  0.00  0.00    +0.340 A 
ATOM      5  N   LIG    1       -0.872   2.252  -5.872  0.00  0.00    -0.520 NA
ATOM      6  C   LIG    1       -0.185   2.023  -4.772  0.00  0.00    +0.320 A 
ENDROOT
BRANCH   4   7
ATOM      7  N   LIG    1       -1.079   3.039  -8.068  0.00  0.00    -0.480 N 
ATOM      8  C   LIG    1       -0.473   2.397  -9.244  0.00  0.00    +0.210 C 
ATOM      9  C   LIG    1       -1.301   2.734 -10.486  0.00  0.00    +0.200 C 
ATOM     10  N   LIG    1       -2.683   2.271 -10.293  0.00  0.00    -0.530 NA
ATOM     11  C   LIG    1       -3.488   2.525 -11.497  0.00  0.00    +0.160 C 
ATOM     12  C   LIG    1       -4.906   1.991 -11.282  0.00  0.00    +0.220 C 
ATOM     13  O   LIG    1       -5.467   2.606 -10.118  0.00  0.00    -0.380 OA
ATOM     14  C   LIG    1       -4.712   2.374  -8.927  0.00  0.00    +0.230 C 
ATOM     15  C   LIG    1       -3.289   2.907  -9.115  0.00  0.00    +0.110 C 
ATOM     16  C   LIG    1       -2.459   2.574  -7.873  0.00  0.00    +0.240 C 
ENDBRANCH   4   7
BRANCH   1  23
ATOM     17  C   LIG    1        0.815   4.972   1.048  0.00  0.00    +0.020 C 
ATOM     18  C   LIG    1        0.745   3.764   0.111  0.00  0.00    -0.020 C 
ATOM     19  C   LIG    1        0.149   4.195  -1.231  0.00  0.00    +0.020 C 
ATOM     20  C   LIG    1        0.048   2.977  -2.155  0.00  0.00    +0.260 C 
ATOM     21  N   LIG    1        1.372   2.349  -2.256  0.00  0.00    -0.610 N 
ATOM     22  C   LIG    1        2.074   1.978  -1.020  0.00  0.00    +0.270 C 
ATOM     23  C   LIG    1        1.932   2.118  -3.460  0.00  0.00    +0.570 C 
ATOM     24  O   LIG    1        3.071   1.698  -3.530  0.00  0.00    -0.530 OA
ATOM     25  C   LIG    1        2.153   3.207  -0.109  0.00  0.00    +0.020 C 
ENDBRANCH   1  23
TORSDOF 2
