REMARK  Name = ZINCqH0000007Dtl.1
REMARK                            x       y       z     vdW  Elec       q    Type
REMARK                         _______ _______ _______ _____ _____    ______ ____
ROOT
ATOM      1  C   LIG    1       -3.076  -2.633   0.127  0.00  0.00    +0.030 C 
ATOM      2  C   LIG    1       -3.089  -3.525   1.370  0.00  0.00    +0.020 C 
ATOM      3  C   LIG    1       -4.281  -4.484   1.293  0.00  0.00    +0.260 C 
ATOM      4  N   LIG    1       -4.214  -5.221   0.023  0.00  0.00    -0.600 N 
ATOM      5  C   LIG    1       -4.107  -4.460  -1.229  0.00  0.00    +0.280 C 
ATOM      6  C   LIG    1       -4.249  -6.568   0.008  0.00  0.00    +0.570 C 
ATOM      7  O   LIG    1       -4.268  -7.163  -1.052  0.00  0.00    -0.520 OA
ATOM      8  C   LIG    1       -2.917  -3.501  -1.124  0.00  0.00    +0.020 C 
ENDROOT
BRANCH   6   9
ATOM      9  C   LIG    1       -4.264  -7.320   1.276  0.00  0.00    -0.140 A 
ATOM     10  C   LIG    1       -3.297  -8.307   1.517  0.00  0.00    +0.140 A 
ATOM     11  C   LIG    1       -3.301  -9.009   2.688  0.00  0.00    +0.040 A 
ATOM     12  C   LIG    1       -4.274  -8.747   3.659  0.00  0.00    +0.100 A 
ATOM     13  N   LIG    1       -4.529  -9.264   4.886  0.00  0.00    -0.500 NA
ATOM     14  C   LIG    1       -5.567  -8.674   5.405  0.00  0.00    +0.510 A 
ATOM     15  N   LIG    1       -6.050  -7.737   4.549  0.00  0.00    -0.600 N 
ATOM     16  H   LIG    1       -6.816  -7.161   4.699  0.00  0.00    +0.430 HD
ATOM     17  C   LIG    1       -5.247  -7.757   3.423  0.00  0.00    +0.030 A 
ATOM     18  F   LIG    1       -2.355  -8.566   0.584  0.00  0.00    -0.120 F 
ATOM     19  C   LIG    1       -5.237  -7.044   2.238  0.00  0.00    +0.090 A 
ENDBRANCH   6   9
BRANCH   1  24
ATOM     20  C   LIG    1       -1.105   0.587   0.294  0.00  0.00    +0.130 A 
ATOM     21  C   LIG    1        0.195   0.109   0.374  0.00  0.00    -0.080 A 
ATOM     22  C   LIG    1        0.429  -1.252   0.383  0.00  0.00    +0.050 A 
ATOM     23  C   LIG    1       -0.629  -2.138   0.300  0.00  0.00    -0.030 A 
ATOM     24  C   LIG    1       -1.925  -1.664   0.216  0.00  0.00    -0.040 A 
ATOM     25  C   LIG    1       -2.166  -0.304   0.213  0.00  0.00    -0.020 A 
BRANCH  20  27
ATOM     26  C   LIG    1       -0.200   2.784   0.379  0.00  0.00    +0.250 C 
ATOM     27  O   LIG    1       -1.339   1.925   0.291  0.00  0.00    -0.320 OA
ENDBRANCH  20  27
ENDBRANCH   1  24
TORSDOF 3
