REMARK  Name = ZINCqH0000007Dtl.0
REMARK                            x       y       z     vdW  Elec       q    Type
REMARK                         _______ _______ _______ _____ _____    ______ ____
ROOT
ATOM      1  C   LIG    1       -3.074  -2.633   0.127  0.00  0.00    +0.030 C 
ATOM      2  C   LIG    1       -3.087  -3.526   1.370  0.00  0.00    +0.020 C 
ATOM      3  C   LIG    1       -4.280  -4.484   1.293  0.00  0.00    +0.270 C 
ATOM      4  N   LIG    1       -4.213  -5.221   0.023  0.00  0.00    -0.600 N 
ATOM      5  C   LIG    1       -4.106  -4.460  -1.229  0.00  0.00    +0.280 C 
ATOM      6  C   LIG    1       -4.249  -6.568   0.008  0.00  0.00    +0.570 C 
ATOM      7  O   LIG    1       -4.269  -7.163  -1.052  0.00  0.00    -0.520 OA
ATOM      8  C   LIG    1       -2.916  -3.501  -1.124  0.00  0.00    +0.020 C 
ENDROOT
BRANCH   6   9
ATOM      9  C   LIG    1       -4.264  -7.320   1.277  0.00  0.00    -0.170 A 
ATOM     10  C   LIG    1       -3.303  -8.316   1.512  0.00  0.00    +0.160 A 
ATOM     11  C   LIG    1       -3.308  -9.018   2.697  0.00  0.00    +0.000 A 
ATOM     12  C   LIG    1       -4.273  -8.750   3.660  0.00  0.00    +0.090 A 
ATOM     13  N   LIG    1       -4.544  -9.266   4.909  0.00  0.00    -0.600 N 
ATOM     14  H   LIG    1       -4.051  -9.971   5.358  0.00  0.00    +0.430 HD
ATOM     15  C   LIG    1       -5.630  -8.605   5.396  0.00  0.00    +0.490 A 
ATOM     16  N   LIG    1       -6.041  -7.723   4.534  0.00  0.00    -0.480 NA
ATOM     17  C   LIG    1       -5.245  -7.757   3.432  0.00  0.00    +0.030 A 
ATOM     18  F   LIG    1       -2.367  -8.582   0.576  0.00  0.00    -0.120 F 
ATOM     19  C   LIG    1       -5.235  -7.044   2.236  0.00  0.00    +0.150 A 
ENDBRANCH   6   9
BRANCH   1  24
ATOM     20  C   LIG    1       -1.102   0.585   0.294  0.00  0.00    +0.130 A 
ATOM     21  C   LIG    1        0.198   0.107   0.373  0.00  0.00    -0.080 A 
ATOM     22  C   LIG    1        0.432  -1.254   0.381  0.00  0.00    +0.040 A 
ATOM     23  C   LIG    1       -0.626  -2.140   0.299  0.00  0.00    -0.030 A 
ATOM     24  C   LIG    1       -1.923  -1.665   0.215  0.00  0.00    -0.040 A 
ATOM     25  C   LIG    1       -2.163  -0.305   0.212  0.00  0.00    -0.020 A 
BRANCH  20  27
ATOM     26  C   LIG    1       -0.196   2.782   0.378  0.00  0.00    +0.250 C 
ATOM     27  O   LIG    1       -1.335   1.924   0.291  0.00  0.00    -0.320 OA
ENDBRANCH  20  27
ENDBRANCH   1  24
TORSDOF 3
