REMARK  Name = ZINCpe00000KruXv.0
REMARK                            x       y       z     vdW  Elec       q    Type
REMARK                         _______ _______ _______ _____ _____    ______ ____
ROOT
ATOM      1  N   LIG    1        0.027   1.251   0.166  0.00  0.00    -0.520 NA
ATOM      2  C   LIG    1        0.041  -0.191   0.450  0.00  0.00    +0.160 C 
ATOM      3  C   LIG    1        0.837  -0.913  -0.640  0.00  0.00    +0.230 C 
ATOM      4  O   LIG    1        2.155  -0.361  -0.706  0.00  0.00    -0.370 OA
ATOM      5  C   LIG    1        2.178   1.042  -0.981  0.00  0.00    +0.140 C 
ATOM      6  C   LIG    1        1.396   1.784   0.106  0.00  0.00    +0.170 C 
ENDROOT
BRANCH   1   7
ATOM      7  C   LIG    1       -0.776   1.976   1.160  0.00  0.00    +0.210 C 
BRANCH   7  14
ATOM      8  C   LIG    1       -6.882   2.533   1.803  0.00  0.00    +0.030 C 
ATOM      9  C   LIG    1       -5.399   2.912   1.791  0.00  0.00    -0.040 C 
ATOM     10  C   LIG    1       -5.075   3.745   3.033  0.00  0.00    +0.020 C 
ATOM     11  C   LIG    1       -3.600   4.153   3.005  0.00  0.00    +0.010 C 
ATOM     12  C   LIG    1       -2.726   2.895   3.025  0.00  0.00    +0.260 C 
ATOM     13  N   LIG    1       -3.131   2.021   1.916  0.00  0.00    -0.620 N 
ATOM     14  C   LIG    1       -2.223   1.576   1.024  0.00  0.00    +0.520 C 
ATOM     15  O   LIG    1       -2.570   0.855   0.114  0.00  0.00    -0.520 OA
ATOM     16  C   LIG    1       -4.546   1.645   1.793  0.00  0.00    +0.280 C 
ENDBRANCH   7  14
ENDBRANCH   1   7
BRANCH   5  17
ATOM     17  C   LIG    1        3.626   1.536  -0.995  0.00  0.00    +0.320 C 
BRANCH  17  18
ATOM     18  N   LIG    1        4.345   0.911  -2.108  0.00  0.00    -0.600 N 
ATOM     19  C   LIG    1        4.369   1.560  -3.421  0.00  0.00    +0.300 C 
BRANCH  18  20
ATOM     20  C   LIG    1        5.004  -0.299  -1.918  0.00  0.00    +0.350 A 
ATOM     21  C   LIG    1        4.902  -0.968  -0.699  0.00  0.00    +0.000 A 
ATOM     22  C   LIG    1        5.574  -2.172  -0.562  0.00  0.00    +0.060 A 
ATOM     23  C   LIG    1        6.315  -2.633  -1.642  0.00  0.00    +0.150 A 
ATOM     24  N   LIG    1        6.361  -1.931  -2.757  0.00  0.00    -0.210 NA
ATOM     25  N   LIG    1        5.737  -0.818  -2.893  0.00  0.00    -0.310 NA
ENDBRANCH  18  20
ENDBRANCH  17  18
ENDBRANCH   5  17
TORSDOF 5
