REMARK  Name = ZINCvU0000000C4J.1
REMARK                            x       y       z     vdW  Elec       q    Type
REMARK                         _______ _______ _______ _____ _____    ______ ____
ROOT
ATOM      1  C   LIG    1        2.426   3.938  -0.001  0.00  0.00    +0.210 C 
ATOM      2  C   LIG    1        2.380   5.283   0.002  0.00  0.00    -0.130 C 
ATOM      3  C   LIG    1        3.703   6.027  -0.003  0.00  0.00    +0.390 C 
ATOM      4  N   LIG    1        4.914   5.199  -0.019  0.00  0.00    -0.460 N 
ATOM      5  N   LIG    1        6.283   5.473  -0.032  0.00  0.00    -0.490 N 
ATOM      6  H   LIG    1        6.700   6.349  -0.031  0.00  0.00    +0.450 HD
ATOM      7  C   LIG    1        6.918   4.268  -0.044  0.00  0.00    +0.630 A 
ATOM      8  N   LIG    1        6.033   3.310  -0.040  0.00  0.00    -0.520 NA
ATOM      9  C   LIG    1        4.784   3.825  -0.025  0.00  0.00    +0.570 A 
ATOM     10  N   LIG    1        3.600   3.259  -0.016  0.00  0.00    -0.580 NA
ENDROOT
BRANCH   1  14
ATOM     11  C   LIG    1       -1.220   1.750   0.017  0.00  0.00    +0.010 A 
ATOM     12  C   LIG    1       -0.013   1.076   0.008  0.00  0.00    -0.010 A 
ATOM     13  C   LIG    1        1.174   1.781   0.000  0.00  0.00    +0.060 A 
ATOM     14  C   LIG    1        1.153   3.174   0.008  0.00  0.00    -0.040 A 
ATOM     15  C   LIG    1       -0.066   3.848   0.023  0.00  0.00    +0.020 A 
ATOM     16  C   LIG    1       -1.247   3.133   0.031  0.00  0.00    -0.010 A 
ENDBRANCH   1  14
BRANCH   3  17
ATOM     17  C   LIG    1        3.727   6.916  -1.219  0.00  0.00    -0.240 A 
ATOM     18  C   LIG    1        4.385   6.668  -2.372  0.00  0.00    +0.250 A 
ATOM     19  N   LIG    1        4.153   7.707  -3.217  0.00  0.00    -0.310 N 
ATOM     20  N   LIG    1        3.332   8.629  -2.556  0.00  0.00    -0.260 NA
ATOM     21  C   LIG    1        3.072   8.158  -1.353  0.00  0.00    +0.170 A 
BRANCH  19  22
ATOM     22  C   LIG    1        4.653   7.836  -4.519  0.00  0.00    +0.160 A 
ATOM     23  C   LIG    1        5.465   6.844  -5.054  0.00  0.00    -0.010 A 
ATOM     24  C   LIG    1        5.952   6.972  -6.340  0.00  0.00    +0.050 A 
ATOM     25  C   LIG    1        5.640   8.090  -7.092  0.00  0.00    +0.010 A 
ATOM     26  C   LIG    1        4.836   9.082  -6.560  0.00  0.00    +0.050 A 
ATOM     27  C   LIG    1        4.341   8.957  -5.276  0.00  0.00    +0.020 A 
ENDBRANCH  19  22
BRANCH  21  28
ATOM     28  C   LIG    1        2.240   8.817  -0.323  0.00  0.00    -0.130 A 
ATOM     29  C   LIG    1        2.169  10.146  -0.113  0.00  0.00    +0.040 A 
ATOM     30  C   LIG    1        1.318  10.524   0.906  0.00  0.00    +0.010 A 
ATOM     31  C   LIG    1        0.705   9.518   1.534  0.00  0.00    -0.040 A 
ATOM     32  S   LIG    1        1.197   7.986   0.824  0.00  0.00    +0.150 S 
ENDBRANCH  21  28
ENDBRANCH   3  17
TORSDOF 4
