REMARK  Name = ZINCqH0000034ScP.0
REMARK                            x       y       z     vdW  Elec       q    Type
REMARK                         _______ _______ _______ _____ _____    ______ ____
ROOT
ATOM      1  N   LIG    1       -0.288   1.272  -2.443  0.00  0.00    -0.730 N 
ATOM      2  H   LIG    1        0.507   0.726  -2.543  0.00  0.00    +0.400 HD
ATOM      3  C   LIG    1       -0.742   1.585  -1.213  0.00  0.00    +0.520 C 
ATOM      4  O   LIG    1       -1.736   2.268  -1.088  0.00  0.00    -0.510 OA
ENDROOT
BRANCH   1   5
ATOM      5  C   LIG    1       -0.997   1.758  -3.630  0.00  0.00    +0.320 C 
BRANCH   5   6
ATOM      6  C   LIG    1       -2.124   0.814  -3.963  0.00  0.00    -0.090 A 
ATOM      7  C   LIG    1       -2.109  -0.479  -3.476  0.00  0.00    +0.040 A 
ATOM      8  C   LIG    1       -3.143  -1.345  -3.782  0.00  0.00    +0.020 A 
ATOM      9  C   LIG    1       -4.192  -0.917  -4.574  0.00  0.00    +0.030 A 
ATOM     10  C   LIG    1       -4.207   0.376  -5.062  0.00  0.00    +0.030 A 
ATOM     11  C   LIG    1       -3.176   1.244  -4.752  0.00  0.00    -0.030 A 
ATOM     12 CL   LIG    1       -3.199   2.871  -5.357  0.00  0.00    -0.060 Cl
ENDBRANCH   5   6
BRANCH   5  13
ATOM     13  C   LIG    1       -0.026   1.829  -4.810  0.00  0.00    +0.120 C 
BRANCH  13  14
ATOM     14  C   LIG    1        1.033   2.863  -4.527  0.00  0.00    +0.460 C 
ATOM     15  O   LIG    1        1.013   3.480  -3.489  0.00  0.00    -0.490 OA
BRANCH  14  17
ATOM     16  C   LIG    1        2.986   4.108  -5.091  0.00  0.00    +0.260 C 
ATOM     17  O   LIG    1        1.999   3.099  -5.430  0.00  0.00    -0.360 OA
ENDBRANCH  14  17
ENDBRANCH  13  14
ENDBRANCH   5  13
ENDBRANCH   1   5
BRANCH   3  18
ATOM     18  C   LIG    1       -0.013   1.086   0.008  0.00  0.00    +0.140 C 
BRANCH  18  19
ATOM     19  C   LIG    1       -0.718   1.572   1.248  0.00  0.00    -0.160 A 
ATOM     20  C   LIG    1       -0.416   2.668   1.960  0.00  0.00    +0.240 A 
ATOM     21  N   LIG    1       -1.276   2.790   3.017  0.00  0.00    -0.590 N 
ATOM     22  H   LIG    1       -1.257   3.505   3.672  0.00  0.00    +0.420 HD
ATOM     23  C   LIG    1       -2.170   1.743   3.016  0.00  0.00    +0.100 A 
ATOM     24  C   LIG    1       -3.227   1.385   3.846  0.00  0.00    -0.010 A 
ATOM     25  C   LIG    1       -3.954   0.246   3.576  0.00  0.00    +0.020 A 
ATOM     26  C   LIG    1       -3.644  -0.549   2.481  0.00  0.00    -0.030 A 
ATOM     27  C   LIG    1       -2.610  -0.215   1.652  0.00  0.00    +0.050 A 
ATOM     28  C   LIG    1       -1.860   0.934   1.908  0.00  0.00    -0.090 A 
ENDBRANCH  18  19
ENDBRANCH   3  18
TORSDOF 7
