REMARK  Name = ZINCpe00000bSKbl.0
REMARK                            x       y       z     vdW  Elec       q    Type
REMARK                         _______ _______ _______ _____ _____    ______ ____
ROOT
ATOM      1  C   LIG    1       -3.843  -4.038  -2.621  0.00  0.00    -0.010 C 
ATOM      2  C   LIG    1       -3.845  -5.021  -1.447  0.00  0.00    +0.010 C 
ATOM      3  C   LIG    1       -5.137  -5.842  -1.481  0.00  0.00    +0.030 C 
ATOM      4  C   LIG    1       -5.239  -6.568  -2.824  0.00  0.00    +0.170 C 
ATOM      5  N   LIG    1       -5.234  -5.585  -3.915  0.00  0.00    -0.520 NA
ATOM      6  C   LIG    1       -3.983  -4.817  -3.932  0.00  0.00    +0.190 C 
ENDROOT
BRANCH   1   7
ATOM      7  C   LIG    1       -2.529  -3.256  -2.630  0.00  0.00    +0.270 C 
BRANCH   7   9
ATOM      8  C   LIG    1       -1.373  -1.636  -1.224  0.00  0.00    +0.520 C 
ATOM      9  N   LIG    1       -2.450  -2.419  -1.430  0.00  0.00    -0.730 N 
ATOM     10  H   LIG    1       -3.174  -2.428  -0.785  0.00  0.00    +0.400 HD
ATOM     11  O   LIG    1       -0.468  -1.624  -2.031  0.00  0.00    -0.530 OA
BRANCH   8  13
ATOM     12  C   LIG    1       -1.349  -1.663   1.256  0.00  0.00    +0.050 C 
ATOM     13  C   LIG    1       -1.293  -0.775   0.011  0.00  0.00    +0.040 C 
BRANCH  13  14
ATOM     14  C   LIG    1        0.002  -0.004   0.002  0.00  0.00    -0.070 A 
ATOM     15  C   LIG    1       -0.017   1.378   0.010  0.00  0.00    +0.010 A 
ATOM     16  C   LIG    1        1.171   2.086   0.002  0.00  0.00    +0.000 A 
ATOM     17  C   LIG    1        2.377   1.411  -0.015  0.00  0.00    +0.000 A 
ATOM     18  C   LIG    1        2.396   0.029  -0.021  0.00  0.00    +0.000 A 
ATOM     19  C   LIG    1        1.208  -0.679  -0.013  0.00  0.00    +0.040 A 
ENDBRANCH  13  14
ENDBRANCH   8  13
ENDBRANCH   7   9
ENDBRANCH   1   7
BRANCH   5  20
ATOM     20  C   LIG    1       -5.471  -6.235  -5.211  0.00  0.00    +0.220 C 
BRANCH  20  21
ATOM     21  C   LIG    1       -6.865  -6.805  -5.240  0.00  0.00    +0.510 C 
ATOM     22  N   LIG    1       -7.306  -7.451  -6.338  0.00  0.00    -0.690 N 
ATOM     23  H   LIG    1       -6.725  -7.550  -7.108  0.00  0.00    +0.410 HD
ATOM     24  C   LIG    1       -8.554  -7.961  -6.364  0.00  0.00    +0.700 C 
ATOM     25  O   LIG    1       -9.281  -7.837  -5.399  0.00  0.00    -0.530 OA
ATOM     26  N   LIG    1       -8.994  -8.607  -7.461  0.00  0.00    -0.860 N 
ATOM     27  H   LIG    1       -9.892  -8.974  -7.481  0.00  0.00    +0.420 HD
ATOM     28  H   LIG    1       -8.414  -8.706  -8.232  0.00  0.00    +0.400 HD
ATOM     29  O   LIG    1       -7.591  -6.681  -4.277  0.00  0.00    -0.440 OA
ENDBRANCH  20  21
ENDBRANCH   5  20
TORSDOF 6
