REMARK  Name = ZINCqH00000047X3.0
REMARK                            x       y       z     vdW  Elec       q    Type
REMARK                         _______ _______ _______ _____ _____    ______ ____
ROOT
ATOM      1  C   LIG    1       -0.018   1.112   2.608  0.00  0.00    +0.000 C 
ENDROOT
BRANCH   1   2
ATOM      2  C   LIG    1       -0.799   1.304   3.882  0.00  0.00    +0.540 C 
ATOM      3  N   LIG    1       -1.706   0.381   4.262  0.00  0.00    -0.720 N 
ATOM      4  H   LIG    1       -1.855  -0.406   3.715  0.00  0.00    +0.400 HD
ATOM      5  O   LIG    1       -0.613   2.288   4.566  0.00  0.00    -0.520 OA
BRANCH   3   6
ATOM      6  C   LIG    1       -2.465   0.568   5.500  0.00  0.00    +0.320 C 
BRANCH   6   7
ATOM      7  C   LIG    1       -3.404  -0.595   5.694  0.00  0.00    -0.110 A 
ATOM      8  C   LIG    1       -4.686  -0.542   5.179  0.00  0.00    +0.020 A 
ATOM      9  C   LIG    1       -5.545  -1.611   5.352  0.00  0.00    +0.010 A 
ATOM     10  C   LIG    1       -5.126  -2.729   6.049  0.00  0.00    +0.010 A 
ATOM     11  C   LIG    1       -3.846  -2.780   6.569  0.00  0.00    +0.010 A 
ATOM     12  C   LIG    1       -2.985  -1.713   6.392  0.00  0.00    +0.020 A 
ENDBRANCH   6   7
ENDBRANCH   3   6
ENDBRANCH   1   2
BRANCH   1  14
ATOM     13  C   LIG    1       -2.082   0.775   1.241  0.00  0.00    +0.030 C 
ATOM     14  C   LIG    1       -0.833   1.639   1.425  0.00  0.00    +0.050 C 
ENDBRANCH   1  14
BRANCH   1  15
ATOM     15  S   LIG    1        1.548   2.021   2.716  0.00  0.00    +0.110 S 
BRANCH  15  16
ATOM     16  C   LIG    1        2.424   1.474   1.289  0.00  0.00    +0.200 A 
ATOM     17  N   LIG    1        2.002   0.569   0.435  0.00  0.00    -0.310 NA
ATOM     18  N   LIG    1        2.996   0.437  -0.547  0.00  0.00    -0.470 N 
ATOM     19  H   LIG    1        2.978  -0.154  -1.317  0.00  0.00    +0.440 HD
ATOM     20  C   LIG    1        3.986   1.291  -0.205  0.00  0.00    +0.340 A 
ATOM     21  N   LIG    1        3.626   1.908   0.903  0.00  0.00    -0.490 NA
BRANCH  20  22
ATOM     22  C   LIG    1        5.251   1.498  -0.943  0.00  0.00    -0.080 A 
ATOM     23  C   LIG    1        5.511   0.771  -2.105  0.00  0.00    +0.060 A 
ATOM     24  C   LIG    1        6.691   0.972  -2.792  0.00  0.00    +0.010 A 
ATOM     25  C   LIG    1        7.621   1.884  -2.326  0.00  0.00    +0.080 A 
ATOM     26  C   LIG    1        7.374   2.605  -1.172  0.00  0.00    -0.010 A 
ATOM     27  C   LIG    1        6.194   2.418  -0.477  0.00  0.00    +0.160 A 
ATOM     28  F   LIG    1        5.953   3.123   0.650  0.00  0.00    -0.110 F 
ENDBRANCH  20  22
ENDBRANCH  15  16
ENDBRANCH   1  15
TORSDOF 7
