REMARK  Name = ZINCqH00000047X3.1
REMARK                            x       y       z     vdW  Elec       q    Type
REMARK                         _______ _______ _______ _____ _____    ______ ____
ROOT
ATOM      1  C   LIG    1       -3.364  -1.935  -3.041  0.00  0.00    +0.030 C 
ENDROOT
BRANCH   1   2
ATOM      2  C   LIG    1       -2.958  -1.882  -1.590  0.00  0.00    +0.530 C 
ATOM      3  N   LIG    1       -1.836  -1.230  -1.228  0.00  0.00    -0.710 N 
ATOM      4  H   LIG    1       -1.289  -0.794  -1.900  0.00  0.00    +0.400 HD
ATOM      5  O   LIG    1       -3.641  -2.427  -0.749  0.00  0.00    -0.520 OA
BRANCH   3   6
ATOM      6  C   LIG    1       -1.441  -1.179   0.182  0.00  0.00    +0.320 C 
BRANCH   6   7
ATOM      7  C   LIG    1       -0.161  -0.396   0.318  0.00  0.00    -0.110 A 
ATOM      8  C   LIG    1       -0.205   0.971   0.520  0.00  0.00    +0.020 A 
ATOM      9  C   LIG    1        0.970   1.689   0.644  0.00  0.00    +0.000 A 
ATOM     10  C   LIG    1        2.188   1.041   0.565  0.00  0.00    +0.010 A 
ATOM     11  C   LIG    1        2.232  -0.326   0.364  0.00  0.00    +0.000 A 
ATOM     12  C   LIG    1        1.058  -1.044   0.240  0.00  0.00    +0.020 A 
ENDBRANCH   6   7
ENDBRANCH   3   6
ENDBRANCH   1   2
BRANCH   1  14
ATOM     13  C   LIG    1       -2.937  -3.058  -5.231  0.00  0.00    +0.030 C 
ATOM     14  C   LIG    1       -2.643  -3.094  -3.730  0.00  0.00    +0.070 C 
ENDBRANCH   1  14
BRANCH   1  15
ATOM     15  S   LIG    1       -5.153  -2.182  -3.158  0.00  0.00    +0.080 S 
BRANCH  15  16
ATOM     16  C   LIG    1       -5.718  -0.647  -2.502  0.00  0.00    +0.260 A 
ATOM     17  N   LIG    1       -4.961   0.374  -2.165  0.00  0.00    -0.530 NA
ATOM     18  C   LIG    1       -5.729   1.371  -1.704  0.00  0.00    +0.270 A 
ATOM     19  N   LIG    1       -6.987   0.993  -1.744  0.00  0.00    -0.280 NA
ATOM     20  N   LIG    1       -7.005  -0.311  -2.264  0.00  0.00    -0.460 N 
ATOM     21  H   LIG    1       -7.787  -0.863  -2.419  0.00  0.00    +0.450 HD
BRANCH  18  22
ATOM     22  C   LIG    1       -5.239   2.688  -1.226  0.00  0.00    -0.050 A 
ATOM     23  C   LIG    1       -3.875   2.968  -1.227  0.00  0.00    +0.090 A 
ATOM     24  C   LIG    1       -3.425   4.197  -0.787  0.00  0.00    +0.000 A 
ATOM     25  C   LIG    1       -4.324   5.145  -0.334  0.00  0.00    +0.070 A 
ATOM     26  C   LIG    1       -5.680   4.872  -0.324  0.00  0.00    -0.020 A 
ATOM     27  C   LIG    1       -6.143   3.648  -0.768  0.00  0.00    +0.130 A 
ATOM     28  F   LIG    1       -7.468   3.381  -0.758  0.00  0.00    -0.120 F 
ENDBRANCH  18  22
ENDBRANCH  15  16
ENDBRANCH   1  15
TORSDOF 7
