REMARK  Name = ZINCkj00000zzeUT.0
REMARK                            x       y       z     vdW  Elec       q    Type
REMARK                         _______ _______ _______ _____ _____    ______ ____
ROOT
ATOM      1  N   LIG    1        4.845   3.051   0.058  0.00  0.00    -0.710 N 
ATOM      2  H   LIG    1        4.636   3.866  -0.423  0.00  0.00    +0.420 HD
ENDROOT
BRANCH   1   3
ATOM      3  C   LIG    1        3.921   1.915   0.011  0.00  0.00    +0.250 C 
ATOM      4  C   LIG    1        3.087   1.989  -1.270  0.00  0.00    +0.060 C 
ATOM      5  C   LIG    1        2.122   0.798  -1.308  0.00  0.00    +0.130 C 
ATOM      6  C   LIG    1        1.315   0.779  -0.006  0.00  0.00    -0.060 C 
ATOM      7  N   LIG    1        2.116   0.784   1.226  0.00  0.00    -0.470 N 
ATOM      8  H   LIG    1        2.675  -0.055   1.268  0.00  0.00    +0.430 HD
ATOM      9  H   LIG    1        1.502   0.821   2.026  0.00  0.00    +0.430 HD
ATOM     10  C   LIG    1       -0.019   1.526   0.010  0.00  0.00    +0.100 C 
ATOM     11  C   LIG    1        0.002  -0.004   0.002  0.00  0.00    +0.120 C 
ATOM     12  C   LIG    1        2.996   1.960   1.228  0.00  0.00    +0.250 C 
ENDBRANCH   1   3
BRANCH   1  17
ATOM     13  C   LIG    1        7.982   3.896   1.537  0.00  0.00    +0.400 A 
ATOM     14  C   LIG    1        8.277   2.726   2.225  0.00  0.00    +0.200 A 
ATOM     15  N   LIG    1        7.441   1.703   2.181  0.00  0.00    -0.370 NA
ATOM     16  C   LIG    1        6.324   1.789   1.484  0.00  0.00    +0.120 A 
ATOM     17  C   LIG    1        6.022   2.960   0.793  0.00  0.00    +0.380 A 
ATOM     18  N   LIG    1        6.862   3.986   0.831  0.00  0.00    -0.520 NA
BRANCH  13  21
ATOM     19  C   LIG    1        9.778   6.940   1.260  0.00  0.00    -0.090 A 
ATOM     20  C   LIG    1        8.704   6.173   0.962  0.00  0.00    +0.250 A 
ATOM     21  N   LIG    1        8.867   4.977   1.584  0.00  0.00    -0.340 N 
ATOM     22  N   LIG    1       10.079   5.022   2.287  0.00  0.00    -0.280 NA
ATOM     23  C   LIG    1       10.625   6.194   2.088  0.00  0.00    +0.280 A 
ENDBRANCH  13  21
ENDBRANCH   1  17
TORSDOF 3
