REMARK  Name = ZINCrD000000fHuw.0
REMARK                            x       y       z     vdW  Elec       q    Type
REMARK                         _______ _______ _______ _____ _____    ______ ____
ROOT
ATOM      1  N   LIG    1        6.440  -2.494   1.239  0.00  0.00    -0.660 N 
ATOM      2  H   LIG    1        5.767  -3.087   1.609  0.00  0.00    +0.410 HD
ATOM      3  C   LIG    1        6.359  -1.166   1.451  0.00  0.00    +0.570 C 
ATOM      4  O   LIG    1        7.250  -0.433   1.068  0.00  0.00    -0.500 OA
ENDROOT
BRANCH   1   9
ATOM      5  C   LIG    1        8.878  -4.876  -0.151  0.00  0.00    +0.160 A 
ATOM      6  C   LIG    1        9.588  -4.049  -1.012  0.00  0.00    -0.110 A 
ATOM      7  C   LIG    1        9.252  -2.713  -1.122  0.00  0.00    +0.040 A 
ATOM      8  C   LIG    1        8.209  -2.196  -0.378  0.00  0.00    +0.030 A 
ATOM      9  C   LIG    1        7.495  -3.019   0.485  0.00  0.00    +0.150 A 
ATOM     10  C   LIG    1       10.726  -4.609  -1.826  0.00  0.00    +0.090 C 
ATOM     11  C   LIG    1        7.834  -4.359   0.602  0.00  0.00    -0.100 A 
ATOM     12  C   LIG    1        7.065  -5.252   1.542  0.00  0.00    +0.090 C 
BRANCH   5  15
ATOM     13  C   LIG    1        8.623  -8.629   0.005  0.00  0.00    +0.110 C 
ATOM     14  C   LIG    1        8.278  -7.178  -0.213  0.00  0.00    +0.510 C 
ATOM     15  N   LIG    1        9.219  -6.229  -0.039  0.00  0.00    -0.680 N 
ATOM     16  H   LIG    1       10.133  -6.483   0.164  0.00  0.00    +0.410 HD
ATOM     17  O   LIG    1        7.155  -6.864  -0.545  0.00  0.00    -0.520 OA
ENDBRANCH   5  15
ENDBRANCH   1   9
BRANCH   3  18
ATOM     18  C   LIG    1        5.187  -0.600   2.150  0.00  0.00    -0.250 A 
ATOM     19  C   LIG    1        5.083   0.778   2.380  0.00  0.00    +0.410 A 
ATOM     20  N   LIG    1        4.020   1.244   3.007  0.00  0.00    -0.480 NA
ATOM     21  C   LIG    1        3.059   0.427   3.417  0.00  0.00    +0.390 A 
ATOM     22  N   LIG    1        3.122  -0.884   3.223  0.00  0.00    -0.510 NA
ATOM     23  C   LIG    1        4.149  -1.428   2.599  0.00  0.00    +0.370 A 
BRANCH  21  24
ATOM     24  C   LIG    1        1.881   0.995   4.119  0.00  0.00    +0.150 A 
ATOM     25  C   LIG    1        0.864   0.150   4.555  0.00  0.00    +0.030 A 
ATOM     26  C   LIG    1       -0.232   0.696   5.204  0.00  0.00    +0.060 A 
ATOM     27  C   LIG    1       -0.267   2.068   5.403  0.00  0.00    -0.010 A 
ATOM     28  C   LIG    1        0.780   2.848   4.943  0.00  0.00    +0.270 A 
ATOM     29  N   LIG    1        1.807   2.304   4.325  0.00  0.00    -0.440 NA
ENDBRANCH  21  24
ENDBRANCH   3  18
TORSDOF 4
