REMARK  Name = ZINCrD00000e74df.0
REMARK                            x       y       z     vdW  Elec       q    Type
REMARK                         _______ _______ _______ _____ _____    ______ ____
ROOT
ATOM      1  C   LIG    1        2.542   6.899   0.263  0.00  0.00    -0.100 A 
ATOM      2  C   LIG    1        1.357   7.564   0.191  0.00  0.00    +0.260 A 
ATOM      3  O   LIG    1        0.366   6.685   0.381  0.00  0.00    -0.140 OA
ATOM      4  C   LIG    1        0.854   5.446   0.579  0.00  0.00    -0.030 A 
ATOM      5  C   LIG    1        0.423   4.023   0.843  0.00  0.00    +0.410 C 
ATOM      6  N   LIG    1        1.638   3.204   0.940  0.00  0.00    -0.600 N 
ATOM      7  C   LIG    1        1.704   1.878   1.169  0.00  0.00    +0.690 C 
ATOM      8  O   LIG    1        2.785   1.325   1.226  0.00  0.00    -0.550 OA
ATOM      9  C   LIG    1        2.765   4.124   0.744  0.00  0.00    +0.390 C 
ATOM     10  C   LIG    1        2.191   5.497   0.520  0.00  0.00    -0.160 A 
ENDROOT
BRANCH   1  15
ATOM     11  N   LIG    1        4.363   8.590   0.709  0.00  0.00    -0.360 N 
ATOM     12  N   LIG    1        5.691   8.743   0.279  0.00  0.00    -0.260 NA
ATOM     13  C   LIG    1        5.950   7.746  -0.524  0.00  0.00    +0.150 A 
ATOM     14  N   LIG    1        4.872   6.971  -0.624  0.00  0.00    -0.490 NA
ATOM     15  C   LIG    1        3.898   7.469   0.112  0.00  0.00    +0.360 A 
BRANCH  13  16
ATOM     16  C   LIG    1        7.264   7.507  -1.224  0.00  0.00    +0.520 C 
ATOM     17  F   LIG    1        7.892   8.732  -1.468  0.00  0.00    -0.180 F 
ATOM     18  F   LIG    1        7.033   6.851  -2.438  0.00  0.00    -0.180 F 
ENDBRANCH  13  16
BRANCH  11  19
ATOM     19  C   LIG    1        3.627   9.469   1.622  0.00  0.00    +0.360 C 
BRANCH  19  20
ATOM     20  C   LIG    1        3.777   8.957   3.055  0.00  0.00    +0.170 C 
BRANCH  20  22
ATOM     21  C   LIG    1        3.136   9.422   5.317  0.00  0.00    +0.220 C 
ATOM     22  O   LIG    1        3.060   9.814   3.945  0.00  0.00    -0.390 OA
ENDBRANCH  20  22
ENDBRANCH  19  20
ENDBRANCH  11  19
ENDBRANCH   1  15
BRANCH   7  23
ATOM     23  O   LIG    1        0.574   1.166   1.335  0.00  0.00    -0.360 OA
BRANCH  23  24
ATOM     24  C   LIG    1        0.722  -0.258   1.578  0.00  0.00    +0.140 C 
ATOM     25  C   LIG    1        1.445  -0.905   0.395  0.00  0.00    +0.030 C 
ATOM     26  C   LIG    1       -0.661  -0.894   1.741  0.00  0.00    +0.080 C 
ATOM     27  C   LIG    1        1.536  -0.476   2.855  0.00  0.00    +0.030 C 
ENDBRANCH  23  24
ENDBRANCH   7  23
TORSDOF 7
