REMARK  Name = ZINCrD000000AEl0.0
REMARK                            x       y       z     vdW  Elec       q    Type
REMARK                         _______ _______ _______ _____ _____    ______ ____
ROOT
ATOM      1  O   LIG    1        3.932   2.319   0.687  0.00  0.00    -0.520 OA
ATOM      2  C   LIG    1        3.387   1.539   1.440  0.00  0.00    +0.500 C 
ATOM      3  N   LIG    1        2.131   1.122   1.184  0.00  0.00    -0.720 N 
ATOM      4  H   LIG    1        1.696   0.498   1.786  0.00  0.00    +0.400 HD
ENDROOT
BRANCH   3   5
ATOM      5  C   LIG    1        1.425   1.610  -0.003  0.00  0.00    +0.270 C 
BRANCH   5   6
ATOM      6  C   LIG    1        0.081   0.888  -0.129  0.00  0.00    +0.030 C 
ATOM      7  C   LIG    1        0.329  -0.605  -0.334  0.00  0.00    +0.020 C 
ATOM      8  C   LIG    1       -1.006  -1.276  -0.673  0.00  0.00    +0.020 C 
ATOM      9  C   LIG    1       -1.429  -0.827  -2.070  0.00  0.00    +0.080 C 
ATOM     10  C   LIG    1       -1.383   0.675  -2.181  0.00  0.00    -0.070 A 
ATOM     11  C   LIG    1       -2.074   1.268  -3.229  0.00  0.00    +0.000 A 
ATOM     12  C   LIG    1       -2.060   2.638  -3.392  0.00  0.00    +0.000 A 
ATOM     13  C   LIG    1       -1.353   3.428  -2.505  0.00  0.00    +0.000 A 
ATOM     14  C   LIG    1       -0.669   2.841  -1.460  0.00  0.00    +0.000 A 
ATOM     15  C   LIG    1       -0.683   1.462  -1.294  0.00  0.00    -0.070 A 
ENDBRANCH   5   6
ENDBRANCH   3   5
BRANCH   2  16
ATOM     16  C   LIG    1        4.114   1.037   2.661  0.00  0.00    +0.330 C 
BRANCH  16  17
ATOM     17  N   LIG    1        5.451   1.634   2.713  0.00  0.00    -0.530 N 
ATOM     18  C   LIG    1        5.637   2.812   3.363  0.00  0.00    +0.590 A 
ATOM     19  N   LIG    1        6.789   3.404   3.453  0.00  0.00    -0.520 NA
ATOM     20  C   LIG    1        7.906   2.875   2.893  0.00  0.00    +0.170 A 
ATOM     21  C   LIG    1        9.145   3.511   2.990  0.00  0.00    +0.050 A 
ATOM     22  C   LIG    1       10.253   2.939   2.406  0.00  0.00    +0.100 A 
ATOM     23  C   LIG    1       10.154   1.734   1.721  0.00  0.00    -0.110 A 
ATOM     24  C   LIG    1        8.941   1.087   1.612  0.00  0.00    +0.140 A 
ATOM     25 BR   LIG    1       11.696   0.976   0.931  0.00  0.00    -0.030 Br
ATOM     26  C   LIG    1        7.809   1.651   2.196  0.00  0.00    -0.190 A 
ATOM     27  C   LIG    1        6.490   1.004   2.117  0.00  0.00    +0.560 A 
ATOM     28  O   LIG    1        6.339  -0.054   1.535  0.00  0.00    -0.500 OA
ENDBRANCH  16  17
ENDBRANCH   2  16
TORSDOF 4
