REMARK  Name = ZINCrH000004jtba.0
REMARK                            x       y       z     vdW  Elec       q    Type
REMARK                         _______ _______ _______ _____ _____    ______ ____
ROOT
ATOM      1  C   LIG    1        1.165  -0.577  -0.012  0.00  0.00    +0.300 A 
ATOM      2  N   LIG    1        0.002  -0.004   0.002  0.00  0.00    -0.500 NA
ATOM      3  C   LIG    1       -0.016   1.322   0.009  0.00  0.00    +0.130 A 
ATOM      4  C   LIG    1        1.191   1.915   0.001  0.00  0.00    -0.110 A 
ATOM      5  S   LIG    1        2.424   0.655  -0.018  0.00  0.00    +0.220 S 
ENDROOT
BRANCH   1   9
ATOM      6  N   LIG    1        2.856  -3.761  -0.047  0.00  0.00    -0.730 N 
ATOM      7  H   LIG    1        2.103  -4.372  -0.043  0.00  0.00    +0.400 HD
ATOM      8  C   LIG    1        2.643  -2.430  -0.037  0.00  0.00    +0.710 C 
ATOM      9  N   LIG    1        1.385  -1.949  -0.022  0.00  0.00    -0.630 N 
ATOM     10  H   LIG    1        0.632  -2.561  -0.019  0.00  0.00    +0.420 HD
ATOM     11  O   LIG    1        3.587  -1.663  -0.041  0.00  0.00    -0.550 OA
BRANCH   6  12
ATOM     12  C   LIG    1        4.225  -4.284  -0.062  0.00  0.00    +0.420 C 
BRANCH  12  17
ATOM     13  N   LIG    1        4.087  -6.607   1.003  0.00  0.00    -0.280 N 
ATOM     14  N   LIG    1        4.084  -7.824   0.586  0.00  0.00    -0.070 NA
ATOM     15  N   LIG    1        4.184  -7.854  -0.697  0.00  0.00    -0.270 NA
ATOM     16  C   LIG    1        4.251  -6.599  -1.155  0.00  0.00    +0.170 A 
ATOM     17  C   LIG    1        4.187  -5.790  -0.071  0.00  0.00    -0.050 A 
BRANCH  13  19
ATOM     18  C   LIG    1        2.526  -5.993   2.783  0.00  0.00    +0.050 C 
ATOM     19  C   LIG    1        3.996  -6.178   2.401  0.00  0.00    +0.320 C 
ENDBRANCH  13  19
ENDBRANCH  12  17
ENDBRANCH   6  12
ENDBRANCH   1   9
BRANCH   3  20
ATOM     20  C   LIG    1       -1.280   2.097   0.020  0.00  0.00    -0.020 A 
ATOM     21  C   LIG    1       -1.249   3.487  -0.079  0.00  0.00    +0.070 A 
ATOM     22  C   LIG    1       -2.428   4.204  -0.068  0.00  0.00    +0.020 A 
ATOM     23  C   LIG    1       -3.640   3.545   0.039  0.00  0.00    +0.070 A 
ATOM     24  C   LIG    1       -3.677   2.166   0.137  0.00  0.00    -0.180 A 
ATOM     25  C   LIG    1       -2.504   1.439   0.122  0.00  0.00    +0.100 A 
BRANCH  24  26
ATOM     26  C   LIG    1       -5.001   1.455   0.254  0.00  0.00    +0.510 C 
ATOM     27  F   LIG    1       -5.040   0.735   1.452  0.00  0.00    -0.180 F 
ATOM     28  F   LIG    1       -5.155   0.577  -0.824  0.00  0.00    -0.180 F 
ATOM     29  F   LIG    1       -6.037   2.395   0.241  0.00  0.00    -0.180 F 
ENDBRANCH  24  26
ENDBRANCH   3  20
TORSDOF 6
