REMARK  Name = ZINCpe000000WrTW.0
REMARK                            x       y       z     vdW  Elec       q    Type
REMARK                         _______ _______ _______ _____ _____    ______ ____
ROOT
ATOM      1  C   LIG    1       -1.159   3.232   1.693  0.00  0.00    +0.210 A 
ATOM      2  C   LIG    1       -1.722   3.609   2.904  0.00  0.00    -0.070 A 
ATOM      3  C   LIG    1       -2.217   2.648   3.764  0.00  0.00    +0.090 A 
ATOM      4  C   LIG    1       -2.151   1.305   3.417  0.00  0.00    +0.090 A 
ATOM      5  C   LIG    1       -1.591   0.930   2.202  0.00  0.00    +0.170 A 
ATOM      6  C   LIG    1       -1.093   1.891   1.345  0.00  0.00    -0.690 A 
ENDROOT
BRANCH   4   7
ATOM      7  N   LIG    1       -2.652   0.331   4.288  0.00  0.00    -0.660 N 
ATOM      8  H   LIG    1       -3.422   0.528   4.844  0.00  0.00    +0.410 HD
ATOM      9  C   LIG    1       -2.064  -0.880   4.355  0.00  0.00    +0.550 C 
ATOM     10  O   LIG    1       -1.043  -1.095   3.732  0.00  0.00    -0.500 OA
BRANCH   9  11
ATOM     11  C   LIG    1       -2.663  -1.950   5.189  0.00  0.00    -0.040 A 
ATOM     12  C   LIG    1       -2.069  -3.197   5.266  0.00  0.00    +0.010 A 
ATOM     13  C   LIG    1       -2.666  -4.191   6.069  0.00  0.00    +0.510 A 
ATOM     14  N   LIG    1       -3.796  -3.921   6.747  0.00  0.00    -0.500 N 
ATOM     15  C   LIG    1       -4.383  -2.699   6.675  0.00  0.00    +0.310 A 
ATOM     16  C   LIG    1       -4.404  -4.963   7.577  0.00  0.00    +0.320 C 
ATOM     17  O   LIG    1       -2.156  -5.296   6.149  0.00  0.00    -0.530 OA
ATOM     18  C   LIG    1       -3.845  -1.711   5.923  0.00  0.00    -0.070 A 
ENDBRANCH   9  11
ENDBRANCH   4   7
BRANCH   6  19
ATOM     19  S   LIG    1       -0.378   1.414  -0.193  0.00  0.00    +2.700 S 
ATOM     20  O   LIG    1        0.862   2.102  -0.290  0.00  0.00    -0.940 OA
ATOM     21  O   LIG    1       -0.490  -0.001  -0.266  0.00  0.00    -0.950 OA
BRANCH  19  22
ATOM     22  N   LIG    1       -1.345   2.022  -1.392  0.00  0.00    -1.000 NA
ATOM     23  C   LIG    1       -2.541   1.287  -1.812  0.00  0.00    +0.290 C 
ATOM     24  C   LIG    1       -1.004   3.295  -2.033  0.00  0.00    +0.310 C 
ENDBRANCH  19  22
ENDBRANCH   6  19
BRANCH   1  26
ATOM     25  C   LIG    1       -0.774   5.540   1.268  0.00  0.00    +0.250 C 
ATOM     26  O   LIG    1       -0.673   4.178   0.847  0.00  0.00    -0.310 OA
ENDBRANCH   1  26
TORSDOF 5
