REMARK  Name = ZINCpk00000ebNTc.0
REMARK                            x       y       z     vdW  Elec       q    Type
REMARK                         _______ _______ _______ _____ _____    ______ ____
ROOT
ATOM      1  N   LIG    1       -3.361   1.538   1.001  0.00  0.00    -0.990 NA
ATOM      2  C   LIG    1       -4.731   1.472   0.472  0.00  0.00    +0.250 C 
ATOM      3  C   LIG    1       -4.660   1.381  -1.056  0.00  0.00    +0.220 C 
ATOM      4  N   LIG    1       -3.793   0.258  -1.437  0.00  0.00    -0.680 NA
ATOM      5  H   LIG    1       -4.160  -0.615  -1.091  0.00  0.00    +0.340 HD
ATOM      6  C   LIG    1       -2.414   0.470  -0.976  0.00  0.00    +0.230 C 
ATOM      7  C   LIG    1       -2.393   0.523   0.555  0.00  0.00    +0.250 C 
ENDROOT
BRANCH   7   8
ATOM      8  C   LIG    1       -1.013   0.897   1.030  0.00  0.00    -0.070 A 
ATOM      9  C   LIG    1       -0.160   1.593   0.195  0.00  0.00    +0.060 A 
ATOM     10  C   LIG    1        1.109   1.931   0.627  0.00  0.00    +0.050 A 
ATOM     11  C   LIG    1        1.524   1.579   1.897  0.00  0.00    -0.010 A 
ATOM     12  C   LIG    1        0.668   0.887   2.737  0.00  0.00    +0.090 A 
ATOM     13  F   LIG    1        1.072   0.542   3.980  0.00  0.00    -0.150 F 
ATOM     14  C   LIG    1       -0.603   0.549   2.304  0.00  0.00    -0.030 A 
ENDBRANCH   7   8
BRANCH   1  16
ATOM     15  O   LIG    1       -1.541   2.983   1.833  0.00  0.00    -0.940 OA
ATOM     16  S   LIG    1       -2.918   2.723   2.069  0.00  0.00    +2.710 S 
ATOM     17  O   LIG    1       -3.922   3.726   1.994  0.00  0.00    -0.950 OA
BRANCH  16  18
ATOM     18  C   LIG    1       -3.024   2.033   3.687  0.00  0.00    -0.740 A 
ATOM     19  C   LIG    1       -2.011   1.863   4.552  0.00  0.00    +0.410 A 
ATOM     20  N   LIG    1       -2.476   1.296   5.710  0.00  0.00    -0.560 N 
ATOM     21  H   LIG    1       -1.930   1.079   6.481  0.00  0.00    +0.430 HD
ATOM     22  C   LIG    1       -3.825   1.083   5.619  0.00  0.00    +0.320 A 
ATOM     23  N   LIG    1       -4.742   0.574   6.434  0.00  0.00    -0.520 NA
ATOM     24  C   LIG    1       -6.001   0.495   6.057  0.00  0.00    +0.530 A 
ATOM     25  N   LIG    1       -6.417   0.908   4.873  0.00  0.00    -0.520 NA
ATOM     26  C   LIG    1       -5.576   1.429   3.995  0.00  0.00    +0.370 A 
ATOM     27  C   LIG    1       -4.232   1.541   4.347  0.00  0.00    -0.140 A 
ENDBRANCH  16  18
ENDBRANCH   1  16
TORSDOF 3
