REMARK  Name = ZINCrH000004sxBI.0
REMARK                            x       y       z     vdW  Elec       q    Type
REMARK                         _______ _______ _______ _____ _____    ______ ____
ROOT
ATOM      1  C   LIG    1        2.833   3.671   6.452  0.00  0.00    +0.570 C 
ATOM      2  N   LIG    1        3.532   2.948   7.349  0.00  0.00    -0.720 N 
ATOM      3  H   LIG    1        3.475   1.979   7.340  0.00  0.00    +0.400 HD
ATOM      4  O   LIG    1        2.904   4.885   6.463  0.00  0.00    -0.530 OA
ENDROOT
BRANCH   1   7
ATOM      5  C   LIG    1        1.136   5.236   4.718  0.00  0.00    +0.160 C 
ATOM      6  C   LIG    1        1.152   3.733   4.606  0.00  0.00    +0.260 A 
ATOM      7  C   LIG    1        1.982   2.990   5.456  0.00  0.00    -0.240 A 
ATOM      8  C   LIG    1        1.994   1.599   5.350  0.00  0.00    +0.190 A 
ATOM      9  C   LIG    1        1.169   1.009   4.390  0.00  0.00    -0.250 A 
ATOM     10  C   LIG    1        0.908  -0.369   3.983  0.00  0.00    +0.290 A 
ATOM     11  N   LIG    1        0.031  -0.335   3.021  0.00  0.00    -0.230 NA
ATOM     12  N   LIG    1       -0.326   0.987   2.741  0.00  0.00    -0.380 N 
ATOM     13  C   LIG    1        0.366   1.827   3.567  0.00  0.00    +0.340 A 
ATOM     14  N   LIG    1        0.388   3.148   3.713  0.00  0.00    -0.510 NA
BRANCH  12  15
ATOM     15  C   LIG    1       -1.287   1.407   1.718  0.00  0.00    +0.270 C 
ATOM     16  C   LIG    1       -2.655   0.792   2.021  0.00  0.00    +0.050 C 
ATOM     17  C   LIG    1       -0.808   0.935   0.344  0.00  0.00    +0.050 C 
ENDBRANCH  12  15
ENDBRANCH   1   7
BRANCH   2  18
ATOM     18  C   LIG    1        4.376   3.623   8.337  0.00  0.00    +0.230 C 
ATOM     19  C   LIG    1        5.747   3.913   7.723  0.00  0.00    +0.020 C 
BRANCH  18  20
ATOM     20  C   LIG    1        4.546   2.724   9.563  0.00  0.00    +0.030 C 
BRANCH  20  21
ATOM     21  C   LIG    1        3.192   2.536  10.249  0.00  0.00    +0.070 C 
BRANCH  21  22
ATOM     22  C   LIG    1        3.360   1.650  11.457  0.00  0.00    -0.090 A 
ATOM     23  C   LIG    1        3.221   0.280  11.332  0.00  0.00    +0.030 A 
ATOM     24  C   LIG    1        3.379  -0.535  12.437  0.00  0.00    -0.010 A 
ATOM     25  C   LIG    1        3.667   0.023  13.674  0.00  0.00    +0.100 A 
ATOM     26  C   LIG    1        3.800   1.399  13.797  0.00  0.00    -0.010 A 
ATOM     27  C   LIG    1        3.646   2.209  12.689  0.00  0.00    +0.030 A 
BRANCH  25  28
ATOM     28  O   LIG    1        3.817  -0.776  14.763  0.00  0.00    -0.500 OA
ATOM     29  H   LIG    1        2.996  -0.938  15.247  0.00  0.00    +0.390 HD
ENDBRANCH  25  28
ENDBRANCH  21  22
ENDBRANCH  20  21
ENDBRANCH  18  20
ENDBRANCH   2  18
TORSDOF 7
