REMARK  Name = ZINCvU0000000Cze.0
REMARK                            x       y       z     vdW  Elec       q    Type
REMARK                         _______ _______ _______ _____ _____    ______ ____
ROOT
ATOM      1  C   LIG    1        6.098   2.521   1.140  0.00  0.00    +0.080 C 
ATOM      2  C   LIG    1        5.367   3.180  -0.031  0.00  0.00    +0.090 C 
ENDROOT
BRANCH   2   3
ATOM      3  C   LIG    1        3.920   2.760  -0.020  0.00  0.00    +0.460 A 
ATOM      4  N   LIG    1        3.000   3.684  -0.007  0.00  0.00    -0.550 NA
ATOM      5  C   LIG    1        1.694   3.371   0.004  0.00  0.00    +0.540 A 
ATOM      6  C   LIG    1        1.304   1.948   0.000  0.00  0.00    -0.210 A 
ATOM      7  C   LIG    1        2.321   1.012  -0.015  0.00  0.00    +0.060 A 
ATOM      8  S   LIG    1        1.647  -0.611  -0.017  0.00  0.00    +0.210 S 
ATOM      9  C   LIG    1        0.002  -0.004   0.002  0.00  0.00    -0.010 A 
ATOM     10  C   LIG    1       -0.016   1.331   0.009  0.00  0.00    +0.040 A 
ATOM     11  O   LIG    1        0.844   4.248   0.016  0.00  0.00    -0.460 OA
ATOM     12  N   LIG    1        3.628   1.450  -0.025  0.00  0.00    -0.580 N 
ATOM     13  H   LIG    1        4.349   0.801  -0.035  0.00  0.00    +0.420 HD
BRANCH  10  14
ATOM     14  C   LIG    1       -1.268   2.115   0.020  0.00  0.00    +0.040 A 
ATOM     15  C   LIG    1       -2.322   1.947  -0.823  0.00  0.00    -0.030 A 
ATOM     16  C   LIG    1       -3.292   2.902  -0.455  0.00  0.00    -0.070 A 
ATOM     17  C   LIG    1       -2.784   3.603   0.577  0.00  0.00    +0.180 A 
ATOM     18  O   LIG    1       -1.560   3.125   0.861  0.00  0.00    -0.150 OA
ENDBRANCH  10  14
ENDBRANCH   2   3
BRANCH   2  19
ATOM     19  S   LIG    1        5.475   4.984   0.127  0.00  0.00    -0.130 S 
BRANCH  19  20
ATOM     20  C   LIG    1        7.251   5.304  -0.059  0.00  0.00    +0.060 C 
BRANCH  20  21
ATOM     21  C   LIG    1        7.512   6.808   0.052  0.00  0.00    +0.070 C 
BRANCH  21  22
ATOM     22  C   LIG    1        9.010   7.078  -0.104  0.00  0.00    +0.200 C 
BRANCH  22  23
ATOM     23  C   LIG    1        9.267   8.559   0.005  0.00  0.00    +0.190 A 
ATOM     24  N   LIG    1        9.522   9.224   1.103  0.00  0.00    -0.470 NA
ATOM     25  C   LIG    1        9.685  10.512   0.719  0.00  0.00    +0.240 A 
ATOM     26  N   LIG    1        9.513  10.551  -0.580  0.00  0.00    -0.370 NA
ATOM     27  O   LIG    1        9.273   9.439  -1.001  0.00  0.00    +0.090 OA
BRANCH  25  28
ATOM     28  C   LIG    1        9.994  11.658   1.598  0.00  0.00    -0.140 A 
ATOM     29  C   LIG    1       10.152  12.933   1.189  0.00  0.00    +0.060 A 
ATOM     30  C   LIG    1       10.432  13.832   2.196  0.00  0.00    +0.010 A 
ATOM     31  C   LIG    1       10.514  13.302   3.421  0.00  0.00    -0.030 A 
ATOM     32  S   LIG    1       10.220  11.570   3.340  0.00  0.00    +0.190 S 
ENDBRANCH  25  28
ENDBRANCH  22  23
ENDBRANCH  21  22
ENDBRANCH  20  21
ENDBRANCH  19  20
ENDBRANCH   2  19
TORSDOF 8
