REMARK  Name = ZINCnE000001RDa3.0
REMARK                            x       y       z     vdW  Elec       q    Type
REMARK                         _______ _______ _______ _____ _____    ______ ____
ROOT
ATOM      1  N   LIG    1        1.234  -2.084  -0.021  0.00  0.00    -0.260 N 
ATOM      2  C   LIG    1        2.347  -2.867  -0.041  0.00  0.00    +0.140 A 
ATOM      3  C   LIG    1        1.905  -4.146  -0.037  0.00  0.00    +0.030 A 
ATOM      4  N   LIG    1        0.569  -4.088  -0.024  0.00  0.00    -0.240 NA
ATOM      5  N   LIG    1        0.203  -2.855  -0.015  0.00  0.00    -0.090 NA
ENDROOT
BRANCH   1  10
ATOM      6  F   LIG    1        1.152   3.438   0.010  0.00  0.00    -0.120 F 
ATOM      7  C   LIG    1        1.172   2.087   0.002  0.00  0.00    +0.110 A 
ATOM      8  C   LIG    1       -0.017   1.377   0.010  0.00  0.00    +0.040 A 
ATOM      9  C   LIG    1        0.002  -0.004   0.002  0.00  0.00    +0.090 A 
ATOM     10  C   LIG    1        1.214  -0.681  -0.013  0.00  0.00    +0.150 A 
ATOM     11  C   LIG    1        2.405   0.031  -0.021  0.00  0.00    +0.070 A 
ATOM     12  C   LIG    1        2.383   1.413  -0.013  0.00  0.00    -0.050 A 
ATOM     13 CL   LIG    1        3.873   2.304  -0.022  0.00  0.00    -0.030 Cl
ENDBRANCH   1  10
BRANCH   3  14
ATOM     14  C   LIG    1        2.752  -5.393  -0.052  0.00  0.00    +0.300 C 
BRANCH  14  15
ATOM     15  N   LIG    1        2.940  -5.871   1.320  0.00  0.00    -0.630 NA
ATOM     16  C   LIG    1        2.440  -7.027   1.685  0.00  0.00    +0.340 A 
ATOM     17  N   LIG    1        1.723  -7.907   0.925  0.00  0.00    -0.490 NA
ATOM     18  N   LIG    1        1.311  -9.059   1.557  0.00  0.00    -0.210 NA
ATOM     19  C   LIG    1        1.618  -9.233   2.795  0.00  0.00    -0.140 A 
ATOM     20  S   LIG    1        2.549  -7.803   3.277  0.00  0.00    -0.110 S 
BRANCH  19  21
ATOM     21  C   LIG    1        1.264 -10.417   3.659  0.00  0.00    +0.510 C 
ATOM     22  F   LIG    1        2.256 -10.601   4.627  0.00  0.00    -0.200 F 
ATOM     23  F   LIG    1        1.171 -11.564   2.862  0.00  0.00    -0.200 F 
ENDBRANCH  19  21
ENDBRANCH  14  15
ENDBRANCH   3  14
TORSDOF 4
