REMARK  Name = ZINCkj00000y7EFp.0
REMARK                            x       y       z     vdW  Elec       q    Type
REMARK                         _______ _______ _______ _____ _____    ______ ____
ROOT
ATOM      1  S   LIG    1       -0.048  -0.342  -4.275  0.00  0.00    +2.690 S 
ATOM      2  O   LIG    1       -1.370   0.178  -4.286  0.00  0.00    -0.950 OA
ATOM      3  O   LIG    1        0.250  -1.714  -4.498  0.00  0.00    -0.940 OA
ENDROOT
BRANCH   1   7
ATOM      4  C   LIG    1        2.270   1.990  -7.388  0.00  0.00    +0.200 A 
ATOM      5  C   LIG    1        2.693   0.724  -7.012  0.00  0.00    -0.020 A 
ATOM      6  C   LIG    1        1.984   0.014  -6.062  0.00  0.00    +0.170 A 
ATOM      7  C   LIG    1        0.854   0.566  -5.487  0.00  0.00    -0.730 A 
ATOM      8  C   LIG    1        0.428   1.825  -5.864  0.00  0.00    +0.160 A 
ATOM      9  C   LIG    1        1.136   2.541  -6.809  0.00  0.00    -0.090 A 
BRANCH   4  10
ATOM     10  O   LIG    1        2.966   2.691  -8.322  0.00  0.00    -0.310 OA
BRANCH  10  12
ATOM     11  C   LIG    1        3.380   4.618  -9.720  0.00  0.00    +0.070 C 
ATOM     12  C   LIG    1        2.473   3.989  -8.661  0.00  0.00    +0.190 C 
ENDBRANCH  10  12
ENDBRANCH   4  10
ENDBRANCH   1   7
BRANCH   1  13
ATOM     13  N   LIG    1        0.593   0.042  -2.797  0.00  0.00    -1.120 NA
ATOM     14  H   LIG    1        1.042  -0.639  -2.272  0.00  0.00    +0.420 HD
BRANCH  13  15
ATOM     15  C   LIG    1        0.483   1.409  -2.284  0.00  0.00    +0.280 C 
ATOM     16  C   LIG    1       -0.650   1.515  -1.233  0.00  0.00    +0.280 C 
ATOM     17  N   LIG    1       -0.012   1.005   0.008  0.00  0.00    -0.400 N 
ATOM     18  C   LIG    1        1.370   1.534  -0.003  0.00  0.00    +0.270 C 
ATOM     19  C   LIG    1       -0.733   1.496   1.189  0.00  0.00    +0.320 C 
ATOM     20  H   LIG    1        0.002  -0.004   0.002  0.00  0.00    +0.430 HD
ATOM     21  C   LIG    1        1.743   1.793  -1.474  0.00  0.00    +0.020 C 
ATOM     22  C   LIG    1        2.926   0.914  -1.885  0.00  0.00    +0.070 C 
ENDBRANCH  13  15
ENDBRANCH   1  13
TORSDOF 5
