REMARK  Name = ZINCkj00000y7EFp.1
REMARK                            x       y       z     vdW  Elec       q    Type
REMARK                         _______ _______ _______ _____ _____    ______ ____
ROOT
ATOM      1  S   LIG    1       -0.139   2.361   4.730  0.00  0.00    +2.690 S 
ATOM      2  O   LIG    1       -1.405   1.745   4.534  0.00  0.00    -0.950 OA
ATOM      3  O   LIG    1        0.023   3.612   5.385  0.00  0.00    -0.940 OA
ENDROOT
BRANCH   1   7
ATOM      4  C   LIG    1        2.396  -0.617   7.012  0.00  0.00    +0.200 A 
ATOM      5  C   LIG    1        2.693   0.738   7.070  0.00  0.00    -0.020 A 
ATOM      6  C   LIG    1        1.918   1.644   6.373  0.00  0.00    +0.170 A 
ATOM      7  C   LIG    1        0.847   1.203   5.618  0.00  0.00    -0.730 A 
ATOM      8  C   LIG    1        0.546  -0.145   5.562  0.00  0.00    +0.150 A 
ATOM      9  C   LIG    1        1.321  -1.057   6.253  0.00  0.00    -0.090 A 
BRANCH   4  10
ATOM     10  O   LIG    1        3.157  -1.510   7.697  0.00  0.00    -0.310 OA
BRANCH  10  12
ATOM     11  C   LIG    1        3.758  -3.736   8.423  0.00  0.00    +0.070 C 
ATOM     12  C   LIG    1        2.793  -2.888   7.590  0.00  0.00    +0.190 C 
ENDBRANCH  10  12
ENDBRANCH   4  10
ENDBRANCH   1   7
BRANCH   1  13
ATOM     13  N   LIG    1        0.536   2.530   3.227  0.00  0.00    -1.110 NA
ATOM     14  H   LIG    1        0.915   3.381   2.958  0.00  0.00    +0.430 HD
BRANCH  13  15
ATOM     15  C   LIG    1        0.560   1.393   2.303  0.00  0.00    +0.260 C 
ATOM     16  C   LIG    1       -0.590   1.510   1.279  0.00  0.00    +0.260 C 
ATOM     17  N   LIG    1       -0.012   1.005   0.008  0.00  0.00    -0.400 N 
ATOM     18  C   LIG    1        1.373   1.543  -0.003  0.00  0.00    +0.280 C 
ATOM     19  C   LIG    1       -0.770   1.515  -1.143  0.00  0.00    +0.340 C 
ATOM     20  H   LIG    1        0.002  -0.004   0.002  0.00  0.00    +0.430 HD
ATOM     21  C   LIG    1        1.851   1.415   1.460  0.00  0.00    +0.000 C 
ATOM     22  C   LIG    1        2.718   2.616   1.842  0.00  0.00    +0.080 C 
ENDBRANCH  13  15
ENDBRANCH   1  13
TORSDOF 5
