REMARK  Name = ZINCqH00000098RT.0
REMARK                            x       y       z     vdW  Elec       q    Type
REMARK                         _______ _______ _______ _____ _____    ______ ____
ROOT
ATOM      1  C   LIG    1        0.002  -0.004   0.002  0.00  0.00    +0.240 A 
ATOM      2  N   LIG    1        1.261  -0.389  -0.012  0.00  0.00    -0.530 NA
ATOM      3  C   LIG    1        2.058   0.680  -0.014  0.00  0.00    +0.270 A 
ATOM      4  N   LIG    1        1.326   1.762  -0.001  0.00  0.00    -0.300 NA
ATOM      5  N   LIG    1       -0.016   1.350   0.009  0.00  0.00    -0.310 N 
ENDROOT
BRANCH   5   6
ATOM      6  C   LIG    1       -1.149   2.175   0.020  0.00  0.00    +0.140 A 
ATOM      7  C   LIG    1       -2.292   1.795  -0.671  0.00  0.00    +0.020 A 
ATOM      8  C   LIG    1       -3.409   2.608  -0.654  0.00  0.00    +0.050 A 
ATOM      9  C   LIG    1       -3.385   3.804   0.040  0.00  0.00    +0.020 A 
ATOM     10  C   LIG    1       -2.246   4.188   0.723  0.00  0.00    +0.040 A 
ATOM     11  C   LIG    1       -1.128   3.376   0.715  0.00  0.00    +0.030 A 
ENDBRANCH   5   6
BRANCH   3  12
ATOM     12  C   LIG    1        3.565   0.646  -0.029  0.00  0.00    +0.050 C 
ATOM     13  C   LIG    1        4.238  -0.711  -0.249  0.00  0.00    +0.060 C 
ATOM     14  C   LIG    1        4.267  -0.057   1.135  0.00  0.00    +0.060 C 
ENDBRANCH   3  12
BRANCH   1  15
ATOM     15  S   LIG    1       -1.407  -1.062   0.010  0.00  0.00    +0.110 S 
BRANCH  15  16
ATOM     16  C   LIG    1       -0.589  -2.676  -0.007  0.00  0.00    +0.100 C 
BRANCH  16  19
ATOM     17  N   LIG    1       -1.249  -5.060  -0.013  0.00  0.00    -0.720 N 
ATOM     18  H   LIG    1       -0.306  -5.288  -0.023  0.00  0.00    +0.410 HD
ATOM     19  C   LIG    1       -1.629  -3.767  -0.003  0.00  0.00    +0.540 C 
ATOM     20  O   LIG    1       -2.807  -3.481   0.010  0.00  0.00    -0.520 OA
BRANCH  17  22
ATOM     21  C   LIG    1       -2.717  -6.395  -1.443  0.00  0.00    +0.040 C 
ATOM     22  C   LIG    1       -2.260  -6.120  -0.009  0.00  0.00    +0.350 C 
BRANCH  22  23
ATOM     23  C   LIG    1       -1.669  -7.375   0.579  0.00  0.00    -0.030 A 
ATOM     24  C   LIG    1       -2.297  -8.225   1.412  0.00  0.00    -0.040 A 
ATOM     25  C   LIG    1       -1.379  -9.257   1.712  0.00  0.00    -0.060 A 
ATOM     26  C   LIG    1       -0.245  -8.977   1.045  0.00  0.00    +0.180 A 
ATOM     27  O   LIG    1       -0.428  -7.839   0.356  0.00  0.00    -0.170 OA
ENDBRANCH  22  23
ENDBRANCH  17  22
ENDBRANCH  16  19
ENDBRANCH  15  16
ENDBRANCH   1  15
TORSDOF 7
