REMARK  Name = ZINCrg00000fSsyZ.0
REMARK                            x       y       z     vdW  Elec       q    Type
REMARK                         _______ _______ _______ _____ _____    ______ ____
ROOT
ATOM      1  C   LIG    1        4.166  -0.449  -0.042  0.00  0.00    +0.360 C 
ENDROOT
BRANCH   1   2
ATOM      2  C   LIG    1        4.200  -1.979  -0.051  0.00  0.00    +0.210 C 
ATOM      3  N   LIG    1        3.497  -2.506  -1.232  0.00  0.00    -0.720 N 
ATOM      4  H   LIG    1        3.728  -2.352  -2.162  0.00  0.00    +0.450 HD
ATOM      5  C   LIG    1        2.470  -3.244  -0.772  0.00  0.00    +0.700 C 
ATOM      6  N   LIG    1        2.415  -3.264   0.565  0.00  0.00    -0.690 N 
ATOM      7  H   LIG    1        1.744  -3.744   1.075  0.00  0.00    +0.440 HD
ATOM      8  O   LIG    1        1.681  -3.826  -1.490  0.00  0.00    -0.520 OA
ATOM      9  C   LIG    1        3.408  -2.537   1.115  0.00  0.00    +0.530 C 
ATOM     10  O   LIG    1        3.622  -2.365   2.295  0.00  0.00    -0.420 OA
BRANCH   2  16
ATOM     11  C   LIG    1        5.127  -4.928  -0.260  0.00  0.00    +0.320 C 
ATOM     12  N   LIG    1        6.008  -3.767  -0.108  0.00  0.00    -0.440 N 
ATOM     13  C   LIG    1        7.374  -3.788  -0.034  0.00  0.00    +0.160 A 
ATOM     14  C   LIG    1        7.777  -2.510   0.102  0.00  0.00    +0.160 A 
ATOM     15  N   LIG    1        6.686  -1.729   0.106  0.00  0.00    -0.450 NA
ATOM     16  C   LIG    1        5.623  -2.476  -0.015  0.00  0.00    +0.180 A 
ENDBRANCH   2  16
ENDBRANCH   1   2
BRANCH   1  17
ATOM     17  N   LIG    1        2.774   0.008  -0.025  0.00  0.00    -0.740 N 
ATOM     18  H   LIG    1        2.051  -0.639  -0.022  0.00  0.00    +0.390 HD
ATOM     19  C   LIG    1        2.498   1.327  -0.015  0.00  0.00    +0.590 C 
ATOM     20  O   LIG    1        3.405   2.138  -0.019  0.00  0.00    -0.500 OA
BRANCH  19  21
ATOM     21  C   LIG    1        1.101   1.786   0.001  0.00  0.00    +0.010 A 
ATOM     22  C   LIG    1        0.699   3.083   0.012  0.00  0.00    +0.070 A 
ATOM     23  C   LIG    1       -0.717   3.095   0.026  0.00  0.00    -0.120 A 
ATOM     24  C   LIG    1       -1.670   4.122   0.040  0.00  0.00    +0.100 A 
ATOM     25  C   LIG    1       -2.999   3.814   0.051  0.00  0.00    +0.000 A 
ATOM     26  C   LIG    1       -3.419   2.489   0.047  0.00  0.00    +0.000 A 
ATOM     27  C   LIG    1       -2.501   1.462   0.033  0.00  0.00    +0.000 A 
ATOM     28 CL   LIG    1       -5.117   2.125   0.060  0.00  0.00    -0.060 Cl
ATOM     29  C   LIG    1       -1.140   1.751   0.016  0.00  0.00    +0.130 A 
ATOM     30  N   LIG    1       -0.011   0.966   0.007  0.00  0.00    -0.580 N 
ATOM     31  H   LIG    1        0.002  -0.004   0.002  0.00  0.00    +0.420 HD
ENDBRANCH  19  21
ENDBRANCH   1  17
TORSDOF 4
