REMARK  Name = ZINCpe00000MJKvM.0
REMARK                            x       y       z     vdW  Elec       q    Type
REMARK                         _______ _______ _______ _____ _____    ______ ____
ROOT
ATOM      1  C   LIG    1        0.058  -0.081  -0.042  0.00  0.00    +0.180 C 
ATOM      2  C   LIG    1       -1.388  -0.575  -0.126  0.00  0.00    +0.070 C 
ENDROOT
BRANCH   1   3
ATOM      3  N   LIG    1        0.074   1.387  -0.022  0.00  0.00    -0.510 NA
ATOM      4  C   LIG    1        1.434   1.897   0.210  0.00  0.00    +0.150 C 
ATOM      5  C   LIG    1        1.414   3.427   0.164  0.00  0.00    +0.250 C 
ATOM      6  O   LIG    1        0.481   3.916   1.131  0.00  0.00    -0.390 OA
ATOM      7  C   LIG    1       -0.853   3.440   0.935  0.00  0.00    +0.290 C 
ATOM      8  C   LIG    1       -0.857   1.910   0.989  0.00  0.00    +0.200 C 
BRANCH   7   9
ATOM      9  C   LIG    1       -1.746   3.985   2.021  0.00  0.00    +0.190 A 
ATOM     10  N   LIG    1       -3.004   3.692   2.207  0.00  0.00    -0.280 NA
ATOM     11  N   LIG    1       -3.452   4.335   3.227  0.00  0.00    -0.290 NA
ATOM     12  C   LIG    1       -2.502   5.075   3.731  0.00  0.00    +0.180 A 
ATOM     13  C   LIG    1       -2.618   5.984   4.928  0.00  0.00    +0.200 C 
ATOM     14  N   LIG    1       -1.392   4.874   2.981  0.00  0.00    -0.560 N 
ATOM     15  H   LIG    1       -0.522   5.283   3.105  0.00  0.00    +0.430 HD
ENDBRANCH   7   9
ENDBRANCH   1   3
BRANCH   1  17
ATOM     16  N   LIG    1        1.317  -1.805   1.209  0.00  0.00    -0.610 N 
ATOM     17  C   LIG    1        0.696  -0.608   1.218  0.00  0.00    +0.490 C 
ATOM     18  O   LIG    1        0.651   0.045   2.239  0.00  0.00    -0.520 OA
ATOM     19  C   LIG    1        1.269  -2.646   0.011  0.00  0.00    +0.280 C 
BRANCH  16  20
ATOM     20  C   LIG    1        2.038  -2.264   2.399  0.00  0.00    +0.390 C 
BRANCH  20  24
ATOM     21  C   LIG    1       -0.589  -5.957   4.717  0.00  0.00    +0.180 C 
ATOM     22  C   LIG    1       -0.017  -4.636   4.269  0.00  0.00    -0.030 A 
ATOM     23  C   LIG    1        0.924  -4.442   3.314  0.00  0.00    -0.060 A 
ATOM     24  C   LIG    1        1.099  -3.040   3.287  0.00  0.00    -0.010 A 
ATOM     25  N   LIG    1        0.294  -2.551   4.185  0.00  0.00    -0.340 NA
ATOM     26  O   LIG    1       -0.338  -3.422   4.737  0.00  0.00    +0.100 OA
ENDBRANCH  20  24
ENDBRANCH  16  20
ENDBRANCH   1  17
TORSDOF 5
