REMARK  Name = ZINCpe00000MJKvM.1
REMARK                            x       y       z     vdW  Elec       q    Type
REMARK                         _______ _______ _______ _____ _____    ______ ____
ROOT
ATOM      1  C   LIG    1        3.926   5.825  -2.735  0.00  0.00    +0.180 C 
ATOM      2  C   LIG    1        4.927   4.761  -3.191  0.00  0.00    +0.020 C 
ENDROOT
BRANCH   1   3
ATOM      3  N   LIG    1        3.545   5.573  -1.339  0.00  0.00    -0.510 NA
ATOM      4  C   LIG    1        4.723   5.598  -0.459  0.00  0.00    +0.160 C 
ATOM      5  C   LIG    1        4.275   5.391   0.990  0.00  0.00    +0.240 C 
ATOM      6  O   LIG    1        3.550   4.163   1.089  0.00  0.00    -0.370 OA
ATOM      7  C   LIG    1        2.396   4.105   0.246  0.00  0.00    +0.290 C 
ATOM      8  C   LIG    1        2.825   4.298  -1.210  0.00  0.00    +0.170 C 
BRANCH   7   9
ATOM      9  C   LIG    1        1.727   2.764   0.400  0.00  0.00    +0.230 A 
ATOM     10  N   LIG    1        2.337   1.608   0.416  0.00  0.00    -0.290 NA
ATOM     11  N   LIG    1        1.345   0.627   0.577  0.00  0.00    -0.480 N 
ATOM     12  H   LIG    1        1.478  -0.332   0.626  0.00  0.00    +0.440 HD
ATOM     13  C   LIG    1        0.172   1.282   0.644  0.00  0.00    +0.290 A 
ATOM     14  C   LIG    1       -1.186   0.651   0.811  0.00  0.00    +0.190 C 
ATOM     15  N   LIG    1        0.417   2.563   0.541  0.00  0.00    -0.530 NA
ENDBRANCH   7   9
ENDBRANCH   1   3
BRANCH   1  17
ATOM     16  N   LIG    1        4.897   7.678  -4.055  0.00  0.00    -0.610 N 
ATOM     17  C   LIG    1        4.558   7.189  -2.846  0.00  0.00    +0.520 C 
ATOM     18  O   LIG    1        4.760   7.846  -1.847  0.00  0.00    -0.500 OA
ATOM     19  C   LIG    1        4.547   6.937  -5.270  0.00  0.00    +0.280 C 
BRANCH  16  20
ATOM     20  C   LIG    1        5.617   8.950  -4.155  0.00  0.00    +0.390 C 
BRANCH  20  24
ATOM     21  C   LIG    1       10.475   8.113  -5.419  0.00  0.00    +0.180 C 
ATOM     22  C   LIG    1        9.178   8.334  -4.684  0.00  0.00    -0.030 A 
ATOM     23  C   LIG    1        7.959   8.544  -5.236  0.00  0.00    -0.060 A 
ATOM     24  C   LIG    1        7.101   8.691  -4.123  0.00  0.00    -0.010 A 
ATOM     25  N   LIG    1        7.846   8.553  -3.064  0.00  0.00    -0.340 NA
ATOM     26  O   LIG    1        9.002   8.354  -3.356  0.00  0.00    +0.100 OA
ENDBRANCH  20  24
ENDBRANCH  16  20
ENDBRANCH   1  17
TORSDOF 5
