REMARK  Name = ZINCqH0000007aYP.2
REMARK                            x       y       z     vdW  Elec       q    Type
REMARK                         _______ _______ _______ _____ _____    ______ ____
ROOT
ATOM      1  N   LIG    1        4.797   7.235   1.902  0.00  0.00    -0.520 NA
ATOM      2  C   LIG    1        5.996   6.398   1.889  0.00  0.00    +0.170 C 
ATOM      3  C   LIG    1        5.752   4.990   1.520  0.00  0.00    +0.010 C 
ATOM      4  C   LIG    1        5.194   4.917   0.077  0.00  0.00    +0.260 C 
ATOM      5  N   LIG    1        3.852   5.457   0.049  0.00  0.00    -0.600 N 
ATOM      6  C   LIG    1        3.568   6.888  -0.187  0.00  0.00    +0.300 C 
ATOM      7  C   LIG    1        2.816   4.618   0.243  0.00  0.00    +0.710 C 
ATOM      8  N   LIG    1        3.041   3.306   0.456  0.00  0.00    -0.690 N 
ATOM      9  H   LIG    1        3.950   2.978   0.540  0.00  0.00    +0.400 HD
ATOM     10  O   LIG    1        1.677   5.044   0.225  0.00  0.00    -0.570 OA
ATOM     11  C   LIG    1        4.550   7.792   0.589  0.00  0.00    +0.170 C 
ENDROOT
BRANCH   8  12
ATOM     12  C   LIG    1        1.964   2.418   0.554  0.00  0.00    +0.160 A 
ATOM     13  C   LIG    1        0.807   2.643  -0.179  0.00  0.00    +0.020 A 
ATOM     14  C   LIG    1       -0.254   1.765  -0.079  0.00  0.00    +0.020 A 
ATOM     15  C   LIG    1       -0.167   0.665   0.754  0.00  0.00    -0.110 A 
ATOM     16  C   LIG    1        0.986   0.435   1.482  0.00  0.00    +0.020 A 
ATOM     17  C   LIG    1       -1.329  -0.287   0.866  0.00  0.00    +0.090 C 
ATOM     18  C   LIG    1        2.051   1.310   1.386  0.00  0.00    -0.030 A 
ENDBRANCH   8  12
BRANCH   1  19
ATOM     19  C   LIG    1        4.907   8.296   2.912  0.00  0.00    +0.270 C 
BRANCH  19  23
ATOM     20  C   LIG    1        8.031  10.995   1.808  0.00  0.00    +0.130 A 
ATOM     21  C   LIG    1        6.721  11.261   1.438  0.00  0.00    -0.020 A 
ATOM     22  C   LIG    1        5.712  10.387   1.796  0.00  0.00    +0.060 A 
ATOM     23  C   LIG    1        6.009   9.248   2.523  0.00  0.00    -0.160 A 
ATOM     24  C   LIG    1        7.313   8.984   2.897  0.00  0.00    +0.050 A 
ATOM     25  C   LIG    1        8.325   9.852   2.537  0.00  0.00    -0.080 A 
BRANCH  20  27
ATOM     26  C   LIG    1       10.350  11.517   1.872  0.00  0.00    +0.250 C 
ATOM     27  O   LIG    1        9.024  11.854   1.457  0.00  0.00    -0.320 OA
ENDBRANCH  20  27
ENDBRANCH  19  23
ENDBRANCH   1  19
TORSDOF 4
