REMARK  Name = ZINCrD00000l6uKo.0
REMARK                            x       y       z     vdW  Elec       q    Type
REMARK                         _______ _______ _______ _____ _____    ______ ____
ROOT
ATOM      1  C   LIG    1       -0.162   1.194   4.764  0.00  0.00    -0.110 A 
ATOM      2  C   LIG    1        0.977   0.411   4.735  0.00  0.00    +0.250 A 
ATOM      3  N   LIG    1        1.515   0.042   3.588  0.00  0.00    -0.450 NA
ATOM      4  C   LIG    1        0.991   0.392   2.431  0.00  0.00    +0.190 A 
ATOM      5  C   LIG    1       -0.149   1.182   2.380  0.00  0.00    +0.080 A 
ATOM      6  C   LIG    1       -0.741   1.591   3.570  0.00  0.00    +0.070 A 
ENDROOT
BRANCH   1   7
ATOM      7  C   LIG    1       -0.766   1.610   6.081  0.00  0.00    +0.300 C 
BRANCH   7   8
ATOM      8  O   LIG    1       -1.735   0.615   6.504  0.00  0.00    -0.350 OA
BRANCH   8  10
ATOM      9  O   LIG    1       -2.122   1.831   8.309  0.00  0.00    -0.490 OA
ATOM     10  C   LIG    1       -2.369   0.838   7.667  0.00  0.00    +0.450 C 
BRANCH  10  11
ATOM     11  C   LIG    1       -3.388  -0.151   8.171  0.00  0.00    +0.390 C 
BRANCH  11  12
ATOM     12  N   LIG    1       -3.931   0.316   9.448  0.00  0.00    -0.480 N 
ATOM     13  C   LIG    1       -5.031   1.113   9.459  0.00  0.00    +0.350 A 
ATOM     14  C   LIG    1       -5.551   1.557  10.627  0.00  0.00    -0.200 A 
ATOM     15  C   LIG    1       -4.954   1.194  11.843  0.00  0.00    +0.150 A 
ATOM     16  C   LIG    1       -3.850   0.393  11.830  0.00  0.00    -0.060 A 
ATOM     17 BR   LIG    1       -7.082   2.667  10.620  0.00  0.00    -0.020 Br
ATOM     18  C   LIG    1       -3.338  -0.054  10.599  0.00  0.00    +0.520 A 
ATOM     19  O   LIG    1       -2.354  -0.775  10.574  0.00  0.00    -0.530 OA
ENDBRANCH  11  12
ENDBRANCH  10  11
ENDBRANCH   8  10
ENDBRANCH   7   8
ENDBRANCH   1   7
BRANCH   5  20
ATOM     20  O   LIG    1       -0.682   1.547   1.184  0.00  0.00    -0.300 OA
BRANCH  20  21
ATOM     21  C   LIG    1       -0.013   1.086   0.008  0.00  0.00    +0.260 C 
BRANCH  21  22
ATOM     22  C   LIG    1       -0.742   1.585  -1.213  0.00  0.00    -0.100 A 
ATOM     23  C   LIG    1       -1.750   0.825  -1.775  0.00  0.00    +0.030 A 
ATOM     24  C   LIG    1       -2.422   1.285  -2.892  0.00  0.00    +0.010 A 
ATOM     25  C   LIG    1       -2.078   2.501  -3.453  0.00  0.00    +0.020 A 
ATOM     26  C   LIG    1       -1.066   3.259  -2.894  0.00  0.00    +0.010 A 
ATOM     27  C   LIG    1       -0.398   2.801  -1.774  0.00  0.00    +0.030 A 
ENDBRANCH  21  22
ENDBRANCH  20  21
ENDBRANCH   5  20
TORSDOF 8
