REMARK  Name = ZINCrD000000Cq09.0
REMARK                            x       y       z     vdW  Elec       q    Type
REMARK                         _______ _______ _______ _____ _____    ______ ____
ROOT
ATOM      1  O   LIG    1        5.722   3.907   1.772  0.00  0.00    -0.490 OA
ATOM      2  C   LIG    1        4.930   4.819   1.904  0.00  0.00    +0.510 C 
ENDROOT
BRANCH   2   3
ATOM      3  C   LIG    1        3.524   4.643   1.486  0.00  0.00    -0.090 A 
ATOM      4  C   LIG    1        2.612   5.690   1.635  0.00  0.00    +0.050 A 
ATOM      5  C   LIG    1        1.300   5.523   1.243  0.00  0.00    +0.040 A 
ATOM      6  C   LIG    1        0.884   4.323   0.697  0.00  0.00    +0.030 A 
ATOM      7  C   LIG    1        1.782   3.273   0.548  0.00  0.00    +0.200 A 
ATOM      8  C   LIG    1        3.103   3.430   0.939  0.00  0.00    +0.040 A 
BRANCH   7   9
ATOM      9  N   LIG    1        1.355   2.061   0.000  0.00  0.00    -0.930 N 
ATOM     10  C   LIG    1       -0.019   1.536   0.011  0.00  0.00    +0.260 C 
ATOM     11  C   LIG    1        0.002  -0.004   0.002  0.00  0.00    +0.090 C 
ATOM     12  C   LIG    1        1.059  -0.368  -1.080  0.00  0.00    -0.290 C 
ATOM     13  S   LIG    1        2.311   0.941  -0.788  0.00  0.00    +2.560 S 
ATOM     14  O   LIG    1        2.692   1.569  -2.005  0.00  0.00    -0.940 OA
ATOM     15  O   LIG    1        3.272   0.530   0.175  0.00  0.00    -0.940 OA
ENDBRANCH   7   9
ENDBRANCH   2   3
BRANCH   2  16
ATOM     16  O   LIG    1        5.334   5.991   2.431  0.00  0.00    -0.350 OA
BRANCH  16  17
ATOM     17  C   LIG    1        6.730   6.092   2.820  0.00  0.00    +0.350 C 
BRANCH  17  18
ATOM     18  C   LIG    1        6.995   7.464   3.385  0.00  0.00    +0.020 A 
ATOM     19  N   LIG    1        8.133   7.914   3.835  0.00  0.00    -0.350 NA
ATOM     20  O   LIG    1        8.046   9.054   4.227  0.00  0.00    +0.120 OA
ATOM     21  C   LIG    1        6.795   9.528   4.084  0.00  0.00    +0.050 A 
ATOM     22  C   LIG    1        6.064   8.511   3.524  0.00  0.00    -0.020 A 
BRANCH  21  23
ATOM     23  C   LIG    1        6.310  10.868   4.449  0.00  0.00    -0.150 A 
ATOM     24  C   LIG    1        7.066  11.855   5.004  0.00  0.00    +0.060 A 
ATOM     25  C   LIG    1        6.384  13.025   5.252  0.00  0.00    +0.010 A 
ATOM     26  C   LIG    1        5.088  13.009   4.920  0.00  0.00    -0.030 A 
ATOM     27  S   LIG    1        4.661  11.444   4.243  0.00  0.00    +0.170 S 
ENDBRANCH  21  23
ENDBRANCH  17  18
ENDBRANCH  16  17
ENDBRANCH   2  16
TORSDOF 6
