REMARK  Name = ZINCqH0000050kpN.0
REMARK                            x       y       z     vdW  Elec       q    Type
REMARK                         _______ _______ _______ _____ _____    ______ ____
ROOT
ATOM      1  N   LIG    1        3.915  -2.178  -0.050  0.00  0.00    -0.600 N 
ATOM      2  C   LIG    1        3.720  -0.844  -0.031  0.00  0.00    +0.530 C 
ATOM      3  O   LIG    1        4.672  -0.092  -0.027  0.00  0.00    -0.510 OA
ATOM      4  C   LIG    1        2.766  -3.086  -0.054  0.00  0.00    +0.300 C 
ENDROOT
BRANCH   1   5
ATOM      5  C   LIG    1        5.277  -2.719  -0.066  0.00  0.00    +0.340 C 
BRANCH   5   8
ATOM      6  N   LIG    1        6.986  -3.416   1.581  0.00  0.00    -0.670 N 
ATOM      7  H   LIG    1        7.536  -3.714   0.840  0.00  0.00    +0.410 HD
ATOM      8  C   LIG    1        5.753  -2.923   1.349  0.00  0.00    +0.490 C 
ATOM      9  O   LIG    1        5.026  -2.644   2.280  0.00  0.00    -0.510 OA
BRANCH   6  15
ATOM     10  C   LIG    1        6.916  -1.814   6.229  0.00  0.00    +0.100 C 
ATOM     11  C   LIG    1        7.456  -2.733   5.163  0.00  0.00    -0.070 A 
ATOM     12  C   LIG    1        8.433  -3.658   5.480  0.00  0.00    -0.010 A 
ATOM     13  C   LIG    1        8.931  -4.504   4.505  0.00  0.00    +0.030 A 
ATOM     14  C   LIG    1        8.449  -4.430   3.213  0.00  0.00    -0.120 A 
ATOM     15  C   LIG    1        7.472  -3.498   2.891  0.00  0.00    +0.150 A 
ATOM     16  C   LIG    1        8.988  -5.356   2.153  0.00  0.00    +0.090 C 
ATOM     17  C   LIG    1        6.974  -2.650   3.872  0.00  0.00    +0.010 A 
ENDBRANCH   6  15
ENDBRANCH   5   8
ENDBRANCH   1   5
BRANCH   2  18
ATOM     18  C   LIG    1        2.320  -0.287  -0.014  0.00  0.00    +0.240 C 
BRANCH  18  19
ATOM     19  O   LIG    1        2.375   1.140   0.004  0.00  0.00    -0.280 OA
BRANCH  19  20
ATOM     20  C   LIG    1        1.189   1.804   0.020  0.00  0.00    +0.130 A 
ATOM     21  C   LIG    1       -0.003   1.095   0.019  0.00  0.00    -0.060 A 
ATOM     22  C   LIG    1       -1.208   1.771   0.030  0.00  0.00    +0.070 A 
ATOM     23  C   LIG    1       -1.226   3.154   0.053  0.00  0.00    -0.070 A 
ATOM     24  C   LIG    1       -0.037   3.863   0.055  0.00  0.00    +0.070 A 
ATOM     25 CL   LIG    1       -2.741   4.001   0.074  0.00  0.00    -0.070 Cl
ATOM     26  C   LIG    1        1.169   3.191   0.038  0.00  0.00    -0.100 A 
ATOM     27  C   LIG    1        2.463   3.964   0.039  0.00  0.00    +0.110 C 
ENDBRANCH  19  20
ENDBRANCH  18  19
ENDBRANCH   2  18
TORSDOF 6
