REMARK  Name = ZINCrD000000AMhe.0
REMARK                            x       y       z     vdW  Elec       q    Type
REMARK                         _______ _______ _______ _____ _____    ______ ____
ROOT
ATOM      1  C   LIG    1        3.965  -0.947   3.374  0.00  0.00    -0.010 C 
ATOM      2  C   LIG    1        3.433  -1.528   2.063  0.00  0.00    +0.060 C 
ATOM      3  C   LIG    1        2.315  -0.628   1.526  0.00  0.00    +0.290 C 
ATOM      4  N   LIG    1        2.826   0.745   1.415  0.00  0.00    -0.990 NA
ATOM      5  C   LIG    1        3.447   1.365   2.592  0.00  0.00    +0.300 C 
ATOM      6  C   LIG    1        4.547   0.445   3.118  0.00  0.00    +0.040 C 
ENDROOT
BRANCH   1   8
ATOM      7  O   LIG    1        5.353  -2.855   3.323  0.00  0.00    -0.530 OA
ATOM      8  C   LIG    1        5.042  -1.848   3.922  0.00  0.00    +0.520 C 
ATOM      9  N   LIG    1        5.660  -1.534   5.078  0.00  0.00    -0.730 N 
ATOM     10  H   LIG    1        5.411  -0.728   5.558  0.00  0.00    +0.400 HD
BRANCH   9  11
ATOM     11  C   LIG    1        6.706  -2.409   5.611  0.00  0.00    +0.240 C 
ATOM     12  C   LIG    1        6.065  -3.532   6.429  0.00  0.00    -0.010 C 
ATOM     13  C   LIG    1        7.085  -4.651   6.648  0.00  0.00    +0.010 C 
ATOM     14  C   LIG    1        7.829  -4.928   5.340  0.00  0.00    +0.010 C 
ATOM     15  C   LIG    1        9.295  -4.518   5.490  0.00  0.00    +0.000 C 
ATOM     16  C   LIG    1        9.407  -2.993   5.418  0.00  0.00    +0.000 C 
ATOM     17  C   LIG    1        8.935  -2.384   6.740  0.00  0.00    +0.020 C 
ATOM     18  C   LIG    1        7.644  -1.597   6.507  0.00  0.00    +0.010 C 
ENDBRANCH   9  11
ENDBRANCH   1   8
BRANCH   4  19
ATOM     19  S   LIG    1        2.711   1.574  -0.014  0.00  0.00    +2.690 S 
ATOM     20  O   LIG    1        3.725   2.568   0.016  0.00  0.00    -0.950 OA
ATOM     21  O   LIG    1        2.612   0.595  -1.040  0.00  0.00    -0.930 OA
BRANCH  19  22
ATOM     22  C   LIG    1        1.172   2.432   0.004  0.00  0.00    -0.720 A 
ATOM     23  C   LIG    1        1.141   3.818   0.011  0.00  0.00    +0.200 A 
ATOM     24  C   LIG    1       -0.092   4.451   0.026  0.00  0.00    -0.030 A 
ATOM     25  C   LIG    1       -1.243   3.686   0.033  0.00  0.00    +0.350 A 
ATOM     26  N   LIG    1       -1.177   2.369   0.021  0.00  0.00    -0.490 NA
ATOM     27  C   LIG    1       -0.021   1.732   0.012  0.00  0.00    +0.260 A 
ATOM     28 CL   LIG    1        0.002  -0.004   0.002  0.00  0.00    +0.000 Cl
ENDBRANCH  19  22
ENDBRANCH   4  19
TORSDOF 4
