REMARK  Name = ZINCqH0000007jJc.0
REMARK                            x       y       z     vdW  Elec       q    Type
REMARK                         _______ _______ _______ _____ _____    ______ ____
ROOT
ATOM      1  N   LIG    1       -4.082   0.024   1.692  0.00  0.00    -0.660 N 
ATOM      2  H   LIG    1       -4.668  -0.229   0.962  0.00  0.00    +0.420 HD
ATOM      3  C   LIG    1       -2.943   0.698   1.440  0.00  0.00    +0.510 C 
ATOM      4  O   LIG    1       -2.261   1.102   2.359  0.00  0.00    -0.510 OA
ENDROOT
BRANCH   1  10
ATOM      5  C   LIG    1       -5.753  -0.529   3.355  0.00  0.00    +0.090 A 
ATOM      6  C   LIG    1       -6.085  -0.862   4.658  0.00  0.00    -0.030 A 
ATOM      7  C   LIG    1       -5.096  -0.979   5.617  0.00  0.00    +0.040 A 
ATOM      8  C   LIG    1       -3.767  -0.764   5.277  0.00  0.00    +0.130 A 
ATOM      9  C   LIG    1       -3.429  -0.437   3.971  0.00  0.00    +0.040 A 
ATOM     10  C   LIG    1       -4.420  -0.313   3.010  0.00  0.00    +0.140 A 
BRANCH   8  11
ATOM     11  N   LIG    1       -2.767  -0.885   6.250  0.00  0.00    -0.670 N 
ATOM     12  H   LIG    1       -1.992  -0.302   6.224  0.00  0.00    +0.410 HD
ATOM     13  C   LIG    1       -2.881  -1.811   7.223  0.00  0.00    +0.510 C 
ATOM     14  O   LIG    1       -3.889  -2.481   7.306  0.00  0.00    -0.530 OA
ATOM     15  C   LIG    1       -1.758  -2.014   8.206  0.00  0.00    +0.110 C 
ENDBRANCH   8  11
BRANCH   5  17
ATOM     16  C   LIG    1       -8.071  -0.650   2.837  0.00  0.00    +0.250 C 
ATOM     17  O   LIG    1       -6.727  -0.414   2.413  0.00  0.00    -0.320 OA
ENDBRANCH   5  17
ENDBRANCH   1  10
BRANCH   3  18
ATOM     18  C   LIG    1       -2.516   0.951   0.017  0.00  0.00    +0.120 C 
BRANCH  18  19
ATOM     19  C   LIG    1       -1.219   1.719   0.011  0.00  0.00    -0.070 A 
ATOM     20  C   LIG    1       -1.232   3.101   0.013  0.00  0.00    +0.020 A 
ATOM     21  C   LIG    1       -0.041   3.797  -0.002  0.00  0.00    +0.000 A 
ATOM     22  C   LIG    1        1.172   3.120  -0.013  0.00  0.00    -0.070 A 
ATOM     23  C   LIG    1        2.434   3.943  -0.043  0.00  0.00    +0.070 C 
ATOM     24  C   LIG    1        3.634   3.100   0.384  0.00  0.00    +0.020 C 
ATOM     25  C   LIG    1        3.638   1.810  -0.444  0.00  0.00    +0.020 C 
ATOM     26  C   LIG    1        2.462   0.945   0.002  0.00  0.00    +0.070 C 
ATOM     27  C   LIG    1        1.185   1.744  -0.004  0.00  0.00    -0.070 A 
ATOM     28  C   LIG    1       -0.015   1.045   0.008  0.00  0.00    +0.020 A 
ENDBRANCH  18  19
ENDBRANCH   3  18
TORSDOF 5
