REMARK  Name = ZINCtV00000L6l7c.0
REMARK                            x       y       z     vdW  Elec       q    Type
REMARK                         _______ _______ _______ _____ _____    ______ ____
ROOT
ATOM      1  C   LIG    1       -2.251  -3.060  -0.308  0.00  0.00    +0.110 A 
ATOM      2  C   LIG    1       -3.541  -2.472  -0.323  0.00  0.00    -0.030 A 
ATOM      3  C   LIG    1       -4.712  -3.225  -0.444  0.00  0.00    +0.050 A 
ATOM      4  C   LIG    1       -5.919  -2.588  -0.452  0.00  0.00    +0.050 A 
ATOM      5  C   LIG    1       -6.001  -1.203  -0.341  0.00  0.00    +0.040 A 
ATOM      6  C   LIG    1       -4.876  -0.440  -0.222  0.00  0.00    +0.040 A 
ATOM      7  C   LIG    1       -3.623  -1.061  -0.210  0.00  0.00    -0.100 A 
ATOM      8  C   LIG    1       -2.413  -0.339  -0.090  0.00  0.00    +0.360 A 
ATOM      9  N   LIG    1       -1.269  -1.001  -0.093  0.00  0.00    -0.320 NA
ATOM     10  N   LIG    1       -1.193  -2.276  -0.190  0.00  0.00    -0.210 NA
ENDROOT
BRANCH   1  15
ATOM     11  C   LIG    1       -1.629  -8.766  -0.750  0.00  0.00    +0.090 C 
ATOM     12  C   LIG    1       -1.793  -7.272  -0.634  0.00  0.00    -0.070 A 
ATOM     13  C   LIG    1       -1.056  -6.569   0.303  0.00  0.00    +0.010 A 
ATOM     14  C   LIG    1       -1.197  -5.201   0.410  0.00  0.00    +0.050 A 
ATOM     15  C   LIG    1       -2.092  -4.528  -0.421  0.00  0.00    -0.040 A 
ATOM     16  C   LIG    1       -2.832  -5.242  -1.363  0.00  0.00    +0.030 A 
ATOM     17  C   LIG    1       -2.679  -6.609  -1.464  0.00  0.00    -0.090 A 
ATOM     18  C   LIG    1       -3.478  -7.382  -2.482  0.00  0.00    +0.090 C 
ENDBRANCH   1  15
BRANCH   8  19
ATOM     19  N   LIG    1       -2.426   1.042   0.023  0.00  0.00    -0.640 N 
ATOM     20  H   LIG    1       -3.270   1.514   0.097  0.00  0.00    +0.420 HD
BRANCH  19  21
ATOM     21  C   LIG    1       -1.224   1.754   0.031  0.00  0.00    +0.160 A 
ATOM     22  C   LIG    1       -1.112   2.923   0.772  0.00  0.00    +0.010 A 
ATOM     23  C   LIG    1        0.079   3.622   0.782  0.00  0.00    +0.040 A 
ATOM     24  C   LIG    1        1.159   3.161   0.051  0.00  0.00    +0.050 A 
ATOM     25  C   LIG    1        1.049   2.000  -0.693  0.00  0.00    -0.160 A 
ATOM     26  C   LIG    1       -0.139   1.296  -0.707  0.00  0.00    +0.080 A 
BRANCH  25  27
ATOM     27  C   LIG    1        2.228   1.501  -1.488  0.00  0.00    +0.510 C 
ATOM     28  F   LIG    1        1.886   1.443  -2.843  0.00  0.00    -0.180 F 
ATOM     29  F   LIG    1        2.585   0.224  -1.042  0.00  0.00    -0.170 F 
ATOM     30  F   LIG    1        3.308   2.373  -1.317  0.00  0.00    -0.180 F 
ENDBRANCH  25  27
ENDBRANCH  19  21
ENDBRANCH   8  19
TORSDOF 4
