REMARK  Name = ZINCqH0000001QOh.0
REMARK                            x       y       z     vdW  Elec       q    Type
REMARK                         _______ _______ _______ _____ _____    ______ ____
ROOT
ATOM      1  N   LIG    1       -7.055  -2.036   1.790  0.00  0.00    -0.670 N 
ATOM      2  H   LIG    1       -6.764  -2.932   2.022  0.00  0.00    +0.410 HD
ATOM      3  C   LIG    1       -8.369  -1.765   1.665  0.00  0.00    +0.580 C 
ATOM      4  O   LIG    1       -8.729  -0.692   1.219  0.00  0.00    -0.510 OA
ENDROOT
BRANCH   3   5
ATOM      5  C   LIG    1       -9.368  -2.767   2.068  0.00  0.00    -0.210 A 
ATOM      6  C   LIG    1       -8.986  -3.897   2.726  0.00  0.00    +0.340 A 
ATOM      7  N   LIG    1       -9.876  -4.843   3.114  0.00  0.00    -0.620 N 
ATOM      8  H   LIG    1       -9.549  -5.628   3.579  0.00  0.00    +0.420 HD
ATOM      9  C   LIG    1      -11.197  -4.734   2.878  0.00  0.00    +0.550 A 
ATOM     10  C   LIG    1      -11.714  -3.553   2.174  0.00  0.00    -0.160 A 
ATOM     11  C   LIG    1      -13.072  -3.391   1.904  0.00  0.00    +0.090 A 
ATOM     12  C   LIG    1      -13.502  -2.263   1.240  0.00  0.00    +0.000 A 
ATOM     13  C   LIG    1      -12.598  -1.289   0.838  0.00  0.00    +0.050 A 
ATOM     14  C   LIG    1      -11.251  -1.430   1.096  0.00  0.00    +0.050 A 
ATOM     15  O   LIG    1      -11.959  -5.610   3.245  0.00  0.00    -0.510 OA
ATOM     16  C   LIG    1      -10.796  -2.559   1.771  0.00  0.00    +0.020 A 
ENDBRANCH   3   5
BRANCH   1  21
ATOM     17  N   LIG    1       -2.300   1.382   2.051  0.00  0.00    -0.310 N 
ATOM     18  C   LIG    1       -2.753   0.264   2.638  0.00  0.00    +0.250 A 
ATOM     19  C   LIG    1       -3.994  -0.024   2.102  0.00  0.00    -0.190 A 
ATOM     20  C   LIG    1       -4.952  -1.041   2.304  0.00  0.00    +0.050 A 
ATOM     21  C   LIG    1       -6.109  -1.025   1.585  0.00  0.00    +0.120 A 
ATOM     22  C   LIG    1       -6.376  -0.018   0.646  0.00  0.00    +0.070 A 
ATOM     23  C   LIG    1       -5.497   0.986   0.407  0.00  0.00    +0.040 A 
ATOM     24  C   LIG    1       -4.277   1.031   1.116  0.00  0.00    +0.090 A 
ATOM     25  N   LIG    1       -3.240   1.849   1.125  0.00  0.00    -0.300 NA
BRANCH  17  27
ATOM     26  C   LIG    1        0.083   1.365   1.502  0.00  0.00    +0.040 C 
ATOM     27  C   LIG    1       -1.015   2.022   2.341  0.00  0.00    +0.250 C 
ATOM     28  C   LIG    1       -0.688   1.860   3.827  0.00  0.00    +0.060 C 
ENDBRANCH  17  27
ENDBRANCH   1  21
TORSDOF 3
