REMARK  Name = ZINCpk00000y6vX9.0
REMARK                            x       y       z     vdW  Elec       q    Type
REMARK                         _______ _______ _______ _____ _____    ______ ____
ROOT
ATOM      1  C   LIG    1        1.744  -1.819  -3.498  0.00  0.00    -0.140 A 
ATOM      2  C   LIG    1        0.730  -1.129  -4.179  0.00  0.00    +0.160 A 
ATOM      3  C   LIG    1       -0.034  -0.234  -3.480  0.00  0.00    -0.010 A 
ATOM      4  C   LIG    1        0.222  -0.027  -2.126  0.00  0.00    +0.340 A 
ATOM      5  N   LIG    1        1.187  -0.693  -1.505  0.00  0.00    -0.510 NA
ATOM      6  C   LIG    1        1.941  -1.567  -2.139  0.00  0.00    +0.310 A 
ENDROOT
BRANCH   1  12
ATOM      7  C   LIG    1        3.124  -3.895  -6.169  0.00  0.00    +0.190 A 
ATOM      8  C   LIG    1        4.120  -4.585  -5.540  0.00  0.00    -0.130 A 
ATOM      9  C   LIG    1        4.346  -4.354  -4.169  0.00  0.00    +0.530 A 
ATOM     10  N   LIG    1        3.569  -3.456  -3.525  0.00  0.00    -0.630 N 
ATOM     11  H   LIG    1        3.707  -3.281  -2.581  0.00  0.00    +0.420 HD
ATOM     12  C   LIG    1        2.589  -2.798  -4.208  0.00  0.00    +0.450 A 
ATOM     13  O   LIG    1        5.227  -4.953  -3.575  0.00  0.00    -0.530 OA
ATOM     14  N   LIG    1        2.382  -3.024  -5.489  0.00  0.00    -0.530 NA
BRANCH   7  16
ATOM     15  C   LIG    1        1.748  -5.161  -7.797  0.00  0.00    +0.040 C 
ATOM     16  C   LIG    1        2.862  -4.125  -7.635  0.00  0.00    +0.100 C 
ENDBRANCH   7  16
ENDBRANCH   1  12
BRANCH   4  17
ATOM     17  N   LIG    1       -0.545   0.882  -1.416  0.00  0.00    -0.480 N 
ATOM     18  C   LIG    1       -1.687   0.218  -0.774  0.00  0.00    +0.210 C 
ATOM     19  C   LIG    1       -2.590   1.270  -0.124  0.00  0.00    +0.000 C 
ATOM     20  C   LIG    1       -1.784   2.056   0.913  0.00  0.00    +0.050 C 
ATOM     21  C   LIG    1       -0.573   2.697   0.229  0.00  0.00    +0.040 C 
ATOM     22  C   LIG    1        0.271   1.605  -0.432  0.00  0.00    +0.150 C 
ATOM     23  C   LIG    1        1.471   2.243  -1.135  0.00  0.00    +0.030 C 
BRANCH  19  24
ATOM     24  C   LIG    1       -3.106   2.212  -1.180  0.00  0.00    +0.540 C 
ATOM     25  O   LIG    1       -2.855   3.397  -1.111  0.00  0.00    -0.530 OA
ATOM     26  N   LIG    1       -3.847   1.739  -2.202  0.00  0.00    -0.860 N 
ATOM     27  H   LIG    1       -4.180   2.346  -2.881  0.00  0.00    +0.400 HD
ATOM     28  H   LIG    1       -4.048   0.792  -2.257  0.00  0.00    +0.400 HD
ENDBRANCH  19  24
ENDBRANCH   4  17
TORSDOF 4
