REMARK  Name = ZINCc70000004Tem.1
REMARK                            x       y       z     vdW  Elec       q    Type
REMARK                         _______ _______ _______ _____ _____    ______ ____
ROOT
ATOM      1  C   LIG    1       -1.657   4.285   0.040  0.00  0.00    +0.080 C 
ATOM      2  C   LIG    1       -2.530   4.252   1.297  0.00  0.00    +0.050 C 
ATOM      3  C   LIG    1       -3.502   5.435   1.263  0.00  0.00    +0.040 C 
ATOM      4  C   LIG    1       -4.331   5.370  -0.021  0.00  0.00    +0.260 C 
ATOM      5  N   LIG    1       -3.441   5.433  -1.186  0.00  0.00    -0.500 N 
ATOM      6  H   LIG    1       -2.885   6.274  -1.139  0.00  0.00    +0.420 HD
ATOM      7  H   LIG    1       -3.993   5.444  -2.030  0.00  0.00    +0.430 HD
ATOM      8  C   LIG    1       -2.553   4.264  -1.200  0.00  0.00    +0.260 C 
ENDROOT
BRANCH   1  12
ATOM      9  O   LIG    1        2.232   1.423  -0.011  0.00  0.00    -0.650 OA
ATOM     10  C   LIG    1        1.067   1.776   0.001  0.00  0.00    +0.470 A 
ATOM     11  C   LIG    1        0.599   3.111   0.013  0.00  0.00    -0.360 A 
ATOM     12  C   LIG    1       -0.749   3.082   0.026  0.00  0.00    +0.070 A 
ATOM     13  N   LIG    1       -1.153   1.777   0.017  0.00  0.00    -0.430 NA
ATOM     14  N   LIG    1       -0.011   0.966   0.007  0.00  0.00    -0.560 N 
ATOM     15  H   LIG    1        0.002  -0.004   0.002  0.00  0.00    +0.410 HD
ENDBRANCH   1  12
TORSDOF 1
