REMARK  Name = ZINCrD00000F5Lxl.0
REMARK                            x       y       z     vdW  Elec       q    Type
REMARK                         _______ _______ _______ _____ _____    ______ ____
ROOT
ATOM      1  C   LIG    1        2.410   6.062  -0.545  0.00  0.00    +0.510 C 
ATOM      2  N   LIG    1        2.695   4.808  -0.945  0.00  0.00    -0.720 N 
ATOM      3  H   LIG    1        2.976   4.642  -1.859  0.00  0.00    +0.400 HD
ATOM      4  O   LIG    1        2.059   6.269   0.598  0.00  0.00    -0.520 OA
ENDROOT
BRANCH   2   5
ATOM      5  C   LIG    1        2.581   3.693  -0.001  0.00  0.00    +0.300 C 
ATOM      6  C   LIG    1        3.449   2.504  -0.465  0.00  0.00    +0.050 C 
ATOM      7  C   LIG    1        2.610   1.288  -0.019  0.00  0.00    +0.090 C 
ATOM      8  C   LIG    1        1.179   1.782   0.008  0.00  0.00    -0.100 A 
ATOM      9  C   LIG    1       -0.013   1.076   0.023  0.00  0.00    +0.030 A 
ATOM     10  C   LIG    1       -1.220   1.748   0.043  0.00  0.00    +0.080 A 
ATOM     11  C   LIG    1       -1.238   3.137   0.058  0.00  0.00    +0.090 A 
ATOM     12  C   LIG    1       -0.045   3.841   0.044  0.00  0.00    -0.010 A 
ATOM     13  F   LIG    1       -2.381   1.056   0.051  0.00  0.00    -0.130 F 
ATOM     14  C   LIG    1        1.162   3.165   0.019  0.00  0.00    -0.080 A 
BRANCH  11  15
ATOM     15  O   LIG    1       -2.423   3.803   0.082  0.00  0.00    -0.310 OA
ATOM     16  C   LIG    1       -2.365   5.231   0.091  0.00  0.00    +0.260 C 
ENDBRANCH  11  15
ENDBRANCH   2   5
BRANCH   1  17
ATOM     17  C   LIG    1        2.527   7.209  -1.516  0.00  0.00    +0.110 C 
BRANCH  17  23
ATOM     18  C   LIG    1        3.110   9.191  -0.092  0.00  0.00    +0.160 A 
ATOM     19  C   LIG    1        2.763  10.376   0.544  0.00  0.00    +0.020 A 
ATOM     20  C   LIG    1        1.472  10.857   0.449  0.00  0.00    +0.030 A 
ATOM     21  C   LIG    1        0.525  10.162  -0.280  0.00  0.00    -0.010 A 
ATOM     22  C   LIG    1        0.868   8.984  -0.919  0.00  0.00    +0.030 A 
ATOM     23  C   LIG    1        2.156   8.494  -0.823  0.00  0.00    -0.090 A 
BRANCH  18  25
ATOM     24  C   LIG    1        5.455   9.557   0.050  0.00  0.00    +0.540 C 
ATOM     25  N   LIG    1        4.416   8.700   0.003  0.00  0.00    -0.670 N 
ATOM     26  H   LIG    1        4.573   7.744   0.035  0.00  0.00    +0.410 HD
ATOM     27  O   LIG    1        5.255  10.755   0.092  0.00  0.00    -0.520 OA
BRANCH  24  29
ATOM     28  C   LIG    1        7.859   9.886   0.097  0.00  0.00    +0.160 C 
ATOM     29  C   LIG    1        6.833   9.041   0.050  0.00  0.00    -0.090 C 
ENDBRANCH  24  29
ENDBRANCH  18  25
ENDBRANCH  17  23
ENDBRANCH   1  17
TORSDOF 6
