REMARK  Name = ZINCpk00000KfLgg.1
REMARK                            x       y       z     vdW  Elec       q    Type
REMARK                         _______ _______ _______ _____ _____    ______ ____
ROOT
ATOM      1  C   LIG    1       -0.640   5.466  -3.588  0.00  0.00    -0.040 C 
ATOM      2  C   LIG    1        0.261   6.389  -2.762  0.00  0.00    +0.060 C 
ATOM      3  C   LIG    1        0.007   6.142  -1.273  0.00  0.00    +0.180 C 
ATOM      4  N   LIG    1        0.290   4.737  -0.954  0.00  0.00    -0.530 NA
ATOM      5  C   LIG    1       -0.596   3.834  -1.700  0.00  0.00    +0.170 C 
ATOM      6  C   LIG    1       -0.360   4.012  -3.201  0.00  0.00    +0.030 C 
ENDROOT
BRANCH   1   7
ATOM      7  C   LIG    1       -0.347   5.665  -5.077  0.00  0.00    +0.220 C 
BRANCH   7   9
ATOM      8  O   LIG    1       -2.223   5.396  -6.483  0.00  0.00    -0.530 OA
ATOM      9  C   LIG    1       -1.316   4.849  -5.893  0.00  0.00    +0.490 C 
ATOM     10  N   LIG    1       -1.174   3.511  -5.966  0.00  0.00    -0.700 N 
ATOM     11  H   LIG    1       -0.491   3.066  -5.442  0.00  0.00    +0.400 HD
BRANCH  10  12
ATOM     12  C   LIG    1       -2.053   2.728  -6.839  0.00  0.00    +0.210 C 
ATOM     13  C   LIG    1       -2.628   1.425  -6.279  0.00  0.00    +0.010 C 
ATOM     14  C   LIG    1       -1.530   1.382  -7.345  0.00  0.00    +0.020 C 
ENDBRANCH  10  12
ENDBRANCH   7   9
BRANCH   7  15
ATOM     15  O   LIG    1       -0.490   7.048  -5.410  0.00  0.00    -0.530 OA
ATOM     16  H   LIG    1       -1.374   7.403  -5.243  0.00  0.00    +0.390 HD
ENDBRANCH   7  15
ENDBRANCH   1   7
BRANCH   4  17
ATOM     17  C   LIG    1        0.190   4.495   0.492  0.00  0.00    +0.260 C 
BRANCH  17  18
ATOM     18  C   LIG    1        0.242   3.013   0.759  0.00  0.00    +0.110 A 
ATOM     19  N   LIG    1       -0.860   2.302   0.689  0.00  0.00    -0.420 NA
ATOM     20  C   LIG    1       -0.816   0.986   0.925  0.00  0.00    +0.080 A 
ATOM     21  C   LIG    1       -1.977   0.197   0.858  0.00  0.00    +0.060 A 
ATOM     22  C   LIG    1       -1.899  -1.140   1.102  0.00  0.00    +0.040 A 
ATOM     23  C   LIG    1       -0.683  -1.741   1.420  0.00  0.00    +0.040 A 
ATOM     24  C   LIG    1        0.462  -1.009   1.494  0.00  0.00    +0.060 A 
ATOM     25  C   LIG    1        0.422   0.374   1.248  0.00  0.00    +0.080 A 
ATOM     26  N   LIG    1        1.530   1.120   1.313  0.00  0.00    -0.420 NA
ATOM     27  C   LIG    1        1.461   2.410   1.077  0.00  0.00    +0.280 A 
ENDBRANCH  17  18
ENDBRANCH   4  17
TORSDOF 6
