REMARK  Name = ZINCpk000000oNiW.0
REMARK                            x       y       z     vdW  Elec       q    Type
REMARK                         _______ _______ _______ _____ _____    ______ ____
ROOT
ATOM      1  N   LIG    1       -0.829   0.380   2.102  0.00  0.00    -0.520 NA
ATOM      2  C   LIG    1       -0.681   1.841   2.157  0.00  0.00    +0.170 C 
ATOM      3  C   LIG    1        0.505   2.264   1.283  0.00  0.00    +0.290 C 
ATOM      4  N   LIG    1        1.690   1.502   1.703  0.00  0.00    -0.610 N 
ATOM      5  C   LIG    1        1.578   0.039   1.805  0.00  0.00    +0.300 C 
ATOM      6  C   LIG    1        2.849   2.128   1.988  0.00  0.00    +0.570 C 
ATOM      7  O   LIG    1        3.791   1.495   2.425  0.00  0.00    -0.540 OA
ATOM      8  C   LIG    1        0.350  -0.296   2.658  0.00  0.00    +0.170 C 
ENDROOT
BRANCH   6   9
ATOM      9  C   LIG    1        2.976   3.582   1.770  0.00  0.00    -0.200 A 
ATOM     10  C   LIG    1        2.293   4.193   0.714  0.00  0.00    +0.090 A 
ATOM     11  C   LIG    1        2.409   5.550   0.516  0.00  0.00    -0.080 A 
ATOM     12  C   LIG    1        3.213   6.312   1.359  0.00  0.00    +0.250 A 
ATOM     13  C   LIG    1        3.898   5.705   2.408  0.00  0.00    -0.080 A 
ATOM     14  C   LIG    1        3.783   4.350   2.615  0.00  0.00    +0.120 A 
BRANCH  12  15
ATOM     15  N   LIG    1        3.332   7.682   1.153  0.00  0.00    -0.620 N 
BRANCH  15  16
ATOM     16  C   LIG    1        4.178   8.485   2.040  0.00  0.00    +0.270 C 
ATOM     17  C   LIG    1        5.601   8.536   1.479  0.00  0.00    +0.020 C 
ENDBRANCH  15  16
BRANCH  15  18
ATOM     18  C   LIG    1        2.612   8.322   0.050  0.00  0.00    +0.270 C 
ATOM     19  C   LIG    1        1.233   8.774   0.535  0.00  0.00    +0.020 C 
ENDBRANCH  15  18
ENDBRANCH  12  15
ENDBRANCH   6   9
BRANCH   1  20
ATOM     20  C   LIG    1       -2.055  -0.051   2.786  0.00  0.00    +0.210 C 
BRANCH  20  23
ATOM     21  N   LIG    1       -3.379  -2.126   3.030  0.00  0.00    -0.730 N 
ATOM     22  H   LIG    1       -3.994  -1.630   3.593  0.00  0.00    +0.400 HD
ATOM     23  C   LIG    1       -2.302  -1.510   2.502  0.00  0.00    +0.510 C 
ATOM     24  O   LIG    1       -1.533  -2.130   1.799  0.00  0.00    -0.520 OA
BRANCH  21  26
ATOM     25  C   LIG    1       -4.896  -3.994   3.467  0.00  0.00    +0.030 C 
ATOM     26  C   LIG    1       -3.619  -3.545   2.754  0.00  0.00    +0.250 C 
ENDBRANCH  21  26
ENDBRANCH  20  23
ENDBRANCH   1  20
TORSDOF 7
