REMARK  Name = ZINCrg000000tPXJ.0
REMARK                            x       y       z     vdW  Elec       q    Type
REMARK                         _______ _______ _______ _____ _____    ______ ____
ROOT
ATOM      1  C   LIG    1        6.781   2.388   2.602  0.00  0.00    +0.560 C 
ATOM      2  N   LIG    1        5.859   1.608   2.003  0.00  0.00    -0.610 N 
ATOM      3  C   LIG    1        5.993   1.232   0.587  0.00  0.00    +0.300 C 
ATOM      4  C   LIG    1        4.677   1.555  -0.129  0.00  0.00    +0.180 C 
ATOM      5  N   LIG    1        3.566   0.910   0.583  0.00  0.00    -0.530 NA
ATOM      6  C   LIG    1        3.428   1.437   1.947  0.00  0.00    +0.190 C 
ATOM      7  C   LIG    1        4.693   1.110   2.747  0.00  0.00    +0.280 C 
ATOM      8  O   LIG    1        7.684   2.873   1.948  0.00  0.00    -0.520 OA
ENDROOT
BRANCH   1  17
ATOM      9  O   LIG    1        4.720   0.284   8.961  0.00  0.00    -0.520 OA
ATOM     10  C   LIG    1        4.906   1.086   8.070  0.00  0.00    +0.530 C 
ATOM     11  C   LIG    1        4.044   2.310   7.986  0.00  0.00    +0.060 C 
ATOM     12  C   LIG    1        4.653   3.456   8.811  0.00  0.00    +0.140 C 
ATOM     13  S   LIG    1        6.451   3.455   8.507  0.00  0.00    -0.130 S 
ATOM     14  C   LIG    1        6.542   3.155   6.771  0.00  0.00    -0.110 A 
ATOM     15  C   LIG    1        6.902   4.175   5.899  0.00  0.00    +0.100 A 
ATOM     16  C   LIG    1        6.984   3.925   4.547  0.00  0.00    +0.060 A 
ATOM     17  C   LIG    1        6.695   2.651   4.050  0.00  0.00    -0.090 A 
ATOM     18  C   LIG    1        6.329   1.625   4.928  0.00  0.00    +0.030 A 
ATOM     19  C   LIG    1        6.253   1.879   6.282  0.00  0.00    +0.170 A 
ATOM     20  N   LIG    1        5.879   0.864   7.177  0.00  0.00    -0.670 N 
ATOM     21  H   LIG    1        6.324   0.003   7.148  0.00  0.00    +0.420 HD
ENDBRANCH   1  17
BRANCH   5  22
ATOM     22  C   LIG    1        2.309   1.051  -0.166  0.00  0.00    +0.160 C 
ATOM     23  C   LIG    1        2.488   0.491  -1.587  0.00  0.00    +0.080 C 
ATOM     24  C   LIG    1        1.067   0.361  -2.195  0.00  0.00    -0.310 C 
ATOM     25  S   LIG    1        0.098  -0.327  -0.800  0.00  0.00    +2.390 S 
ATOM     26  O   LIG    1        0.135  -1.746  -0.856  0.00  0.00    -0.930 OA
ATOM     27  O   LIG    1       -1.149   0.348  -0.715  0.00  0.00    -0.940 OA
ATOM     28  C   LIG    1        1.195   0.255   0.543  0.00  0.00    -0.310 C 
ENDBRANCH   5  22
TORSDOF 2
