REMARK  Name = ZINCpk00000y6uTc.0
REMARK                            x       y       z     vdW  Elec       q    Type
REMARK                         _______ _______ _______ _____ _____    ______ ____
ROOT
ATOM      1  C   LIG    1       -3.572   4.054   2.294  0.00  0.00    +0.510 C 
ATOM      2  N   LIG    1       -3.019   3.441   1.229  0.00  0.00    -0.610 N 
ATOM      3  C   LIG    1       -2.700   2.003   1.324  0.00  0.00    +0.260 C 
ATOM      4  C   LIG    1       -3.073   1.261   0.029  0.00  0.00    +0.040 C 
ATOM      5  C   LIG    1       -4.391   1.789  -0.497  0.00  0.00    +0.220 C 
ATOM      6  N   LIG    1       -4.128   2.868  -1.447  0.00  0.00    -0.480 N 
ATOM      7  C   LIG    1       -3.992   4.166  -0.901  0.00  0.00    +0.190 C 
ATOM      8  C   LIG    1       -2.759   4.219   0.034  0.00  0.00    +0.310 C 
ATOM      9  O   LIG    1       -3.741   5.255   2.282  0.00  0.00    -0.510 OA
ENDROOT
BRANCH   6  10
ATOM     10  C   LIG    1       -5.058   2.858  -2.481  0.00  0.00    +0.260 A 
ATOM     11  C   LIG    1       -4.901   3.713  -3.572  0.00  0.00    +0.010 A 
ATOM     12  C   LIG    1       -5.852   3.660  -4.579  0.00  0.00    +0.060 A 
ATOM     13  C   LIG    1       -6.900   2.761  -4.441  0.00  0.00    +0.180 A 
ATOM     14  N   LIG    1       -6.970   1.990  -3.374  0.00  0.00    -0.220 NA
ATOM     15  N   LIG    1       -6.094   2.033  -2.438  0.00  0.00    -0.290 NA
ENDBRANCH   6  10
BRANCH   1  17
ATOM     16  C   LIG    1       -5.208   2.401   3.153  0.00  0.00    +0.040 C 
ATOM     17  C   LIG    1       -3.982   3.248   3.499  0.00  0.00    +0.150 C 
BRANCH  17  18
ATOM     18  O   LIG    1       -4.300   4.130   4.577  0.00  0.00    -0.350 OA
BRANCH  18  19
ATOM     19  C   LIG    1       -4.045   3.582   5.872  0.00  0.00    +0.200 C 
BRANCH  19  20
ATOM     20  C   LIG    1       -4.421   4.608   6.943  0.00  0.00    +0.160 C 
ATOM     21  C   LIG    1       -4.266   3.978   8.329  0.00  0.00    +0.000 C 
ATOM     22  C   LIG    1       -4.586   5.028   9.398  0.00  0.00    +0.020 C 
ATOM     23  C   LIG    1       -3.665   6.237   9.201  0.00  0.00    -0.020 C 
ATOM     24  C   LIG    1       -3.844   6.779   7.781  0.00  0.00    +0.200 C 
ATOM     25  O   LIG    1       -3.561   5.744   6.838  0.00  0.00    -0.370 OA
ENDBRANCH  19  20
ENDBRANCH  18  19
ENDBRANCH  17  18
ENDBRANCH   1  17
TORSDOF 5
