REMARK  Name = ZINCpk00000KfL4b.0
REMARK                            x       y       z     vdW  Elec       q    Type
REMARK                         _______ _______ _______ _____ _____    ______ ____
ROOT
ATOM      1  C   LIG    1        2.483   4.428  -0.738  0.00  0.00    +0.160 C 
ATOM      2  C   LIG    1        1.180   3.780  -0.346  0.00  0.00    +0.240 C 
ATOM      3  C   LIG    1        0.053   4.509  -0.346  0.00  0.00    -0.280 C 
ATOM      4  C   LIG    1       -1.271   3.918   0.044  0.00  0.00    +0.240 C 
ATOM      5  C   LIG    1       -1.212   2.417   0.021  0.00  0.00    -0.120 C 
ATOM      6  C   LIG    1       -0.022   1.758   0.012  0.00  0.00    +0.160 C 
ATOM      7  N   LIG    1        1.164   2.457   0.004  0.00  0.00    -0.630 N 
ATOM      8  H   LIG    1        1.990   2.012   0.248  0.00  0.00    +0.420 HD
ENDROOT
BRANCH   4   9
ATOM      9  C   LIG    1       -1.632   4.383   1.431  0.00  0.00    -0.010 A 
ATOM     10  C   LIG    1       -2.725   5.094   1.762  0.00  0.00    -0.060 A 
ATOM     11  C   LIG    1       -2.667   5.309   3.158  0.00  0.00    -0.060 A 
ATOM     12  C   LIG    1       -1.538   4.723   3.595  0.00  0.00    +0.160 A 
ATOM     13  O   LIG    1       -0.915   4.164   2.545  0.00  0.00    -0.160 OA
ENDBRANCH   4   9
BRANCH   3  14
ATOM     14  C   LIG    1        0.114   5.872  -0.725  0.00  0.00    +0.580 C 
ATOM     15  O   LIG    1        1.179   6.368  -1.045  0.00  0.00    -0.550 OA
ATOM     16  N   LIG    1       -1.007   6.621  -0.732  0.00  0.00    -0.850 N 
ATOM     17  H   LIG    1       -0.965   7.554  -0.992  0.00  0.00    +0.400 HD
ATOM     18  H   LIG    1       -1.855   6.226  -0.477  0.00  0.00    +0.400 HD
ENDBRANCH   3  14
BRANCH   5  19
ATOM     19  C   LIG    1       -2.431   1.665   0.013  0.00  0.00    +0.250 C 
ATOM     20  N   LIG    1       -3.398   1.070   0.007  0.00  0.00    -0.400 NA
ENDBRANCH   5  19
BRANCH   6  21
ATOM     21  S   LIG    1        0.002  -0.004   0.002  0.00  0.00    +0.050 S 
BRANCH  21  22
ATOM     22  C   LIG    1        1.789  -0.294  -0.017  0.00  0.00    +0.080 C 
BRANCH  22  23
ATOM     23  C   LIG    1        2.057  -1.777  -0.027  0.00  0.00    +0.540 C 
ATOM     24  N   LIG    1        3.325  -2.232  -0.042  0.00  0.00    -0.690 N 
ATOM     25  H   LIG    1        4.065  -1.606  -0.045  0.00  0.00    +0.400 HD
ATOM     26  O   LIG    1        1.131  -2.561  -0.022  0.00  0.00    -0.510 OA
BRANCH  24  27
ATOM     27  C   LIG    1        3.586  -3.674  -0.052  0.00  0.00    +0.210 C 
ATOM     28  C   LIG    1        4.685  -4.200   0.873  0.00  0.00    +0.020 C 
ATOM     29  C   LIG    1        4.917  -4.147  -0.639  0.00  0.00    +0.020 C 
ENDBRANCH  24  27
ENDBRANCH  22  23
ENDBRANCH  21  22
ENDBRANCH   6  21
TORSDOF 7
