REMARK  Name = ZINCpe000000XMwk.0
REMARK                            x       y       z     vdW  Elec       q    Type
REMARK                         _______ _______ _______ _____ _____    ______ ____
ROOT
ATOM      1  N   LIG    1       -1.829   4.755   1.449  0.00  0.00    -0.580 N 
ATOM      2  C   LIG    1       -1.036   5.701   1.990  0.00  0.00    +0.520 C 
ATOM      3  O   LIG    1       -0.091   6.131   1.363  0.00  0.00    -0.500 OA
ENDROOT
BRANCH   1   4
ATOM      4  C   LIG    1       -1.586   4.290   0.081  0.00  0.00    +0.200 C 
ATOM      5  C   LIG    1       -0.222   4.600  -0.539  0.00  0.00    +0.040 C 
ATOM      6  C   LIG    1       -1.467   5.351  -1.015  0.00  0.00    +0.010 C 
ENDBRANCH   1   4
BRANCH   1   7
ATOM      7  C   LIG    1       -2.934   4.191   2.228  0.00  0.00    +0.410 C 
BRANCH   7  12
ATOM      8  C   LIG    1       -6.477   7.741   2.765  0.00  0.00    +0.170 C 
ATOM      9  C   LIG    1       -5.720   6.552   2.232  0.00  0.00    -0.000 A 
ATOM     10  C   LIG    1       -6.088   5.788   1.188  0.00  0.00    -0.060 A 
ATOM     11  C   LIG    1       -5.098   4.790   1.041  0.00  0.00    -0.030 A 
ATOM     12  C   LIG    1       -4.179   5.009   1.998  0.00  0.00    -0.050 A 
ATOM     13  O   LIG    1       -4.562   6.075   2.719  0.00  0.00    -0.170 OA
ENDBRANCH   7  12
ENDBRANCH   1   7
BRANCH   2  14
ATOM     14  C   LIG    1       -1.323   6.223   3.374  0.00  0.00    +0.210 C 
BRANCH  14  15
ATOM     15  N   LIG    1       -0.357   7.278   3.709  0.00  0.00    -0.510 NA
ATOM     16  C   LIG    1        1.002   6.731   3.817  0.00  0.00    +0.210 C 
BRANCH  15  17
ATOM     17  C   LIG    1       -0.745   7.973   4.944  0.00  0.00    +0.220 C 
BRANCH  17  18
ATOM     18  C   LIG    1        0.119   9.195   5.125  0.00  0.00    +0.520 C 
ATOM     19  N   LIG    1       -0.057   9.992   6.197  0.00  0.00    -0.620 N 
ATOM     20  C   LIG    1       -1.091   9.695   7.200  0.00  0.00    +0.240 C 
ATOM     21  C   LIG    1       -0.436   9.733   8.590  0.00  0.00    +0.220 C 
ATOM     22  O   LIG    1        0.261  10.972   8.745  0.00  0.00    -0.380 OA
ATOM     23  C   LIG    1        1.335  11.159   7.821  0.00  0.00    +0.220 C 
ATOM     24  C   LIG    1        0.774  11.190   6.395  0.00  0.00    +0.260 C 
ATOM     25  O   LIG    1        0.974   9.460   4.306  0.00  0.00    -0.510 OA
ENDBRANCH  17  18
ENDBRANCH  15  17
ENDBRANCH  14  15
ENDBRANCH   2  14
TORSDOF 7
