REMARK  Name = ZINCah0000006lwg.0
REMARK                            x       y       z     vdW  Elec       q    Type
REMARK                         _______ _______ _______ _____ _____    ______ ____
ROOT
ATOM      1  C   LIG    1        1.098   3.743   0.011  0.00  0.00    +0.420 A 
ATOM      2  N   LIG    1       -0.036   4.430   0.025  0.00  0.00    -0.450 NA
ATOM      3  C   LIG    1       -1.203   3.810   0.033  0.00  0.00    +0.360 A 
ATOM      4  C   LIG    1       -1.232   2.421   0.021  0.00  0.00    +0.040 A 
ATOM      5  C   LIG    1       -0.021   1.732   0.012  0.00  0.00    +0.190 A 
ATOM      6 CL   LIG    1        0.002  -0.004   0.002  0.00  0.00    +0.030 Cl
ATOM      7  F   LIG    1       -2.406   1.754   0.023  0.00  0.00    -0.090 F 
ATOM      8  N   LIG    1        1.109   2.417   0.004  0.00  0.00    -0.450 NA
ENDROOT
BRANCH   1  10
ATOM      9  N   LIG    1        3.330   5.013  -0.004  0.00  0.00    -0.330 NA
ATOM     10  C   LIG    1        2.343   4.451   0.003  0.00  0.00    +0.280 C 
ENDBRANCH   1  10
TORSDOF 1
