REMARK  Name = ZINCqH0000006XcM.0
REMARK                            x       y       z     vdW  Elec       q    Type
REMARK                         _______ _______ _______ _____ _____    ______ ____
ROOT
ATOM      1  C   LIG    1       -0.121  -0.017   0.095  0.00  0.00    +0.100 A 
ATOM      2  C   LIG    1       -0.083   1.376   0.198  0.00  0.00    +0.090 A 
ATOM      3  C   LIG    1        1.120   2.054   0.102  0.00  0.00    +0.100 A 
ATOM      4  C   LIG    1        2.304   1.345  -0.099  0.00  0.00    +0.080 A 
ATOM      5  N   LIG    1        3.620   1.731  -0.231  0.00  0.00    -0.570 N 
ATOM      6  H   LIG    1        3.948   2.644  -0.200  0.00  0.00    +0.420 HD
ATOM      7  C   LIG    1        4.397   0.602  -0.414  0.00  0.00    +0.020 A 
ATOM      8  C   LIG    1        3.596  -0.496  -0.401  0.00  0.00    +0.060 A 
ATOM      9  C   LIG    1        2.265  -0.059  -0.203  0.00  0.00    -0.070 A 
ATOM     10  C   LIG    1        1.038  -0.732  -0.103  0.00  0.00    -0.010 A 
ENDROOT
BRANCH   7  11
ATOM     11  C   LIG    1        5.855   0.592  -0.594  0.00  0.00    +0.590 C 
ATOM     12  N   LIG    1        6.544   1.750  -0.588  0.00  0.00    -0.730 N 
ATOM     13  H   LIG    1        6.076   2.592  -0.466  0.00  0.00    +0.400 HD
ATOM     14  O   LIG    1        6.442  -0.463  -0.747  0.00  0.00    -0.510 OA
BRANCH  12  15
ATOM     15  C   LIG    1        7.998   1.740  -0.767  0.00  0.00    +0.340 C 
BRANCH  15  16
ATOM     16  C   LIG    1        8.520   3.153  -0.722  0.00  0.00    -0.100 A 
ATOM     17  C   LIG    1        8.619   3.890  -1.887  0.00  0.00    +0.030 A 
ATOM     18  C   LIG    1        9.093   5.189  -1.845  0.00  0.00    +0.030 A 
ATOM     19  C   LIG    1        9.478   5.746  -0.640  0.00  0.00    +0.040 A 
ATOM     20  C   LIG    1        9.384   5.006   0.525  0.00  0.00    -0.040 A 
ATOM     21 CL   LIG    1        9.867   5.705   2.039  0.00  0.00    -0.060 Cl
ATOM     22  C   LIG    1        8.905   3.709   0.483  0.00  0.00    +0.050 A 
ENDBRANCH  15  16
ENDBRANCH  12  15
ENDBRANCH   7  11
BRANCH   1  24
ATOM     23  C   LIG    1       -1.281  -2.094   0.077  0.00  0.00    +0.240 C 
ATOM     24  O   LIG    1       -1.311  -0.670   0.191  0.00  0.00    -0.300 OA
ENDBRANCH   1  24
BRANCH   3  25
ATOM     25  O   LIG    1        1.148   3.411   0.203  0.00  0.00    -0.330 OA
ATOM     26  C   LIG    1        1.073   4.154  -1.015  0.00  0.00    +0.230 C 
ENDBRANCH   3  25
BRANCH   2  27
ATOM     27  O   LIG    1       -1.236   2.071   0.388  0.00  0.00    -0.320 OA
ATOM     28  C   LIG    1       -1.647   2.290   1.740  0.00  0.00    +0.240 C 
ENDBRANCH   2  27
TORSDOF 6
