REMARK  Name = ZINCvU0000000Imh.0
REMARK                            x       y       z     vdW  Elec       q    Type
REMARK                         _______ _______ _______ _____ _____    ______ ____
ROOT
ATOM      1  C   LIG    1        1.382   4.627   0.150  0.00  0.00    +0.570 C 
ATOM      2  N   LIG    1        1.912   5.866   0.111  0.00  0.00    -0.610 N 
ATOM      3  C   LIG    1        3.369   6.057   0.128  0.00  0.00    +0.280 C 
ATOM      4  C   LIG    1        3.732   7.016   1.261  0.00  0.00    +0.030 C 
ATOM      5  C   LIG    1        2.929   8.310   1.107  0.00  0.00    +0.000 C 
ATOM      6  C   LIG    1        1.433   7.998   1.197  0.00  0.00    +0.050 C 
ATOM      7  C   LIG    1        1.044   7.050   0.058  0.00  0.00    +0.280 C 
ATOM      8  O   LIG    1        0.178   4.484   0.244  0.00  0.00    -0.510 OA
ENDROOT
BRANCH   1  14
ATOM      9  C   LIG    1        2.202   2.448   1.067  0.00  0.00    +0.140 A 
ATOM     10  N   LIG    1        2.991   1.387   0.994  0.00  0.00    -0.480 NA
ATOM     11  C   LIG    1        3.853   1.229   0.009  0.00  0.00    +0.300 A 
ATOM     12  C   LIG    1        3.973   2.171  -0.997  0.00  0.00    -0.040 A 
ATOM     13  C   LIG    1        3.174   3.300  -0.972  0.00  0.00    +0.110 A 
ATOM     14  C   LIG    1        2.261   3.446   0.078  0.00  0.00    -0.170 A 
BRANCH   9  15
ATOM     15  S   LIG    1        1.068   2.607   2.406  0.00  0.00    +0.070 S 
BRANCH  15  20
ATOM     16  C   LIG    1        2.634  -2.213   5.684  0.00  0.00    +0.100 C 
ATOM     17  C   LIG    1        2.243  -1.009   4.866  0.00  0.00    -0.050 A 
ATOM     18  C   LIG    1        2.932   0.181   5.016  0.00  0.00    +0.000 A 
ATOM     19  C   LIG    1        2.576   1.285   4.267  0.00  0.00    +0.070 A 
ATOM     20  C   LIG    1        1.525   1.200   3.363  0.00  0.00    -0.140 A 
ATOM     21  C   LIG    1        0.832   0.005   3.219  0.00  0.00    +0.080 A 
ATOM     22  C   LIG    1        1.196  -1.097   3.967  0.00  0.00    +0.000 A 
ENDBRANCH  15  20
ENDBRANCH   9  15
ENDBRANCH   1  14
BRANCH   5  23
ATOM     23  C   LIG    1        3.308   9.269   2.206  0.00  0.00    +0.520 C 
ATOM     24  N   LIG    1        4.584   9.688   2.325  0.00  0.00    -0.680 N 
ATOM     25  H   LIG    1        5.241   9.436   1.657  0.00  0.00    +0.410 HD
ATOM     26  O   LIG    1        2.466   9.664   2.984  0.00  0.00    -0.510 OA
BRANCH  24  27
ATOM     27  C   LIG    1        4.960  10.485   3.411  0.00  0.00    +0.140 A 
ATOM     28  C   LIG    1        5.927  11.469   3.250  0.00  0.00    -0.030 A 
ATOM     29  C   LIG    1        6.293  12.258   4.322  0.00  0.00    +0.030 A 
ATOM     30  C   LIG    1        5.705  12.063   5.559  0.00  0.00    -0.010 A 
ATOM     31  C   LIG    1        4.746  11.080   5.724  0.00  0.00    +0.030 A 
ATOM     32  C   LIG    1        4.372  10.292   4.654  0.00  0.00    +0.010 A 
ENDBRANCH  24  27
ENDBRANCH   5  23
TORSDOF 5
