REMARK  Name = ZINCbw0000001N2b.0
REMARK                            x       y       z     vdW  Elec       q    Type
REMARK                         _______ _______ _______ _____ _____    ______ ____
ROOT
ATOM      1  O   LIG    1        0.005  -0.002  -0.035  0.00  0.00    -0.490 OA
ATOM      2  C   LIG    1       -0.014   1.211  -0.014  0.00  0.00    +0.510 C 
ATOM      3  N   LIG    1       -1.191   1.867   0.018  0.00  0.00    -0.650 N 
ATOM      4  H   LIG    1       -1.206   2.832   0.113  0.00  0.00    +0.420 HD
ENDROOT
BRANCH   3   5
ATOM      5  C   LIG    1       -2.398   1.151  -0.086  0.00  0.00    +0.140 A 
ATOM      6  C   LIG    1       -2.445  -0.186  -0.099  0.00  0.00    -0.030 A 
ATOM      7  S   LIG    1       -4.116  -0.716  -0.240  0.00  0.00    +0.170 S 
ATOM      8  C   LIG    1       -4.676   0.951  -0.277  0.00  0.00    +0.010 A 
ATOM      9  C   LIG    1       -3.634   1.778  -0.179  0.00  0.00    -0.120 A 
ATOM     10 BR   LIG    1       -3.824   3.659  -0.174  0.00  0.00    -0.020 Br
ENDBRANCH   3   5
BRANCH   2  11
ATOM     11  C   LIG    1        1.280   1.984  -0.031  0.00  0.00    +0.190 C 
ATOM     12 CL   LIG    1        2.667   0.834  -0.082  0.00  0.00    -0.120 Cl
ENDBRANCH   2  11
TORSDOF 2
