REMARK  Name = ZINCrD000000fGHD.0
REMARK                            x       y       z     vdW  Elec       q    Type
REMARK                         _______ _______ _______ _____ _____    ______ ____
ROOT
ATOM      1  C   LIG    1        4.246   0.481   1.568  0.00  0.00    +0.510 C 
ATOM      2  N   LIG    1        3.054   1.067   1.339  0.00  0.00    -0.720 N 
ATOM      3  H   LIG    1        2.564   1.472   2.072  0.00  0.00    +0.400 HD
ATOM      4  O   LIG    1        4.858  -0.026   0.652  0.00  0.00    -0.520 OA
ENDROOT
BRANCH   1   5
ATOM      5  C   LIG    1        4.818   0.456   2.962  0.00  0.00    +0.060 C 
BRANCH   5   6
ATOM      6  C   LIG    1        6.169  -0.263   2.945  0.00  0.00    +0.350 C 
BRANCH   6   9
ATOM      7  C   LIG    1        9.156   0.690   0.749  0.00  0.00    +0.100 C 
ATOM      8  C   LIG    1        8.173  -0.106   1.569  0.00  0.00    +0.520 C 
ATOM      9  N   LIG    1        7.124   0.511   2.148  0.00  0.00    -0.720 N 
ATOM     10  H   LIG    1        7.001   1.466   2.037  0.00  0.00    +0.400 HD
ATOM     11  O   LIG    1        8.326  -1.301   1.708  0.00  0.00    -0.540 OA
ENDBRANCH   6   9
BRANCH   6  12
ATOM     12  C   LIG    1        6.684  -0.397   4.355  0.00  0.00    -0.190 A 
ATOM     13  C   LIG    1        6.594  -1.496   5.105  0.00  0.00    +0.020 A 
ATOM     14  C   LIG    1        7.142  -1.384   6.372  0.00  0.00    +0.010 A 
ATOM     15  C   LIG    1        7.668  -0.191   6.653  0.00  0.00    -0.050 A 
ATOM     16  S   LIG    1        7.487   0.875   5.266  0.00  0.00    +0.100 S 
ENDBRANCH   6  12
ENDBRANCH   5   6
ENDBRANCH   1   5
BRANCH   2  17
ATOM     17  C   LIG    1        2.497   1.092  -0.015  0.00  0.00    +0.340 C 
BRANCH  17  18
ATOM     18  C   LIG    1        1.167   1.800   0.001  0.00  0.00    -0.190 A 
ATOM     19  C   LIG    1       -0.013   1.076   0.008  0.00  0.00    +0.120 A 
ATOM     20  C   LIG    1       -1.215   1.770   0.017  0.00  0.00    -0.070 A 
ATOM     21  C   LIG    1       -1.198   3.150   0.030  0.00  0.00    +0.310 A 
ATOM     22  N   LIG    1       -0.057   3.813   0.023  0.00  0.00    -0.540 NA
ATOM     23  C   LIG    1        1.108   3.188   0.009  0.00  0.00    +0.340 A 
BRANCH  23  24
ATOM     24  O   LIG    1        2.257   3.909   0.002  0.00  0.00    -0.290 OA
BRANCH  24  25
ATOM     25  C   LIG    1        2.130   5.332   0.011  0.00  0.00    +0.170 C 
ATOM     26  C   LIG    1        2.141   5.873  -1.434  0.00  0.00    +0.000 C 
ATOM     27  C   LIG    1        2.929   7.203  -1.336  0.00  0.00    +0.020 C 
ATOM     28  C   LIG    1        4.039   6.867  -0.309  0.00  0.00    +0.020 C 
ATOM     29  C   LIG    1        3.337   5.965   0.726  0.00  0.00    +0.040 C 
ENDBRANCH  24  25
ENDBRANCH  23  24
ENDBRANCH  17  18
ENDBRANCH   2  17
TORSDOF 8
