REMARK  Name = ZINCpe00000gN5Rk.0
REMARK                            x       y       z     vdW  Elec       q    Type
REMARK                         _______ _______ _______ _____ _____    ______ ____
ROOT
ATOM      1  C   LIG    1       -0.018   1.503   0.010  0.00  0.00    +0.470 C 
ATOM      2  O   LIG    1       -1.073   2.093   0.018  0.00  0.00    -0.490 OA
ENDROOT
BRANCH   1   3
ATOM      3  O   LIG    1        1.135   2.190   0.003  0.00  0.00    -0.320 OA
BRANCH   3   4
ATOM      4  C   LIG    1        1.039   3.639   0.012  0.00  0.00    +0.240 C 
BRANCH   4   5
ATOM      5  C   LIG    1        2.241   4.217   0.714  0.00  0.00    -0.100 A 
ATOM      6  C   LIG    1        3.491   3.662   0.515  0.00  0.00    +0.050 A 
ATOM      7  C   LIG    1        4.594   4.195   1.156  0.00  0.00    +0.010 A 
ATOM      8  C   LIG    1        4.445   5.278   2.002  0.00  0.00    +0.030 A 
ATOM      9  C   LIG    1        3.194   5.830   2.204  0.00  0.00    +0.010 A 
ATOM     10  C   LIG    1        2.091   5.300   1.560  0.00  0.00    +0.030 A 
ENDBRANCH   4   5
BRANCH   4  14
ATOM     11  N   LIG    1        0.903   5.471  -1.644  0.00  0.00    -0.840 N 
ATOM     12  H   LIG    1        0.873   5.798  -2.557  0.00  0.00    +0.410 HD
ATOM     13  H   LIG    1        0.868   6.096  -0.903  0.00  0.00    +0.400 HD
ATOM     14  C   LIG    1        0.993   4.147  -1.406  0.00  0.00    +0.510 C 
ATOM     15  O   LIG    1        1.036   3.366  -2.333  0.00  0.00    -0.520 OA
ENDBRANCH   4  14
ENDBRANCH   3   4
ENDBRANCH   1   3
BRANCH   1  16
ATOM     16  C   LIG    1        0.002  -0.004   0.002  0.00  0.00    +0.370 C 
BRANCH  16  17
ATOM     17  N   LIG    1       -1.372  -0.511   0.012  0.00  0.00    -1.120 NA
ATOM     18  H   LIG    1       -2.106   0.081   0.240  0.00  0.00    +0.430 HD
BRANCH  17  19
ATOM     19  S   LIG    1       -1.673  -2.095  -0.364  0.00  0.00    +2.610 S 
ATOM     20  O   LIG    1       -0.996  -2.297  -1.597  0.00  0.00    -0.940 OA
ATOM     21  O   LIG    1       -3.087  -2.214  -0.277  0.00  0.00    -0.940 OA
BRANCH  19  22
ATOM     22  C   LIG    1       -0.872  -3.037   0.963  0.00  0.00    -0.290 C 
BRANCH  22  23
ATOM     23  C   LIG    1       -1.078  -4.511   0.729  0.00  0.00    -0.100 A 
ATOM     24  C   LIG    1       -2.182  -5.148   1.265  0.00  0.00    +0.030 A 
ATOM     25  C   LIG    1       -2.373  -6.499   1.046  0.00  0.00    +0.010 A 
ATOM     26  C   LIG    1       -1.457  -7.216   0.300  0.00  0.00    +0.020 A 
ATOM     27  C   LIG    1       -0.351  -6.580  -0.232  0.00  0.00    +0.010 A 
ATOM     28  C   LIG    1       -0.162  -5.227  -0.017  0.00  0.00    +0.030 A 
ENDBRANCH  22  23
ENDBRANCH  19  22
ENDBRANCH  17  19
ENDBRANCH  16  17
ENDBRANCH   1  16
TORSDOF 9
