REMARK  Name = ZINCqH0000007pmx.0
REMARK                            x       y       z     vdW  Elec       q    Type
REMARK                         _______ _______ _______ _____ _____    ______ ____
ROOT
ATOM      1  N   LIG    1       -1.239   3.270   0.913  0.00  0.00    -0.740 N 
ATOM      2  H   LIG    1       -0.376   3.673   1.096  0.00  0.00    +0.400 HD
ATOM      3  C   LIG    1       -2.353   3.775   1.481  0.00  0.00    +0.710 C 
ATOM      4  N   LIG    1       -2.257   4.774   2.381  0.00  0.00    -0.630 N 
ATOM      5  C   LIG    1       -0.960   5.399   2.683  0.00  0.00    +0.230 C 
ATOM      6  C   LIG    1       -0.769   5.420   4.200  0.00  0.00    +0.220 C 
ATOM      7  O   LIG    1       -1.918   6.011   4.812  0.00  0.00    -0.370 OA
ATOM      8  C   LIG    1       -3.133   5.290   4.595  0.00  0.00    +0.150 C 
ATOM      9  C   LIG    1       -3.445   5.267   3.094  0.00  0.00    +0.290 C 
ATOM     10  O   LIG    1       -3.443   3.328   1.182  0.00  0.00    -0.570 OA
ENDROOT
BRANCH   8  11
ATOM     11  C   LIG    1       -4.276   5.979   5.344  0.00  0.00    -0.060 C 
ATOM     12  C   LIG    1       -4.430   7.412   4.833  0.00  0.00    +0.040 C 
ATOM     13  C   LIG    1       -3.964   6.001   6.842  0.00  0.00    +0.030 C 
ATOM     14  C   LIG    1       -5.577   5.210   5.106  0.00  0.00    +0.040 C 
ENDBRANCH   8  11
BRANCH   1  15
ATOM     15  C   LIG    1       -1.333   2.113   0.019  0.00  0.00    +0.320 C 
BRANCH  15  19
ATOM     16  C   LIG    1        2.399   0.032  -0.023  0.00  0.00    +0.150 A 
ATOM     17  C   LIG    1        1.208  -0.679  -0.015  0.00  0.00    -0.010 A 
ATOM     18  C   LIG    1        0.003  -0.003   0.001  0.00  0.00    +0.100 A 
ATOM     19  C   LIG    1       -0.017   1.379   0.009  0.00  0.00    -0.160 A 
ATOM     20  C   LIG    1        1.170   2.089   0.001  0.00  0.00    +0.070 A 
ATOM     21  C   LIG    1        2.377   1.419  -0.015  0.00  0.00    -0.070 A 
BRANCH  16  23
ATOM     22  C   LIG    1        4.773   0.165  -0.046  0.00  0.00    +0.240 C 
ATOM     23  O   LIG    1        3.586  -0.630  -0.039  0.00  0.00    -0.310 OA
ENDBRANCH  16  23
ENDBRANCH  15  19
BRANCH  15  24
ATOM     24  C   LIG    1       -1.663   2.588  -1.397  0.00  0.00    +0.440 C 
ATOM     25  F   LIG    1       -0.654   3.446  -1.848  0.00  0.00    -0.180 F 
ATOM     26  F   LIG    1       -2.885   3.270  -1.387  0.00  0.00    -0.170 F 
ATOM     27  F   LIG    1       -1.752   1.484  -2.251  0.00  0.00    -0.180 F 
ENDBRANCH  15  24
ENDBRANCH   1  15
TORSDOF 5
