REMARK  Name = ZINCvU00000006Ip.0
REMARK                            x       y       z     vdW  Elec       q    Type
REMARK                         _______ _______ _______ _____ _____    ______ ____
ROOT
ATOM      1  C   LIG    1       -4.727  -3.528   1.101  0.00  0.00    +0.600 C 
ATOM      2  N   LIG    1       -4.315  -2.546   0.275  0.00  0.00    -0.600 N 
ATOM      3  C   LIG    1       -2.897  -2.388  -0.078  0.00  0.00    +0.320 C 
ATOM      4  C   LIG    1       -2.534  -0.930  -0.026  0.00  0.00    -0.060 C 
ATOM      5  C   LIG    1       -3.421   0.033   0.091  0.00  0.00    -0.020 C 
ATOM      6  C   LIG    1       -4.901  -0.189   0.195  0.00  0.00    +0.070 C 
ATOM      7  C   LIG    1       -5.269  -1.587  -0.309  0.00  0.00    +0.290 C 
ATOM      8  O   LIG    1       -5.915  -3.692   1.307  0.00  0.00    -0.530 OA
ENDROOT
BRANCH   5   9
ATOM      9  C   LIG    1       -2.930   1.421   0.116  0.00  0.00    -0.190 A 
ATOM     10  C   LIG    1       -2.155   2.060  -0.840  0.00  0.00    +0.250 A 
ATOM     11  N   LIG    1       -1.916   3.310  -0.459  0.00  0.00    -0.550 NA
ATOM     12  C   LIG    1       -2.475   3.592   0.707  0.00  0.00    +0.260 A 
ATOM     13  N   LIG    1       -2.506   4.722   1.486  0.00  0.00    -0.500 N 
ATOM     14  H   LIG    1       -2.046   5.522   1.189  0.00  0.00    +0.420 HD
ATOM     15  C   LIG    1       -3.167   4.731   2.655  0.00  0.00    +0.330 A 
ATOM     16  C   LIG    1       -3.827   3.632   3.114  0.00  0.00    -0.080 A 
ATOM     17  C   LIG    1       -3.833   2.456   2.370  0.00  0.00    +0.180 A 
ATOM     18  C   LIG    1       -3.150   2.428   1.161  0.00  0.00    -0.150 A 
ENDBRANCH   5   9
BRANCH   1  20
ATOM     19  C   LIG    1       -3.570  -4.610   3.116  0.00  0.00    +0.110 A 
ATOM     20  C   LIG    1       -3.741  -4.401   1.753  0.00  0.00    -0.230 A 
ATOM     21  C   LIG    1       -2.730  -5.245   1.102  0.00  0.00    -0.020 A 
ATOM     22  C   LIG    1       -2.059  -5.856   2.091  0.00  0.00    +0.000 A 
ATOM     23  C   LIG    1       -0.919  -6.822   1.898  0.00  0.00    +0.180 C 
ATOM     24  O   LIG    1       -2.562  -5.480   3.277  0.00  0.00    -0.170 OA
BRANCH  19  28
ATOM     25  C   LIG    1       -5.839  -2.811   6.222  0.00  0.00    +0.140 A 
ATOM     26  C   LIG    1       -4.921  -3.809   6.524  0.00  0.00    -0.020 A 
ATOM     27  C   LIG    1       -4.183  -4.396   5.519  0.00  0.00    +0.090 A 
ATOM     28  C   LIG    1       -4.359  -3.985   4.195  0.00  0.00    -0.070 A 
ATOM     29  C   LIG    1       -5.280  -2.977   3.897  0.00  0.00    +0.100 A 
ATOM     30  C   LIG    1       -6.017  -2.400   4.907  0.00  0.00    -0.080 A 
BRANCH  25  32
ATOM     31  C   LIG    1       -7.490  -1.216   6.835  0.00  0.00    +0.240 C 
ATOM     32  O   LIG    1       -6.565  -2.236   7.215  0.00  0.00    -0.310 OA
ENDBRANCH  25  32
ENDBRANCH  19  28
ENDBRANCH   1  20
TORSDOF 4
