REMARK  Name = ZINCvU00000006Ip.1
REMARK                            x       y       z     vdW  Elec       q    Type
REMARK                         _______ _______ _______ _____ _____    ______ ____
ROOT
ATOM      1  C   LIG    1       -1.332  -3.409  -0.104  0.00  0.00    +0.600 C 
ATOM      2  N   LIG    1       -2.669  -3.355  -0.262  0.00  0.00    -0.610 N 
ATOM      3  C   LIG    1       -3.361  -2.079  -0.490  0.00  0.00    +0.320 C 
ATOM      4  C   LIG    1       -4.608  -2.037   0.350  0.00  0.00    -0.040 C 
ATOM      5  C   LIG    1       -5.090  -3.082   0.982  0.00  0.00    -0.040 C 
ATOM      6  C   LIG    1       -4.460  -4.443   0.968  0.00  0.00    +0.080 C 
ATOM      7  C   LIG    1       -3.495  -4.574  -0.219  0.00  0.00    +0.290 C 
ATOM      8  O   LIG    1       -0.773  -4.485  -0.006  0.00  0.00    -0.530 OA
ENDROOT
BRANCH   5   9
ATOM      9  C   LIG    1       -6.333  -2.906   1.757  0.00  0.00    -0.140 A 
ATOM     10  C   LIG    1       -7.574  -3.333   1.409  0.00  0.00    +0.260 A 
ATOM     11  N   LIG    1       -8.470  -2.985   2.380  0.00  0.00    -0.580 N 
ATOM     12  H   LIG    1       -9.419  -3.183   2.354  0.00  0.00    +0.420 HD
ATOM     13  C   LIG    1       -7.834  -2.314   3.399  0.00  0.00    +0.280 A 
ATOM     14  N   LIG    1       -8.261  -1.784   4.537  0.00  0.00    -0.500 NA
ATOM     15  C   LIG    1       -7.441  -1.178   5.369  0.00  0.00    +0.300 A 
ATOM     16  C   LIG    1       -6.087  -1.062   5.096  0.00  0.00    -0.060 A 
ATOM     17  C   LIG    1       -5.584  -1.595   3.923  0.00  0.00    +0.100 A 
ATOM     18  C   LIG    1       -6.471  -2.237   3.061  0.00  0.00    -0.140 A 
ENDBRANCH   5   9
BRANCH   1  20
ATOM     19  C   LIG    1        0.293  -1.744   0.973  0.00  0.00    +0.110 A 
ATOM     20  C   LIG    1       -0.548  -2.166  -0.050  0.00  0.00    -0.230 A 
ATOM     21  C   LIG    1       -0.490  -1.105  -1.063  0.00  0.00    -0.020 A 
ATOM     22  C   LIG    1        0.352  -0.176  -0.585  0.00  0.00    +0.000 A 
ATOM     23  C   LIG    1        0.724   1.104  -1.289  0.00  0.00    +0.180 C 
ATOM     24  O   LIG    1        0.809  -0.557   0.618  0.00  0.00    -0.170 OA
BRANCH  19  28
ATOM     25  C   LIG    1        1.087  -3.838   4.580  0.00  0.00    +0.150 A 
ATOM     26  C   LIG    1        1.807  -2.690   4.273  0.00  0.00    -0.020 A 
ATOM     27  C   LIG    1        1.553  -2.007   3.103  0.00  0.00    +0.090 A 
ATOM     28  C   LIG    1        0.569  -2.471   2.225  0.00  0.00    -0.080 A 
ATOM     29  C   LIG    1       -0.156  -3.624   2.541  0.00  0.00    +0.100 A 
ATOM     30  C   LIG    1        0.108  -4.303   3.711  0.00  0.00    -0.080 A 
BRANCH  25  32
ATOM     31  C   LIG    1        0.565  -5.680   5.988  0.00  0.00    +0.240 C 
ATOM     32  O   LIG    1        1.341  -4.508   5.734  0.00  0.00    -0.310 OA
ENDBRANCH  25  32
ENDBRANCH  19  28
ENDBRANCH   1  20
TORSDOF 4
