REMARK  Name = ZINCqH00000396tg.0
REMARK                            x       y       z     vdW  Elec       q    Type
REMARK                         _______ _______ _______ _____ _____    ______ ____
ROOT
ATOM      1  N   LIG    1        1.770  -4.847  -0.042  0.00  0.00    -0.530 N 
ATOM      2  C   LIG    1        1.364  -5.404   1.158  0.00  0.00    +0.220 A 
ATOM      3  C   LIG    1        2.129  -5.273   2.308  0.00  0.00    -0.050 A 
ATOM      4  C   LIG    1        1.690  -5.830   3.491  0.00  0.00    +0.080 A 
ATOM      5  C   LIG    1        0.487  -6.518   3.549  0.00  0.00    -0.030 A 
ATOM      6  C   LIG    1       -0.291  -6.659   2.420  0.00  0.00    +0.110 A 
ATOM      7  C   LIG    1        0.141  -6.105   1.218  0.00  0.00    -0.200 A 
ATOM      8  C   LIG    1       -0.649  -6.231  -0.025  0.00  0.00    +0.440 A 
ATOM      9  C   LIG    1        0.115  -6.089  -1.283  0.00  0.00    -0.200 A 
ATOM     10  C   LIG    1       -0.341  -6.629  -2.482  0.00  0.00    +0.110 A 
ATOM     11  C   LIG    1        0.415  -6.477  -3.625  0.00  0.00    -0.030 A 
ATOM     12  C   LIG    1        1.621  -5.793  -3.582  0.00  0.00    +0.080 A 
ATOM     13  C   LIG    1        2.083  -5.250  -2.402  0.00  0.00    -0.050 A 
ATOM     14  O   LIG    1       -1.849  -6.439  -0.014  0.00  0.00    -0.450 OA
ATOM     15  C   LIG    1        1.336  -5.388  -1.238  0.00  0.00    +0.220 A 
ENDROOT
BRANCH   1  16
ATOM     16  C   LIG    1        2.664  -3.686  -0.044  0.00  0.00    +0.360 C 
BRANCH  16  19
ATOM     17  N   LIG    1        2.460  -1.221  -0.028  0.00  0.00    -0.630 N 
ATOM     18  H   LIG    1        3.428  -1.172  -0.038  0.00  0.00    +0.420 HD
ATOM     19  C   LIG    1        1.846  -2.421  -0.029  0.00  0.00    +0.480 C 
ATOM     20  O   LIG    1        0.634  -2.482  -0.017  0.00  0.00    -0.470 OA
BRANCH  17  22
ATOM     21  C   LIG    1        2.229   1.210  -0.013  0.00  0.00    -0.120 A 
ATOM     22  C   LIG    1        1.706  -0.056  -0.015  0.00  0.00    +0.050 A 
ATOM     23  S   LIG    1        0.002  -0.004   0.002  0.00  0.00    +0.320 S 
ATOM     24  C   LIG    1       -0.022   1.750   0.012  0.00  0.00    -0.100 A 
ATOM     25  C   LIG    1        1.212   2.238   0.003  0.00  0.00    +0.080 A 
BRANCH  21  27
ATOM     26  N   LIG    1        4.748   1.706  -0.034  0.00  0.00    -0.420 NA
ATOM     27  C   LIG    1        3.634   1.487  -0.025  0.00  0.00    +0.270 C 
ENDBRANCH  21  27
ENDBRANCH  17  22
ENDBRANCH  16  19
ENDBRANCH   1  16
TORSDOF 4
