REMARK  Name = ZINCvU0000000F5s.0
REMARK                            x       y       z     vdW  Elec       q    Type
REMARK                         _______ _______ _______ _____ _____    ______ ____
ROOT
ATOM      1  C   LIG    1       -0.772   3.823   7.886  0.00  0.00    +0.090 A 
ATOM      2  C   LIG    1       -2.080   3.774   7.624  0.00  0.00    -0.060 A 
ATOM      3  S   LIG    1       -2.289   3.070   6.023  0.00  0.00    +0.150 S 
ATOM      4  C   LIG    1       -0.596   2.900   5.864  0.00  0.00    +0.270 A 
ATOM      5  N   LIG    1       -0.002   3.348   6.926  0.00  0.00    -0.470 NA
ENDROOT
BRANCH   4   6
ATOM      6  N   LIG    1        0.052   2.365   4.755  0.00  0.00    -0.480 N 
ATOM      7  C   LIG    1        1.388   2.188   4.775  0.00  0.00    +0.510 C 
ATOM      8  O   LIG    1        2.015   2.419   5.787  0.00  0.00    -0.470 OA
ATOM      9  C   LIG    1        2.102   1.702   3.540  0.00  0.00    +0.110 C 
BRANCH   6  10
ATOM     10  C   LIG    1       -0.685   2.011   3.618  0.00  0.00    +0.100 A 
ATOM     11  C   LIG    1       -0.796   2.899   2.557  0.00  0.00    +0.030 A 
ATOM     12  C   LIG    1       -1.524   2.546   1.436  0.00  0.00    +0.040 A 
ATOM     13  C   LIG    1       -2.135   1.308   1.369  0.00  0.00    -0.070 A 
ATOM     14  C   LIG    1       -2.031   0.423   2.426  0.00  0.00    -0.070 A 
ATOM     15  C   LIG    1       -2.704  -0.923   2.351  0.00  0.00    +0.110 C 
ATOM     16  C   LIG    1       -2.922   0.924   0.142  0.00  0.00    +0.110 C 
ATOM     17  C   LIG    1       -1.306   0.770   3.549  0.00  0.00    +0.030 A 
ENDBRANCH   6  10
ENDBRANCH   4   6
BRANCH   1  18
ATOM     18  C   LIG    1       -0.220   4.375   9.175  0.00  0.00    +0.330 C 
BRANCH  18  19
ATOM     19  O   LIG    1       -1.315   4.816  10.021  0.00  0.00    -0.360 OA
BRANCH  19  20
ATOM     20  C   LIG    1       -0.991   5.338  11.215  0.00  0.00    +0.460 C 
ATOM     21  O   LIG    1        0.169   5.423  11.542  0.00  0.00    -0.490 OA
BRANCH  20  22
ATOM     22  C   LIG    1       -2.074   5.817  12.146  0.00  0.00    +0.170 C 
BRANCH  22  25
ATOM     23  C   LIG    1       -0.649   6.005  15.641  0.00  0.00    +0.130 A 
ATOM     24  C   LIG    1       -1.228   5.511  14.481  0.00  0.00    -0.060 A 
ATOM     25  C   LIG    1       -1.450   6.354  13.409  0.00  0.00    -0.050 A 
ATOM     26  C   LIG    1       -1.104   7.690  13.495  0.00  0.00    -0.010 A 
ATOM     27  C   LIG    1       -0.532   8.185  14.652  0.00  0.00    +0.050 A 
ATOM     28  C   LIG    1       -0.304   7.346  15.725  0.00  0.00    -0.110 A 
ATOM     29  C   LIG    1        0.320   7.886  16.986  0.00  0.00    +0.100 C 
BRANCH  23  31
ATOM     30  C   LIG    1       -0.806   3.809  16.538  0.00  0.00    +0.250 C 
ATOM     31  O   LIG    1       -0.426   5.177  16.696  0.00  0.00    -0.310 OA
ENDBRANCH  23  31
ENDBRANCH  22  25
ENDBRANCH  20  22
ENDBRANCH  19  20
ENDBRANCH  18  19
ENDBRANCH   1  18
TORSDOF 8
