REMARK  Name = ZINCtV00000vzfwg.0
REMARK                            x       y       z     vdW  Elec       q    Type
REMARK                         _______ _______ _______ _____ _____    ______ ____
ROOT
ATOM      1  C   LIG    1       -2.514   2.520   1.442  0.00  0.00    +0.250 C 
ATOM      2  C   LIG    1       -3.059   1.087   1.573  0.00  0.00    +0.020 C 
ATOM      3  C   LIG    1       -3.249   0.555   0.138  0.00  0.00    +0.020 C 
ATOM      4  C   LIG    1       -2.276   1.406  -0.715  0.00  0.00    +0.030 C 
ATOM      5  C   LIG    1       -2.392   2.809  -0.068  0.00  0.00    +0.040 C 
ENDROOT
BRANCH   5   6
ATOM      6  C   LIG    1       -1.157   3.624  -0.351  0.00  0.00    -0.030 A 
ATOM      7  C   LIG    1       -0.012   3.006  -0.818  0.00  0.00    +0.020 A 
ATOM      8  C   LIG    1        1.119   3.754  -1.082  0.00  0.00    +0.070 A 
ATOM      9  C   LIG    1        1.109   5.120  -0.869  0.00  0.00    -0.180 A 
ATOM     10  C   LIG    1       -0.033   5.738  -0.397  0.00  0.00    +0.070 A 
ATOM     11  C   LIG    1       -1.167   4.990  -0.138  0.00  0.00    +0.010 A 
BRANCH   9  12
ATOM     12  C   LIG    1        2.345   5.936  -1.152  0.00  0.00    +0.510 C 
ATOM     13  F   LIG    1        1.972   7.230  -1.532  0.00  0.00    -0.180 F 
ATOM     14  F   LIG    1        3.072   5.337  -2.187  0.00  0.00    -0.180 F 
ATOM     15  F   LIG    1        3.137   5.998  -0.001  0.00  0.00    -0.180 F 
ENDBRANCH   9  12
ENDBRANCH   5   6
BRANCH   1  17
ATOM     16  C   LIG    1       -0.134   1.683   1.708  0.00  0.00    +0.330 C 
ATOM     17  N   LIG    1       -1.199   2.617   2.080  0.00  0.00    -0.550 N 
BRANCH  17  18
ATOM     18  C   LIG    1       -0.964   3.584   3.027  0.00  0.00    +0.430 A 
ATOM     19  N   LIG    1        0.165   3.788   3.680  0.00  0.00    -0.520 NA
ATOM     20  C   LIG    1       -0.075   4.835   4.498  0.00  0.00    +0.230 A 
ATOM     21  N   LIG    1       -1.315   5.206   4.302  0.00  0.00    -0.370 NA
ATOM     22  O   LIG    1       -1.836   4.505   3.461  0.00  0.00    +0.040 OA
BRANCH  20  23
ATOM     23  C   LIG    1        0.888   5.452   5.444  0.00  0.00    -0.010 A 
ATOM     24  C   LIG    1        2.181   4.946   5.553  0.00  0.00    +0.080 A 
ATOM     25  C   LIG    1        3.075   5.527   6.430  0.00  0.00    +0.020 A 
ATOM     26  C   LIG    1        2.685   6.601   7.209  0.00  0.00    +0.050 A 
ATOM     27  C   LIG    1        1.401   7.104   7.110  0.00  0.00    +0.020 A 
ATOM     28  C   LIG    1        0.500   6.535   6.231  0.00  0.00    -0.010 A 
ATOM     29 CL   LIG    1       -1.112   7.168   6.107  0.00  0.00    -0.040 Cl
ENDBRANCH  20  23
ENDBRANCH  17  18
ENDBRANCH   1  17
TORSDOF 5
