REMARK  Name = ZINCrg000000nQ0a.0
REMARK                            x       y       z     vdW  Elec       q    Type
REMARK                         _______ _______ _______ _____ _____    ______ ____
ROOT
ATOM      1  C   LIG    1       -3.655  -1.940   0.053  0.00  0.00    -0.690 A 
ATOM      2  C   LIG    1       -3.604  -0.559   0.064  0.00  0.00    +0.160 A 
ATOM      3  C   LIG    1       -2.383   0.091   0.055  0.00  0.00    -0.060 A 
ATOM      4  C   LIG    1       -1.208  -0.642   0.024  0.00  0.00    +0.160 A 
ATOM      5  C   LIG    1       -1.259  -2.034   0.013  0.00  0.00    +0.100 A 
ATOM      6  C   LIG    1       -2.487  -2.679   0.028  0.00  0.00    +0.170 A 
ENDROOT
BRANCH   5   7
ATOM      7  N   LIG    1       -0.075  -2.780  -0.013  0.00  0.00    -0.640 N 
ATOM      8  H   LIG    1        0.748  -2.397   0.330  0.00  0.00    +0.430 HD
ATOM      9  C   LIG    1       -0.077  -4.032  -0.513  0.00  0.00    +0.590 C 
ATOM     10  O   LIG    1       -1.082  -4.476  -1.033  0.00  0.00    -0.500 OA
BRANCH   9  11
ATOM     11  C   LIG    1        1.142  -4.864  -0.429  0.00  0.00    +0.020 A 
ATOM     12  N   LIG    1        2.229  -4.379   0.128  0.00  0.00    -0.180 NA
ATOM     13  N   LIG    1        3.310  -5.064   0.230  0.00  0.00    -0.330 N 
ATOM     14  C   LIG    1        3.401  -6.321  -0.241  0.00  0.00    +0.480 A 
ATOM     15  C   LIG    1        2.280  -6.916  -0.861  0.00  0.00    -0.010 A 
ATOM     16  O   LIG    1        4.445  -6.943  -0.134  0.00  0.00    -0.510 OA
ATOM     17  C   LIG    1        4.480  -4.457   0.871  0.00  0.00    +0.370 C 
ATOM     18  C   LIG    1        1.137  -6.178  -0.956  0.00  0.00    +0.140 A 
ENDBRANCH   9  11
ENDBRANCH   5   7
BRANCH   1  19
ATOM     19  S   LIG    1       -5.214  -2.762   0.072  0.00  0.00    +2.690 S 
ATOM     20  O   LIG    1       -4.996  -4.050  -0.487  0.00  0.00    -0.950 OA
ATOM     21  O   LIG    1       -6.160  -1.838  -0.449  0.00  0.00    -0.950 OA
BRANCH  19  22
ATOM     22  N   LIG    1       -5.622  -3.003   1.659  0.00  0.00    -1.000 NA
BRANCH  22  24
ATOM     23  C   LIG    1       -7.881  -2.342   2.323  0.00  0.00    +0.010 C 
ATOM     24  C   LIG    1       -6.394  -1.988   2.380  0.00  0.00    +0.280 C 
ENDBRANCH  22  24
BRANCH  22  25
ATOM     25  C   LIG    1       -5.212  -4.233   2.342  0.00  0.00    +0.300 C 
ATOM     26  C   LIG    1       -3.904  -3.985   3.095  0.00  0.00    +0.000 C 
ENDBRANCH  22  25
ENDBRANCH  19  22
ENDBRANCH   1  19
BRANCH   4  27
ATOM     27  O   LIG    1       -0.007  -0.004   0.009  0.00  0.00    -0.310 OA
ATOM     28  C   LIG    1       -0.031   1.425   0.021  0.00  0.00    +0.250 C 
ENDBRANCH   4  27
TORSDOF 7
