REMARK  Name = ZINCrH000004qyC0.0
REMARK                            x       y       z     vdW  Elec       q    Type
REMARK                         _______ _______ _______ _____ _____    ______ ____
ROOT
ATOM      1  C   LIG    1       -5.822   1.261  -2.727  0.00  0.00    +0.570 C 
ATOM      2  N   LIG    1       -5.423   1.443  -4.001  0.00  0.00    -0.540 N 
ATOM      3  C   LIG    1       -4.006   1.677  -4.314  0.00  0.00    +0.280 C 
ATOM      4  C   LIG    1       -3.934   2.827  -5.326  0.00  0.00    +0.050 C 
ATOM      5  C   LIG    1       -4.633   2.395  -6.615  0.00  0.00    +0.100 C 
ATOM      6  C   LIG    1       -6.009   1.862  -6.315  0.00  0.00    -0.160 A 
ATOM      7  C   LIG    1       -6.950   1.824  -7.334  0.00  0.00    +0.150 A 
ATOM      8  C   LIG    1       -8.222   1.336  -7.090  0.00  0.00    -0.060 A 
ATOM      9  C   LIG    1       -8.562   0.883  -5.827  0.00  0.00    +0.150 A 
ATOM     10  C   LIG    1       -7.629   0.921  -4.807  0.00  0.00    -0.010 A 
ATOM     11  F   LIG    1       -9.804   0.406  -5.591  0.00  0.00    -0.130 F 
ATOM     12  F   LIG    1       -6.623   2.264  -8.568  0.00  0.00    -0.120 F 
ATOM     13  C   LIG    1       -6.351   1.405  -5.051  0.00  0.00    +0.210 A 
ATOM     14  O   LIG    1       -6.991   1.033  -2.483  0.00  0.00    -0.500 OA
ENDROOT
BRANCH   1  18
ATOM     15  C   LIG    1       -2.975   1.438   0.359  0.00  0.00    +0.400 A 
ATOM     16  C   LIG    1       -4.194   2.082   0.550  0.00  0.00    +0.000 A 
ATOM     17  C   LIG    1       -5.142   2.042  -0.452  0.00  0.00    +0.170 A 
ATOM     18  C   LIG    1       -4.840   1.339  -1.627  0.00  0.00    -0.200 A 
ATOM     19  C   LIG    1       -3.597   0.714  -1.742  0.00  0.00    +0.350 A 
ATOM     20  N   LIG    1       -2.720   0.782  -0.763  0.00  0.00    -0.500 NA
BRANCH  15  27
ATOM     21  C   LIG    1       -0.776  -0.672   0.745  0.00  0.00    +0.160 C 
ATOM     22  C   LIG    1       -1.025   0.566   1.569  0.00  0.00    +0.110 A 
ATOM     23  C   LIG    1       -0.304   0.972   2.638  0.00  0.00    -0.100 A 
ATOM     24  C   LIG    1       -0.866   2.165   3.110  0.00  0.00    +0.100 A 
ATOM     25  N   LIG    1       -1.888   2.467   2.352  0.00  0.00    -0.290 NA
ATOM     26  C   LIG    1       -0.376   2.964   4.290  0.00  0.00    +0.160 C 
ATOM     27  N   LIG    1       -2.011   1.479   1.366  0.00  0.00    -0.340 N 
ENDBRANCH  15  27
ENDBRANCH   1  18
TORSDOF 2
