REMARK  Name = ZINCvU00000007vZ.0
REMARK                            x       y       z     vdW  Elec       q    Type
REMARK                         _______ _______ _______ _____ _____    ______ ____
ROOT
ATOM      1  C   LIG    1        4.032   0.934  -3.313  0.00  0.00    -0.290 A 
ATOM      2  C   LIG    1        4.062   1.172  -1.954  0.00  0.00    +0.300 A 
ATOM      3  N   LIG    1        2.861   0.848  -1.452  0.00  0.00    -0.350 N 
ATOM      4  N   LIG    1        2.031   0.388  -2.478  0.00  0.00    -0.270 NA
ATOM      5  C   LIG    1        2.689   0.427  -3.614  0.00  0.00    +0.180 A 
ENDROOT
BRANCH   5   6
ATOM      6  C   LIG    1        2.174   0.029  -4.946  0.00  0.00    -0.090 A 
ATOM      7  C   LIG    1        1.277  -1.035  -5.072  0.00  0.00    +0.100 A 
ATOM      8  C   LIG    1        0.826  -1.367  -6.338  0.00  0.00    -0.040 A 
ATOM      9  C   LIG    1        1.272  -0.642  -7.427  0.00  0.00    +0.270 A 
ATOM     10  N   LIG    1        2.119   0.358  -7.277  0.00  0.00    -0.490 NA
ATOM     11  C   LIG    1        2.572   0.714  -6.093  0.00  0.00    +0.330 A 
ENDBRANCH   5   6
BRANCH   1  13
ATOM     12  O   LIG    1        4.966   0.893  -5.449  0.00  0.00    -0.510 OA
ATOM     13  C   LIG    1        5.130   1.146  -4.271  0.00  0.00    +0.600 C 
ATOM     14  N   LIG    1        6.316   1.621  -3.842  0.00  0.00    -0.670 N 
ATOM     15  H   LIG    1        6.423   1.895  -2.918  0.00  0.00    +0.410 HD
BRANCH  14  16
ATOM     16  C   LIG    1        7.392   1.719  -4.730  0.00  0.00    +0.150 A 
ATOM     17  C   LIG    1        7.543   0.785  -5.747  0.00  0.00    +0.060 A 
ATOM     18  C   LIG    1        8.604   0.887  -6.625  0.00  0.00    +0.040 A 
ATOM     19  C   LIG    1        9.522   1.912  -6.486  0.00  0.00    +0.050 A 
ATOM     20  C   LIG    1        9.378   2.841  -5.471  0.00  0.00    -0.160 A 
ATOM     21  C   LIG    1        8.316   2.747  -4.593  0.00  0.00    +0.040 A 
BRANCH  20  22
ATOM     22  C   LIG    1       10.381   3.956  -5.323  0.00  0.00    +0.510 C 
ATOM     23  F   LIG    1        9.753   5.078  -4.773  0.00  0.00    -0.180 F 
ATOM     24  F   LIG    1       10.904   4.282  -6.579  0.00  0.00    -0.170 F 
ATOM     25  F   LIG    1       11.417   3.542  -4.480  0.00  0.00    -0.180 F 
ENDBRANCH  20  22
ENDBRANCH  14  16
ENDBRANCH   1  13
BRANCH   3  26
ATOM     26  C   LIG    1        2.480   0.954  -0.041  0.00  0.00    +0.380 C 
BRANCH  26  27
ATOM     27  C   LIG    1        1.237   1.796   0.081  0.00  0.00    -0.120 A 
ATOM     28  C   LIG    1       -0.010   1.200   0.029  0.00  0.00    +0.050 A 
ATOM     29  C   LIG    1       -1.150   1.974   0.135  0.00  0.00    +0.010 A 
ATOM     30  C   LIG    1       -1.045   3.342   0.304  0.00  0.00    +0.030 A 
ATOM     31  C   LIG    1        0.202   3.938   0.357  0.00  0.00    +0.010 A 
ATOM     32  C   LIG    1        1.342   3.165   0.245  0.00  0.00    +0.020 A 
ENDBRANCH  26  27
ENDBRANCH   3  26
TORSDOF 6
