REMARK  Name = ZINCtV00001bB3jP.0
REMARK                            x       y       z     vdW  Elec       q    Type
REMARK                         _______ _______ _______ _____ _____    ______ ____
ROOT
ATOM      1  C   LIG    1        1.301   6.107   1.281  0.00  0.00    -0.060 C 
ATOM      2  C   LIG    1        0.639   5.867   2.637  0.00  0.00    +0.040 C 
ATOM      3  C   LIG    1       -0.857   6.249   2.606  0.00  0.00    +0.100 C 
ATOM      4  C   LIG    1       -1.455   5.441   1.465  0.00  0.00    -0.080 A 
ATOM      5  C   LIG    1       -2.494   4.564   1.590  0.00  0.00    +0.010 A 
ATOM      6  C   LIG    1       -2.945   3.895   0.459  0.00  0.00    +0.000 A 
ATOM      7  C   LIG    1       -2.342   4.107  -0.767  0.00  0.00    +0.000 A 
ATOM      8  C   LIG    1       -1.285   5.000  -0.887  0.00  0.00    +0.020 A 
ATOM      9  C   LIG    1       -0.851   5.659   0.227  0.00  0.00    -0.080 A 
ATOM     10  C   LIG    1       -0.894   7.702   2.159  0.00  0.00    -0.090 A 
ATOM     11  C   LIG    1       -1.462   8.722   2.866  0.00  0.00    +0.020 A 
ATOM     12  C   LIG    1       -1.422  10.002   2.278  0.00  0.00    +0.000 A 
ATOM     13  C   LIG    1       -0.825  10.218   1.051  0.00  0.00    +0.000 A 
ATOM     14  C   LIG    1       -0.252   9.163   0.351  0.00  0.00    +0.040 A 
ATOM     15  C   LIG    1       -0.292   7.912   0.898  0.00  0.00    -0.070 A 
ATOM     16  C   LIG    1        1.868   4.784   0.760  0.00  0.00    +0.060 C 
ATOM     17  C   LIG    1        0.290   6.664   0.254  0.00  0.00    +0.130 C 
ENDROOT
BRANCH   1  20
ATOM     18  N   LIG    1        3.438   6.823   2.301  0.00  0.00    -0.690 N 
ATOM     19  H   LIG    1        3.403   6.031   2.859  0.00  0.00    +0.410 HD
ATOM     20  C   LIG    1        2.428   7.093   1.450  0.00  0.00    +0.540 C 
ATOM     21  O   LIG    1        2.427   8.129   0.819  0.00  0.00    -0.500 OA
BRANCH  18  27
ATOM     22  C   LIG    1        5.622  10.719   4.363  0.00  0.00    +0.120 C 
ATOM     23  C   LIG    1        5.622   9.585   3.370  0.00  0.00    -0.070 A 
ATOM     24  C   LIG    1        6.709   9.397   2.536  0.00  0.00    +0.060 A 
ATOM     25  C   LIG    1        6.713   8.358   1.624  0.00  0.00    +0.050 A 
ATOM     26  C   LIG    1        5.633   7.499   1.547  0.00  0.00    -0.030 A 
ATOM     27  C   LIG    1        4.536   7.688   2.380  0.00  0.00    +0.160 A 
ATOM     28 CL   LIG    1        5.642   6.190   0.406  0.00  0.00    -0.050 Cl
ATOM     29  C   LIG    1        4.535   8.733   3.295  0.00  0.00    -0.020 A 
ATOM     30 CL   LIG    1        3.171   8.970   4.342  0.00  0.00    -0.040 Cl
ENDBRANCH  18  27
ENDBRANCH   1  20
TORSDOF 2
