REMARK  Name = ZINCvU00000005bF.0
REMARK                            x       y       z     vdW  Elec       q    Type
REMARK                         _______ _______ _______ _____ _____    ______ ____
ROOT
ATOM      1  C   LIG    1        7.543   1.072   1.350  0.00  0.00    +0.520 C 
ATOM      2  N   LIG    1        6.241   1.068   1.002  0.00  0.00    -0.610 N 
ATOM      3  C   LIG    1        5.555   2.320   0.656  0.00  0.00    +0.280 C 
ATOM      4  C   LIG    1        4.296   2.448   1.521  0.00  0.00    +0.010 C 
ATOM      5  C   LIG    1        3.437   1.192   1.352  0.00  0.00    +0.020 C 
ATOM      6  C   LIG    1        4.224  -0.033   1.822  0.00  0.00    +0.020 C 
ATOM      7  C   LIG    1        5.481  -0.189   0.961  0.00  0.00    +0.270 C 
ATOM      8  O   LIG    1        8.181   2.102   1.299  0.00  0.00    -0.540 OA
ENDROOT
BRANCH   5   9
ATOM      9  C   LIG    1        2.163   1.331   2.188  0.00  0.00    +0.140 C 
ATOM     10  C   LIG    1        1.271   0.073   2.037  0.00  0.00    +0.060 C 
ATOM     11  C   LIG    1       -0.139   0.606   2.380  0.00  0.00    +0.040 C 
ATOM     12  C   LIG    1       -0.064   2.126   2.142  0.00  0.00    +0.200 C 
ATOM     13  N   LIG    1        1.303   2.422   1.662  0.00  0.00    -0.420 N 
BRANCH  13  14
ATOM     14  C   LIG    1        1.733   3.656   2.119  0.00  0.00    +0.180 A 
ATOM     15  N   LIG    1        2.087   4.661   1.369  0.00  0.00    -0.240 NA
ATOM     16  N   LIG    1        2.452   5.723   1.946  0.00  0.00    -0.220 NA
ATOM     17  C   LIG    1        2.447   5.704   3.250  0.00  0.00    +0.090 A 
ATOM     18  S   LIG    1        1.892   4.110   3.762  0.00  0.00    +0.100 S 
BRANCH  17  19
ATOM     19  C   LIG    1        2.835   6.820   4.139  0.00  0.00    +0.070 A 
ATOM     20  N   LIG    1        2.836   6.819   5.452  0.00  0.00    -0.340 NA
ATOM     21  O   LIG    1        3.207   7.883   5.892  0.00  0.00    +0.130 OA
ATOM     22  C   LIG    1        3.509   8.751   4.916  0.00  0.00    +0.180 A 
ATOM     23  C   LIG    1        3.291   8.111   3.745  0.00  0.00    +0.000 A 
ENDBRANCH  17  19
ENDBRANCH  13  14
ENDBRANCH   5   9
BRANCH   1  24
ATOM     24  C   LIG    1        8.206  -0.203   1.803  0.00  0.00    -0.020 C 
ATOM     25  C   LIG    1        8.663  -1.002   0.582  0.00  0.00    +0.050 C 
BRANCH  24  26
ATOM     26  C   LIG    1        9.418   0.134   2.675  0.00  0.00    +0.030 C 
BRANCH  26  27
ATOM     27  C   LIG    1       10.017  -1.157   3.237  0.00  0.00    +0.010 C 
BRANCH  27  28
ATOM     28  C   LIG    1       11.228  -0.821   4.108  0.00  0.00    +0.000 C 
BRANCH  28  29
ATOM     29  C   LIG    1       11.827  -2.111   4.670  0.00  0.00    +0.000 C 
BRANCH  29  31
ATOM     30  C   LIG    1       13.637  -3.066   6.103  0.00  0.00    +0.000 C 
ATOM     31  C   LIG    1       13.038  -1.775   5.542  0.00  0.00    -0.010 C 
ENDBRANCH  29  31
ENDBRANCH  28  29
ENDBRANCH  27  28
ENDBRANCH  26  27
ENDBRANCH  24  26
ENDBRANCH   1  24
TORSDOF 9
