REMARK  Name = ZINCvU0000000IbJ.0
REMARK                            x       y       z     vdW  Elec       q    Type
REMARK                         _______ _______ _______ _____ _____    ______ ____
ROOT
ATOM      1  C   LIG    1       -2.728   3.752   0.035  0.00  0.00    +0.290 A 
ATOM      2  N   LIG    1       -1.458   3.448   0.027  0.00  0.00    -0.520 NA
ATOM      3  C   LIG    1       -1.310   2.116   0.020  0.00  0.00    +0.250 A 
ATOM      4  N   LIG    1       -2.502   1.560   0.017  0.00  0.00    -0.290 NA
ATOM      5  N   LIG    1       -3.437   2.608   0.032  0.00  0.00    -0.360 N 
ENDROOT
BRANCH   3   6
ATOM      6  C   LIG    1       -0.017   1.389   0.010  0.00  0.00    -0.030 A 
ATOM      7  C   LIG    1        0.002  -0.004   0.002  0.00  0.00    +0.110 A 
ATOM      8  C   LIG    1        1.208  -0.675  -0.013  0.00  0.00    +0.000 A 
ATOM      9  C   LIG    1        2.396   0.032  -0.021  0.00  0.00    +0.140 A 
ATOM     10  C   LIG    1        2.383   1.416  -0.013  0.00  0.00    -0.660 A 
ATOM     11  C   LIG    1        1.183   2.097   0.002  0.00  0.00    +0.170 A 
BRANCH  10  12
ATOM     12  S   LIG    1        3.902   2.309  -0.023  0.00  0.00    +2.500 S 
ATOM     13  O   LIG    1        4.837   1.418   0.569  0.00  0.00    -0.940 OA
ATOM     14  O   LIG    1        3.582   3.550   0.592  0.00  0.00    -0.930 OA
ATOM     15  C   LIG    1        4.275   2.549  -1.782  0.00  0.00    -0.260 C 
ENDBRANCH  10  12
ENDBRANCH   3   6
BRANCH   1  16
ATOM     16  C   LIG    1       -3.302   5.146   0.044  0.00  0.00    +0.130 C 
ATOM     17  C   LIG    1       -2.823   5.886   1.295  0.00  0.00    +0.070 C 
BRANCH  16  22
ATOM     18  C   LIG    1       -3.347   7.052  -3.218  0.00  0.00    +0.120 A 
ATOM     19  C   LIG    1       -1.992   7.247  -3.441  0.00  0.00    -0.070 A 
ATOM     20  C   LIG    1       -1.068   6.762  -2.535  0.00  0.00    +0.050 A 
ATOM     21  C   LIG    1       -1.493   6.088  -1.406  0.00  0.00    +0.010 A 
ATOM     22  C   LIG    1       -2.843   5.887  -1.185  0.00  0.00    -0.050 A 
ATOM     23  C   LIG    1       -3.771   6.370  -2.087  0.00  0.00    -0.010 A 
BRANCH  18  25
ATOM     24  C   LIG    1       -3.750   8.221  -5.249  0.00  0.00    +0.250 C 
ATOM     25  O   LIG    1       -4.258   7.528  -4.107  0.00  0.00    -0.320 OA
ENDBRANCH  18  25
ENDBRANCH  16  22
ENDBRANCH   1  16
BRANCH   5  26
ATOM     26  C   LIG    1       -4.896   2.481   0.038  0.00  0.00    +0.270 C 
ATOM     27  C   LIG    1       -5.347   1.725  -1.213  0.00  0.00    +0.050 C 
BRANCH  26  28
ATOM     28  C   LIG    1       -5.336   1.712   1.285  0.00  0.00    -0.070 C 
ATOM     29  C   LIG    1       -4.703   0.320   1.275  0.00  0.00    +0.040 C 
ATOM     30  C   LIG    1       -6.861   1.580   1.291  0.00  0.00    +0.040 C 
ATOM     31  C   LIG    1       -4.886   2.469   2.536  0.00  0.00    +0.030 C 
ENDBRANCH  26  28
ENDBRANCH   5  26
TORSDOF 7
