REMARK  Name = ZINCrg00000fSiU5.0
REMARK                            x       y       z     vdW  Elec       q    Type
REMARK                         _______ _______ _______ _____ _____    ______ ____
ROOT
ATOM      1  O   LIG    1        4.964   3.413  -1.694  0.00  0.00    -0.320 OA
ENDROOT
BRANCH   1   2
ATOM      2  C   LIG    1        5.285   3.658  -3.089  0.00  0.00    +0.190 C 
ATOM      3  C   LIG    1        4.546   4.908  -3.570  0.00  0.00    +0.070 C 
BRANCH   2   6
ATOM      4  N   LIG    1        7.302   4.110  -4.447  0.00  0.00    -0.670 N 
ATOM      5  H   LIG    1        6.739   4.086  -5.237  0.00  0.00    +0.410 HD
ATOM      6  C   LIG    1        6.771   3.865  -3.233  0.00  0.00    +0.520 C 
ATOM      7  O   LIG    1        7.489   3.812  -2.257  0.00  0.00    -0.490 OA
BRANCH   4  12
ATOM      8  C   LIG    1       12.831   5.279  -4.942  0.00  0.00    +0.090 C 
ATOM      9  C   LIG    1       11.363   4.969  -4.810  0.00  0.00    -0.100 A 
ATOM     10  C   LIG    1       10.931   4.067  -3.855  0.00  0.00    +0.030 A 
ATOM     11  C   LIG    1        9.585   3.780  -3.732  0.00  0.00    +0.030 A 
ATOM     12  C   LIG    1        8.666   4.399  -4.569  0.00  0.00    +0.130 A 
ATOM     13  C   LIG    1        9.103   5.300  -5.531  0.00  0.00    -0.010 A 
ATOM     14  C   LIG    1       10.449   5.587  -5.645  0.00  0.00    +0.030 A 
ENDBRANCH   4  12
ENDBRANCH   2   6
ENDBRANCH   1   2
BRANCH   1  15
ATOM     15  C   LIG    1        3.901   2.634  -1.441  0.00  0.00    +0.450 C 
ATOM     16  O   LIG    1        3.260   2.171  -2.355  0.00  0.00    -0.490 OA
BRANCH  15  17
ATOM     17  C   LIG    1        3.507   2.335  -0.017  0.00  0.00    +0.410 C 
BRANCH  17  18
ATOM     18  N   LIG    1        2.325   1.470  -0.009  0.00  0.00    -0.540 N 
ATOM     19  C   LIG    1        1.085   2.021   0.002  0.00  0.00    +0.630 A 
ATOM     20  N   LIG    1       -0.006   1.313   0.010  0.00  0.00    -0.520 NA
ATOM     21  C   LIG    1        0.020  -0.029   0.008  0.00  0.00    +0.330 A 
ATOM     22  C   LIG    1        1.259  -0.690  -0.003  0.00  0.00    -0.340 A 
ATOM     23  C   LIG    1        0.995  -2.072  -0.003  0.00  0.00    +0.330 A 
ATOM     24  N   LIG    1       -0.298  -2.243   0.007  0.00  0.00    -0.270 NA
ATOM     25  N   LIG    1       -0.935  -0.996   0.014  0.00  0.00    -0.350 N 
ATOM     26  C   LIG    1       -2.382  -0.771   0.026  0.00  0.00    +0.380 C 
ATOM     27  C   LIG    1        2.474   0.125  -0.012  0.00  0.00    +0.580 A 
ATOM     28  O   LIG    1        3.579  -0.389  -0.021  0.00  0.00    -0.510 OA
ENDBRANCH  17  18
ENDBRANCH  15  17
ENDBRANCH   1  15
TORSDOF 6
