REMARK  Name = ZINCvU0000000Cu9.0
REMARK                            x       y       z     vdW  Elec       q    Type
REMARK                         _______ _______ _______ _____ _____    ______ ____
ROOT
ATOM      1  C   LIG    1        3.778   2.246   1.837  0.00  0.00    +0.520 C 
ATOM      2  N   LIG    1        3.385   2.898   0.726  0.00  0.00    -0.610 N 
ATOM      3  C   LIG    1        3.808   4.286   0.473  0.00  0.00    +0.290 C 
ATOM      4  C   LIG    1        4.698   4.306  -0.773  0.00  0.00    +0.110 C 
ATOM      5  C   LIG    1        4.055   3.465  -1.855  0.00  0.00    -0.170 A 
ATOM      6  C   LIG    1        3.095   2.543  -1.651  0.00  0.00    -0.110 A 
ATOM      7  C   LIG    1        2.678   1.899  -2.811  0.00  0.00    +0.020 A 
ATOM      8  C   LIG    1        3.279   2.288  -3.932  0.00  0.00    -0.040 A 
ATOM      9  S   LIG    1        4.455   3.541  -3.566  0.00  0.00    +0.110 S 
ATOM     10  C   LIG    1        2.524   2.244  -0.269  0.00  0.00    +0.410 C 
ATOM     11  O   LIG    1        3.420   1.102   2.027  0.00  0.00    -0.530 OA
ENDROOT
BRANCH  10  12
ATOM     12  C   LIG    1        1.122   2.787  -0.167  0.00  0.00    -0.180 A 
ATOM     13  C   LIG    1        0.007   2.065  -0.285  0.00  0.00    +0.020 A 
ATOM     14  C   LIG    1       -1.170   2.783  -0.160  0.00  0.00    +0.010 A 
ATOM     15  C   LIG    1       -1.010   4.088   0.070  0.00  0.00    -0.060 A 
ATOM     16  S   LIG    1        0.706   4.471   0.126  0.00  0.00    +0.110 S 
ENDBRANCH  10  12
BRANCH   1  17
ATOM     17  C   LIG    1        4.661   2.936   2.844  0.00  0.00    +0.060 C 
BRANCH  17  18
ATOM     18  C   LIG    1        4.957   1.981   4.003  0.00  0.00    +0.140 C 
BRANCH  18  25
ATOM     19  C   LIG    1        8.126   1.968   4.019  0.00  0.00    +0.150 C 
ATOM     20  C   LIG    1        7.239   2.667   5.018  0.00  0.00    +0.090 A 
ATOM     21  N   LIG    1        7.646   3.375   6.040  0.00  0.00    -0.290 NA
ATOM     22  N   LIG    1        6.517   3.848   6.722  0.00  0.00    -0.330 N 
ATOM     23  C   LIG    1        5.420   3.402   6.069  0.00  0.00    +0.100 A 
ATOM     24  C   LIG    1        3.987   3.669   6.452  0.00  0.00    +0.150 C 
ATOM     25  C   LIG    1        5.840   2.672   5.010  0.00  0.00    -0.230 A 
BRANCH  22  26
ATOM     26  C   LIG    1        6.523   4.643   7.877  0.00  0.00    +0.150 A 
ATOM     27  C   LIG    1        7.424   5.693   7.993  0.00  0.00    +0.020 A 
ATOM     28  C   LIG    1        7.424   6.478   9.130  0.00  0.00    +0.030 A 
ATOM     29  C   LIG    1        6.536   6.212  10.155  0.00  0.00    +0.010 A 
ATOM     30  C   LIG    1        5.641   5.163  10.045  0.00  0.00    +0.030 A 
ATOM     31  C   LIG    1        5.633   4.378   8.908  0.00  0.00    +0.000 A 
ENDBRANCH  22  26
ENDBRANCH  18  25
ENDBRANCH  17  18
ENDBRANCH   1  17
TORSDOF 5
