REMARK  Name = ZINCtV00000L6jWs.0
REMARK                            x       y       z     vdW  Elec       q    Type
REMARK                         _______ _______ _______ _____ _____    ______ ____
ROOT
ATOM      1  C   LIG    1       -2.607   4.012   0.748  0.00  0.00    -0.080 A 
ATOM      2  C   LIG    1       -1.403   3.322   0.732  0.00  0.00    -0.070 A 
ATOM      3  C   LIG    1       -1.310   2.116   0.020  0.00  0.00    +0.200 A 
ATOM      4  N   LIG    1       -2.327   1.611  -0.644  0.00  0.00    -0.440 NA
ATOM      5  C   LIG    1       -3.522   2.203  -0.678  0.00  0.00    +0.130 A 
ATOM      6  C   LIG    1       -4.594   1.636  -1.391  0.00  0.00    +0.060 A 
ATOM      7  C   LIG    1       -5.801   2.266  -1.411  0.00  0.00    +0.040 A 
ATOM      8  C   LIG    1       -5.995   3.469  -0.735  0.00  0.00    +0.040 A 
ATOM      9  C   LIG    1       -4.979   4.048  -0.034  0.00  0.00    +0.020 A 
ATOM     10  C   LIG    1       -0.207   3.862   1.472  0.00  0.00    +0.120 C 
ATOM     11  C   LIG    1       -3.726   3.427   0.008  0.00  0.00    -0.060 A 
ENDROOT
BRANCH   3  12
ATOM     12  C   LIG    1       -0.017   1.390   0.010  0.00  0.00    -0.040 A 
ATOM     13  C   LIG    1        1.184   2.098   0.002  0.00  0.00    +0.040 A 
ATOM     14  C   LIG    1        2.384   1.417  -0.013  0.00  0.00    +0.030 A 
ATOM     15  C   LIG    1        2.398   0.034  -0.021  0.00  0.00    +0.050 A 
ATOM     16  C   LIG    1        1.209  -0.675  -0.013  0.00  0.00    -0.040 A 
ATOM     17 CL   LIG    1        1.235  -2.411  -0.022  0.00  0.00    -0.060 Cl
ATOM     18  C   LIG    1        0.002  -0.004   0.002  0.00  0.00    +0.070 A 
ENDBRANCH   3  12
BRANCH   1  21
ATOM     19  N   LIG    1       -3.144   5.278   2.774  0.00  0.00    -0.620 N 
ATOM     20  H   LIG    1       -3.329   4.436   3.220  0.00  0.00    +0.430 HD
ATOM     21  C   LIG    1       -2.753   5.286   1.484  0.00  0.00    +0.570 C 
ATOM     22  O   LIG    1       -2.521   6.340   0.925  0.00  0.00    -0.440 OA
BRANCH  19  26
ATOM     23  C   LIG    1       -3.622   8.403   4.978  0.00  0.00    -0.010 A 
ATOM     24  N   LIG    1       -3.239   8.649   3.759  0.00  0.00    -0.240 NA
ATOM     25  N   LIG    1       -3.060   7.665   2.990  0.00  0.00    -0.250 NA
ATOM     26  C   LIG    1       -3.281   6.477   3.466  0.00  0.00    +0.240 A 
ATOM     27  S   LIG    1       -3.780   6.654   5.150  0.00  0.00    +0.130 S 
BRANCH  23  28
ATOM     28  S   LIG    1       -3.928   9.602   6.232  0.00  0.00    +0.020 S 
BRANCH  28  30
ATOM     29  C   LIG    1       -3.803  12.331   6.362  0.00  0.00    +0.080 C 
ATOM     30  C   LIG    1       -3.579  11.171   5.391  0.00  0.00    +0.090 C 
ENDBRANCH  28  30
ENDBRANCH  23  28
ENDBRANCH  19  26
ENDBRANCH   1  21
TORSDOF 5
