REMARK  Name = ZINCpe00000gMHWD.0
REMARK                            x       y       z     vdW  Elec       q    Type
REMARK                         _______ _______ _______ _____ _____    ______ ____
ROOT
ATOM      1  C   LIG    1        0.455   1.340  -0.570  0.00  0.00    +0.060 C 
ATOM      2  C   LIG    1        0.285  -0.151  -0.271  0.00  0.00    +0.200 C 
ATOM      3  C   LIG    1       -1.204  -0.514  -0.281  0.00  0.00    +0.230 C 
ATOM      4  O   LIG    1       -1.365  -1.857   0.180  0.00  0.00    -0.370 OA
ATOM      5  C   LIG    1       -0.937  -2.069   1.528  0.00  0.00    +0.200 C 
ATOM      6  C   LIG    1        0.566  -1.786   1.631  0.00  0.00    +0.280 C 
ATOM      7  N   LIG    1        0.827  -0.453   1.064  0.00  0.00    -1.000 NA
ENDROOT
BRANCH   5   8
ATOM      8  C   LIG    1       -1.209  -3.497   1.925  0.00  0.00    -0.090 A 
ATOM      9  C   LIG    1       -0.995  -4.519   1.019  0.00  0.00    +0.040 A 
ATOM     10  C   LIG    1       -1.240  -5.829   1.385  0.00  0.00    +0.000 A 
ATOM     11  C   LIG    1       -1.708  -6.117   2.654  0.00  0.00    +0.010 A 
ATOM     12  C   LIG    1       -1.927  -5.094   3.558  0.00  0.00    +0.010 A 
ATOM     13  C   LIG    1       -1.677  -3.784   3.193  0.00  0.00    +0.020 A 
ENDBRANCH   5   8
BRANCH   7  14
ATOM     14  S   LIG    1        1.705   0.673   1.903  0.00  0.00    +2.600 S 
ATOM     15  O   LIG    1        1.811   0.130   3.212  0.00  0.00    -0.930 OA
ATOM     16  O   LIG    1        1.019   1.896   1.670  0.00  0.00    -0.940 OA
BRANCH  14  17
ATOM     17  C   LIG    1        3.324   0.686   1.085  0.00  0.00    -0.340 C 
BRANCH  17  18
ATOM     18  C   LIG    1        4.301   1.533   1.903  0.00  0.00    +0.240 C 
ATOM     19  C   LIG    1        3.705   2.938   2.115  0.00  0.00    +0.070 C 
ATOM     20  C   LIG    1        4.577   3.559   3.243  0.00  0.00    -0.300 C 
ATOM     21  S   LIG    1        4.843   2.094   4.313  0.00  0.00    +2.560 S 
ATOM     22  O   LIG    1        6.214   1.946   4.657  0.00  0.00    -0.950 OA
ATOM     23  O   LIG    1        3.813   1.971   5.285  0.00  0.00    -0.940 OA
ATOM     24  N   LIG    1        4.540   0.885   3.201  0.00  0.00    -1.000 NA
ATOM     25  C   LIG    1        4.515  -0.554   3.469  0.00  0.00    +0.340 C 
ENDBRANCH  17  18
ENDBRANCH  14  17
ENDBRANCH   7  14
TORSDOF 4
