REMARK  Name = ZINCrD000000D7kS.0
REMARK                            x       y       z     vdW  Elec       q    Type
REMARK                         _______ _______ _______ _____ _____    ______ ____
ROOT
ATOM      1  C   LIG    1        5.871   5.361  -3.171  0.00  0.00    -0.630 A 
ATOM      2  C   LIG    1        6.558   5.972  -2.138  0.00  0.00    +0.050 A 
ATOM      3  C   LIG    1        6.060   5.925  -0.849  0.00  0.00    +0.040 A 
ATOM      4  C   LIG    1        4.873   5.268  -0.589  0.00  0.00    -0.010 A 
ATOM      5  C   LIG    1        4.180   4.653  -1.625  0.00  0.00    +0.200 A 
ATOM      6  C   LIG    1        4.687   4.697  -2.917  0.00  0.00    +0.040 A 
ENDROOT
BRANCH   1   8
ATOM      7  O   LIG    1        5.403   5.237  -5.682  0.00  0.00    -0.950 OA
ATOM      8  S   LIG    1        6.511   5.424  -4.812  0.00  0.00    +2.690 S 
ATOM      9  O   LIG    1        7.359   6.563  -4.868  0.00  0.00    -0.950 OA
BRANCH   8  10
ATOM     10  N   LIG    1        7.488   4.102  -5.008  0.00  0.00    -1.000 NA
ATOM     11  C   LIG    1        8.921   4.177  -4.691  0.00  0.00    +0.300 C 
ATOM     12  C   LIG    1        9.265   3.043  -3.712  0.00  0.00    -0.010 C 
ATOM     13  C   LIG    1        8.823   1.707  -4.314  0.00  0.00    +0.170 C 
ATOM     14  C   LIG    1        7.308   1.717  -4.526  0.00  0.00    +0.030 C 
ATOM     15  C   LIG    1        6.941   2.834  -5.508  0.00  0.00    +0.300 C 
BRANCH  13  16
ATOM     16  O   LIG    1        9.172   0.645  -3.423  0.00  0.00    -0.570 OA
ATOM     17  H   LIG    1       10.120   0.579  -3.242  0.00  0.00    +0.380 HD
ENDBRANCH  13  16
ENDBRANCH   8  10
ENDBRANCH   1   8
BRANCH   5  18
ATOM     18  N   LIG    1        2.980   3.987  -1.366  0.00  0.00    -0.740 N 
ATOM     19  H   LIG    1        2.498   3.559  -2.089  0.00  0.00    +0.400 HD
BRANCH  18  20
ATOM     20  C   LIG    1        2.451   3.937  -0.001  0.00  0.00    +0.310 C 
BRANCH  20  21
ATOM     21  C   LIG    1        1.156   3.166   0.008  0.00  0.00    -0.110 A 
ATOM     22  C   LIG    1       -0.050   3.840   0.023  0.00  0.00    +0.020 A 
ATOM     23  C   LIG    1       -1.238   3.133   0.030  0.00  0.00    +0.000 A 
ATOM     24  C   LIG    1       -1.219   1.751   0.017  0.00  0.00    +0.020 A 
ATOM     25  C   LIG    1       -0.013   1.076   0.008  0.00  0.00    +0.010 A 
ATOM     26  C   LIG    1        1.175   1.783   0.000  0.00  0.00    -0.030 A 
BRANCH  26  27
ATOM     27  C   LIG    1        2.490   1.047  -0.016  0.00  0.00    -0.010 C 
ATOM     28  C   LIG    1        2.450  -0.467  -0.227  0.00  0.00    +0.030 C 
ATOM     29  C   LIG    1        2.787   0.104   1.151  0.00  0.00    +0.030 C 
ENDBRANCH  26  27
ENDBRANCH  20  21
ENDBRANCH  18  20
ENDBRANCH   5  18
TORSDOF 7
