REMARK  Name = ZINCkj000005isdd.0
REMARK                            x       y       z     vdW  Elec       q    Type
REMARK                         _______ _______ _______ _____ _____    ______ ____
ROOT
ATOM      1  C   LIG    1        3.421  -3.208   2.753  0.00  0.00    +0.180 C 
ATOM      2  C   LIG    1        2.836  -4.546   2.248  0.00  0.00    +0.060 C 
ATOM      3  C   LIG    1        1.681  -4.151   1.309  0.00  0.00    +0.180 C 
ATOM      4  N   LIG    1        1.605  -2.674   1.313  0.00  0.00    -0.390 N 
ATOM      5  H   LIG    1        0.936  -2.361   2.001  0.00  0.00    +0.430 HD
ATOM      6  C   LIG    1        2.966  -2.199   1.669  0.00  0.00    +0.280 C 
ENDROOT
BRANCH   1   8
ATOM      7  C   LIG    1        5.355  -3.585   4.118  0.00  0.00    +0.230 C 
ATOM      8  O   LIG    1        4.848  -3.269   2.820  0.00  0.00    -0.370 OA
ENDBRANCH   1   8
BRANCH   4   9
ATOM      9  C   LIG    1        1.229  -2.182  -0.019  0.00  0.00    +0.330 C 
BRANCH   9  10
ATOM     10  C   LIG    1        1.104  -0.681   0.016  0.00  0.00    -0.160 A 
ATOM     11  C   LIG    1        2.139   0.107  -0.447  0.00  0.00    +0.050 A 
ATOM     12  C   LIG    1        2.025   1.484  -0.414  0.00  0.00    +0.030 A 
ATOM     13  C   LIG    1        0.876   2.067   0.083  0.00  0.00    +0.060 A 
ATOM     14  C   LIG    1       -0.164   1.278   0.549  0.00  0.00    -0.110 A 
ATOM     15  C   LIG    1       -1.398   1.952   1.090  0.00  0.00    +0.290 C 
ATOM     16  O   LIG    1       -2.476   1.020   1.167  0.00  0.00    -0.360 OA
ATOM     17  C   LIG    1       -2.132  -0.181   1.867  0.00  0.00    +0.230 C 
ATOM     18  C   LIG    1       -1.164  -0.988   0.999  0.00  0.00    +0.050 C 
ATOM     19  C   LIG    1       -0.050  -0.096   0.513  0.00  0.00    -0.050 A 
ENDBRANCH   9  10
ENDBRANCH   4   9
BRANCH   3  20
ATOM     20  C   LIG    1        0.366  -4.742   1.821  0.00  0.00    +0.220 C 
BRANCH  20  21
ATOM     21  O   LIG    1        0.184  -4.382   3.192  0.00  0.00    -0.580 OA
ATOM     22  H   LIG    1       -0.631  -4.724   3.584  0.00  0.00    +0.410 HD
ENDBRANCH  20  21
ENDBRANCH   3  20
TORSDOF 5
