REMARK  Name = ZINCkj000005isdd.1
REMARK                            x       y       z     vdW  Elec       q    Type
REMARK                         _______ _______ _______ _____ _____    ______ ____
ROOT
ATOM      1  C   LIG    1        0.668  -0.699   1.151  0.00  0.00    +0.180 C 
ATOM      2  C   LIG    1        2.127  -1.056   0.764  0.00  0.00    +0.090 C 
ATOM      3  C   LIG    1        1.967  -2.375  -0.019  0.00  0.00    +0.180 C 
ATOM      4  N   LIG    1        0.685  -2.975   0.393  0.00  0.00    -0.380 N 
ATOM      5  H   LIG    1        0.075  -3.056  -0.406  0.00  0.00    +0.430 HD
ATOM      6  C   LIG    1        0.061  -2.101   1.409  0.00  0.00    +0.280 C 
ENDROOT
BRANCH   1   8
ATOM      7  C   LIG    1       -0.020   1.382   0.181  0.00  0.00    +0.240 C 
ATOM      8  O   LIG    1       -0.002  -0.043   0.072  0.00  0.00    -0.380 OA
ENDBRANCH   1   8
BRANCH   4   9
ATOM      9  C   LIG    1        0.927  -4.306   0.968  0.00  0.00    +0.310 C 
BRANCH   9  10
ATOM     10  C   LIG    1       -0.392  -4.963   1.286  0.00  0.00    -0.160 A 
ATOM     11  C   LIG    1       -0.864  -4.964   2.584  0.00  0.00    +0.040 A 
ATOM     12  C   LIG    1       -2.076  -5.561   2.875  0.00  0.00    +0.030 A 
ATOM     13  C   LIG    1       -2.804  -6.167   1.870  0.00  0.00    +0.060 A 
ATOM     14  C   LIG    1       -2.327  -6.173   0.568  0.00  0.00    -0.110 A 
ATOM     15  C   LIG    1       -3.148  -6.849  -0.500  0.00  0.00    +0.290 C 
ATOM     16  O   LIG    1       -2.707  -6.440  -1.794  0.00  0.00    -0.370 OA
ATOM     17  C   LIG    1       -1.295  -6.591  -1.981  0.00  0.00    +0.240 C 
ATOM     18  C   LIG    1       -0.578  -5.542  -1.129  0.00  0.00    +0.040 C 
ATOM     19  C   LIG    1       -1.123  -5.568   0.276  0.00  0.00    -0.050 A 
ENDBRANCH   9  10
ENDBRANCH   4   9
BRANCH   3  20
ATOM     20  C   LIG    1        3.118  -3.325   0.319  0.00  0.00    +0.200 C 
BRANCH  20  21
ATOM     21  O   LIG    1        4.362  -2.700  -0.005  0.00  0.00    -0.560 OA
ATOM     22  H   LIG    1        5.137  -3.245   0.183  0.00  0.00    +0.410 HD
ENDBRANCH  20  21
ENDBRANCH   3  20
TORSDOF 5
