REMARK  Name = ZINCpe00000R9X48.0
REMARK                            x       y       z     vdW  Elec       q    Type
REMARK                         _______ _______ _______ _____ _____    ______ ____
ROOT
ATOM      1  C   LIG    1        6.979   2.087  -1.667  0.00  0.00    +0.530 C 
ATOM      2  N   LIG    1        5.943   1.866  -0.834  0.00  0.00    -0.620 N 
ATOM      3  C   LIG    1        6.016   1.833   0.634  0.00  0.00    +0.240 C 
ATOM      4  C   LIG    1        4.587   1.577   1.159  0.00  0.00    +0.060 C 
ATOM      5  C   LIG    1        3.695   2.042  -0.022  0.00  0.00    +0.050 C 
ATOM      6  C   LIG    1        4.548   1.617  -1.243  0.00  0.00    +0.280 C 
ATOM      7  O   LIG    1        6.801   2.092  -2.867  0.00  0.00    -0.530 OA
ENDROOT
BRANCH   5   8
ATOM      8  C   LIG    1        2.370   1.324  -0.013  0.00  0.00    +0.240 A 
ATOM      9  C   LIG    1        1.208   2.038   0.002  0.00  0.00    -0.190 A 
ATOM     10  C   LIG    1       -0.016   1.346   0.009  0.00  0.00    +0.540 A 
ATOM     11  N   LIG    1        0.002  -0.004   0.002  0.00  0.00    -0.650 N 
ATOM     12  H   LIG    1       -0.830  -0.502   0.007  0.00  0.00    +0.410 HD
ATOM     13  C   LIG    1        1.192  -0.663  -0.013  0.00  0.00    +0.640 A 
ATOM     14  O   LIG    1       -1.074   1.953   0.018  0.00  0.00    -0.540 OA
ATOM     15  N   LIG    1        2.335  -0.007  -0.020  0.00  0.00    -0.590 NA
BRANCH  13  16
ATOM     16  N   LIG    1        1.202  -2.032  -0.020  0.00  0.00    -0.590 N 
ATOM     17  C   LIG    1       -0.061  -2.775  -0.011  0.00  0.00    +0.300 C 
ATOM     18  C   LIG    1        2.477  -2.755  -0.036  0.00  0.00    +0.330 C 
ENDBRANCH  13  16
ENDBRANCH   5   8
BRANCH   1  19
ATOM     19  C   LIG    1        8.357   2.328  -1.108  0.00  0.00    +0.150 C 
BRANCH  19  26
ATOM     20  C   LIG    1        8.919   5.080  -2.575  0.00  0.00    +0.150 C 
ATOM     21  C   LIG    1        9.576   3.760  -2.888  0.00  0.00    +0.090 A 
ATOM     22  N   LIG    1       10.477   3.553  -3.813  0.00  0.00    -0.300 NA
ATOM     23  N   LIG    1       10.832   2.198  -3.783  0.00  0.00    -0.380 N 
ATOM     24  C   LIG    1       10.116   1.603  -2.806  0.00  0.00    +0.240 A 
ATOM     25  C   LIG    1       11.810   1.543  -4.655  0.00  0.00    +0.350 C 
ATOM     26  C   LIG    1        9.327   2.546  -2.240  0.00  0.00    -0.220 A 
ENDBRANCH  19  26
ENDBRANCH   1  19
TORSDOF 4
