REMARK  Name = ZINCqH0000000k8l.0
REMARK                            x       y       z     vdW  Elec       q    Type
REMARK                         _______ _______ _______ _____ _____    ______ ____
ROOT
ATOM      1  N   LIG    1        4.422   2.421   0.119  0.00  0.00    -0.510 N 
ATOM      2  C   LIG    1        3.598   1.356   0.122  0.00  0.00    +0.570 A 
ATOM      3  C   LIG    1        2.188   1.574   0.096  0.00  0.00    -0.240 A 
ATOM      4  C   LIG    1        1.730   2.890   0.068  0.00  0.00    +0.090 A 
ATOM      5  S   LIG    1       -0.028   2.903   0.040  0.00  0.00    +0.190 S 
ATOM      6  C   LIG    1       -0.108   1.151   0.059  0.00  0.00    -0.050 A 
ATOM      7  N   LIG    1        2.618   3.905   0.068  0.00  0.00    -0.520 NA
ATOM      8  C   LIG    1        1.097   0.617   0.092  0.00  0.00    +0.090 A 
ATOM      9  O   LIG    1        4.049   0.224   0.147  0.00  0.00    -0.510 OA
ATOM     10  C   LIG    1        3.911   3.687   0.092  0.00  0.00    +0.360 A 
ENDROOT
BRANCH   1  11
ATOM     11  C   LIG    1        5.873   2.222   0.146  0.00  0.00    +0.340 C 
BRANCH  11  13
ATOM     12  C   LIG    1        7.038   1.147   2.003  0.00  0.00    +0.070 C 
ATOM     13  C   LIG    1        6.347   2.175   1.575  0.00  0.00    -0.070 C 
ENDBRANCH  11  13
ENDBRANCH   1  11
BRANCH  10  14
ATOM     14  S   LIG    1        5.014   5.060   0.089  0.00  0.00    +0.100 S 
BRANCH  14  15
ATOM     15  C   LIG    1        3.822   6.421   0.048  0.00  0.00    +0.110 C 
BRANCH  15  16
ATOM     16  C   LIG    1        4.560   7.736   0.040  0.00  0.00    +0.530 C 
ATOM     17  N   LIG    1        3.872   8.894   0.011  0.00  0.00    -0.600 N 
ATOM     18  C   LIG    1        2.407   8.876  -0.012  0.00  0.00    +0.290 C 
ATOM     19  O   LIG    1        5.772   7.750   0.059  0.00  0.00    -0.520 OA
BRANCH  17  20
ATOM     20  C   LIG    1        4.589  10.172   0.003  0.00  0.00    +0.230 C 
ATOM     21  C   LIG    1        5.463  10.274   1.255  0.00  0.00    +0.020 C 
ATOM     22  C   LIG    1        4.580  10.193   2.501  0.00  0.00    +0.010 C 
ATOM     23  C   LIG    1        3.571  11.344   2.488  0.00  0.00    -0.020 C 
ATOM     24  C   LIG    1        2.698  11.242   1.236  0.00  0.00    +0.010 C 
ATOM     25  C   LIG    1        2.688  11.263   3.734  0.00  0.00    +0.000 C 
ATOM     26  C   LIG    1        3.581  11.322  -0.011  0.00  0.00    +0.020 C 
ENDBRANCH  17  20
ENDBRANCH  15  16
ENDBRANCH  14  15
ENDBRANCH  10  14
TORSDOF 6
