REMARK  Name = ZINCpk00000xI5ld.0
REMARK                            x       y       z     vdW  Elec       q    Type
REMARK                         _______ _______ _______ _____ _____    ______ ____
ROOT
ATOM      1  N   LIG    1       -2.102  -1.209  -2.332  0.00  0.00    -0.390 N 
ATOM      2  C   LIG    1       -0.930  -0.653  -1.967  0.00  0.00    +0.300 A 
ATOM      3  N   LIG    1       -0.169  -1.557  -1.404  0.00  0.00    -0.490 NA
ATOM      4  C   LIG    1       -0.809  -2.729  -1.369  0.00  0.00    +0.320 A 
ATOM      5  N   LIG    1       -0.481  -3.989  -0.895  0.00  0.00    -0.510 N 
ATOM      6  C   LIG    1        0.823  -4.217  -0.268  0.00  0.00    +0.350 C 
ATOM      7  C   LIG    1       -1.358  -5.003  -1.010  0.00  0.00    +0.710 A 
ATOM      8  O   LIG    1       -1.053  -6.102  -0.589  0.00  0.00    -0.530 OA
ATOM      9  N   LIG    1       -2.564  -4.832  -1.581  0.00  0.00    -0.550 N 
ATOM     10  C   LIG    1       -3.482  -5.969  -1.681  0.00  0.00    +0.350 C 
ATOM     11  C   LIG    1       -2.941  -3.629  -2.061  0.00  0.00    +0.590 A 
ATOM     12  O   LIG    1       -4.035  -3.487  -2.576  0.00  0.00    -0.510 OA
ATOM     13  C   LIG    1       -2.051  -2.537  -1.960  0.00  0.00    -0.150 A 
ENDROOT
BRANCH   1  14
ATOM     14  C   LIG    1       -3.218  -0.531  -2.997  0.00  0.00    +0.320 C 
BRANCH  14  16
ATOM     15  C   LIG    1       -4.272  -0.037  -5.208  0.00  0.00    +0.040 C 
ATOM     16  C   LIG    1       -3.046  -0.634  -4.514  0.00  0.00    -0.030 C 
ATOM     17  C   LIG    1       -1.794   0.136  -4.938  0.00  0.00    +0.020 C 
ENDBRANCH  14  16
ENDBRANCH   1  14
BRANCH   2  18
ATOM     18  C   LIG    1       -0.550   0.790  -2.180  0.00  0.00    +0.300 C 
BRANCH  18  19
ATOM     19  N   LIG    1       -0.965   1.583  -1.015  0.00  0.00    -0.530 NA
ATOM     20  C   LIG    1       -0.209   1.194   0.182  0.00  0.00    +0.170 C 
ATOM     21  C   LIG    1       -0.766   1.934   1.401  0.00  0.00    +0.020 C 
ATOM     22  C   LIG    1       -0.652   3.443   1.171  0.00  0.00    +0.010 C 
ATOM     23  C   LIG    1       -1.407   3.815  -0.108  0.00  0.00    +0.030 C 
ATOM     24  C   LIG    1       -0.832   3.021  -1.283  0.00  0.00    +0.130 C 
ATOM     25  C   LIG    1       -1.597   3.374  -2.560  0.00  0.00    +0.040 C 
ENDBRANCH  18  19
ENDBRANCH   2  18
TORSDOF 4
