REMARK  Name = ZINCvU00000004qA.0
REMARK                            x       y       z     vdW  Elec       q    Type
REMARK                         _______ _______ _______ _____ _____    ______ ____
ROOT
ATOM      1  C   LIG    1       -6.073   0.562   0.033  0.00  0.00    +0.270 C 
ATOM      2  C   LIG    1       -4.545   0.629  -0.016  0.00  0.00    +0.080 C 
ENDROOT
BRANCH   1   6
ATOM      3  N   LIG    1       -7.830  -2.701   2.061  0.00  0.00    -0.500 N 
ATOM      4  C   LIG    1       -8.334  -1.353   2.359  0.00  0.00    +0.190 C 
ATOM      5  C   LIG    1       -7.949  -0.405   1.221  0.00  0.00    +0.180 C 
ATOM      6  N   LIG    1       -6.488  -0.396   1.067  0.00  0.00    -0.530 NA
ATOM      7  C   LIG    1       -5.984  -1.744   0.770  0.00  0.00    +0.200 C 
ATOM      8  C   LIG    1       -6.369  -2.692   1.908  0.00  0.00    +0.200 C 
BRANCH   3  14
ATOM      9  C   LIG    1      -10.235  -6.801   3.309  0.00  0.00    +0.090 C 
ATOM     10  C   LIG    1       -9.391  -5.609   3.678  0.00  0.00    -0.080 A 
ATOM     11  C   LIG    1       -9.006  -5.415   4.992  0.00  0.00    +0.000 A 
ATOM     12  C   LIG    1       -8.232  -4.321   5.335  0.00  0.00    +0.010 A 
ATOM     13  C   LIG    1       -7.835  -3.422   4.364  0.00  0.00    -0.030 A 
ATOM     14  C   LIG    1       -8.225  -3.611   3.044  0.00  0.00    +0.090 A 
ATOM     15  C   LIG    1       -9.003  -4.710   2.703  0.00  0.00    -0.060 A 
ATOM     16  C   LIG    1       -9.423  -4.922   1.272  0.00  0.00    +0.100 C 
ENDBRANCH   3  14
ENDBRANCH   1   6
BRANCH   1  17
ATOM     17  C   LIG    1       -6.625   1.925   0.360  0.00  0.00    +0.200 A 
ATOM     18  N   LIG    1       -7.231   2.738  -0.468  0.00  0.00    -0.470 NA
ATOM     19  C   LIG    1       -7.545   3.833   0.261  0.00  0.00    +0.210 A 
ATOM     20  N   LIG    1       -7.122   3.619   1.480  0.00  0.00    -0.370 NA
ATOM     21  O   LIG    1       -6.593   2.530   1.552  0.00  0.00    +0.100 OA
BRANCH  19  22
ATOM     22  C   LIG    1       -8.244   5.047  -0.228  0.00  0.00    -0.020 A 
ATOM     23  C   LIG    1       -8.644   5.135  -1.560  0.00  0.00    +0.110 A 
ATOM     24  C   LIG    1       -9.288   6.269  -2.011  0.00  0.00    +0.030 A 
ATOM     25  C   LIG    1       -9.542   7.315  -1.143  0.00  0.00    +0.090 A 
ATOM     26  C   LIG    1       -9.152   7.231   0.182  0.00  0.00    -0.180 A 
ATOM     27  C   LIG    1       -8.507   6.102   0.644  0.00  0.00    +0.100 A 
BRANCH  26  28
ATOM     28  C   LIG    1       -9.431   8.375   1.122  0.00  0.00    +0.510 C 
ATOM     29  F   LIG    1       -9.605   7.881   2.419  0.00  0.00    -0.170 F 
ATOM     30  F   LIG    1      -10.593   9.040   0.716  0.00  0.00    -0.170 F 
ATOM     31  F   LIG    1       -8.353   9.268   1.104  0.00  0.00    -0.170 F 
ENDBRANCH  26  28
ENDBRANCH  19  22
ENDBRANCH   1  17
TORSDOF 5
