REMARK  Name = ZINCtV00000oeTin.0
REMARK                            x       y       z     vdW  Elec       q    Type
REMARK                         _______ _______ _______ _____ _____    ______ ____
ROOT
ATOM      1  N   LIG    1        2.393  -0.710  -2.212  0.00  0.00    -0.740 N 
ATOM      2  H   LIG    1        2.317  -0.066  -1.491  0.00  0.00    +0.410 HD
ATOM      3  C   LIG    1        2.963  -1.910  -1.986  0.00  0.00    +0.740 C 
ATOM      4  N   LIG    1        2.400  -2.770  -1.115  0.00  0.00    -0.630 N 
ATOM      5  C   LIG    1        2.549  -4.221  -1.292  0.00  0.00    +0.280 C 
ATOM      6  C   LIG    1        3.100  -4.822   0.004  0.00  0.00    +0.010 C 
ATOM      7  C   LIG    1        2.196  -4.421   1.172  0.00  0.00    +0.020 C 
ATOM      8  C   LIG    1        2.186  -2.898   1.313  0.00  0.00    +0.020 C 
ATOM      9  C   LIG    1        1.624  -2.275   0.031  0.00  0.00    +0.280 C 
ATOM     10  O   LIG    1        3.985  -2.217  -2.568  0.00  0.00    -0.530 OA
ENDROOT
BRANCH   1  16
ATOM     11  C   LIG    1        2.283   0.800  -4.095  0.00  0.00    -0.100 A 
ATOM     12  C   LIG    1        1.810   1.108  -5.355  0.00  0.00    +0.020 A 
ATOM     13  C   LIG    1        0.960   0.235  -6.008  0.00  0.00    -0.010 A 
ATOM     14  C   LIG    1        0.584  -0.951  -5.405  0.00  0.00    +0.020 A 
ATOM     15  C   LIG    1        1.058  -1.267  -4.146  0.00  0.00    -0.100 A 
ATOM     16  C   LIG    1        1.912  -0.393  -3.487  0.00  0.00    +0.180 A 
BRANCH  11  18
ATOM     17  C   LIG    1        4.658   1.350  -3.639  0.00  0.00    +0.020 C 
ATOM     18  C   LIG    1        3.205   1.755  -3.381  0.00  0.00    +0.050 C 
ENDBRANCH  11  18
BRANCH  15  19
ATOM     19  C   LIG    1        0.648  -2.560  -3.489  0.00  0.00    +0.050 C 
ATOM     20  C   LIG    1       -0.552  -2.309  -2.574  0.00  0.00    +0.030 C 
ENDBRANCH  15  19
ENDBRANCH   1  16
BRANCH   9  21
ATOM     21  C   LIG    1        1.738  -0.774   0.106  0.00  0.00    -0.100 A 
ATOM     22  C   LIG    1        2.976  -0.182   0.273  0.00  0.00    +0.040 A 
ATOM     23  C   LIG    1        3.080   1.195   0.342  0.00  0.00    +0.040 A 
ATOM     24  C   LIG    1        1.946   1.979   0.246  0.00  0.00    +0.080 A 
ATOM     25  C   LIG    1        0.708   1.387   0.078  0.00  0.00    -0.180 A 
ATOM     26  C   LIG    1        0.604   0.011   0.009  0.00  0.00    +0.080 A 
BRANCH  25  27
ATOM     27  C   LIG    1       -0.527   2.243  -0.035  0.00  0.00    +0.510 C 
ATOM     28  F   LIG    1       -1.471   1.596  -0.840  0.00  0.00    -0.170 F 
ATOM     29  F   LIG    1       -0.191   3.474  -0.608  0.00  0.00    -0.170 F 
ATOM     30  F   LIG    1       -1.067   2.454   1.239  0.00  0.00    -0.170 F 
ENDBRANCH  25  27
ENDBRANCH   9  21
TORSDOF 5
