REMARK  Name = ZINCrD0000072k8b.0
REMARK                            x       y       z     vdW  Elec       q    Type
REMARK                         _______ _______ _______ _____ _____    ______ ____
ROOT
ATOM      1  C   LIG    1        1.186   1.778   0.106  0.00  0.00    -0.020 A 
ATOM      2  C   LIG    1        0.002   1.071   0.115  0.00  0.00    +0.040 A 
ATOM      3  C   LIG    1       -1.211   1.748   0.111  0.00  0.00    +0.160 A 
ATOM      4  C   LIG    1       -1.218   3.154   0.110  0.00  0.00    -0.140 A 
ATOM      5  C   LIG    1       -2.504   3.858   0.112  0.00  0.00    +0.010 A 
ATOM      6  C   LIG    1       -3.641   3.117   0.122  0.00  0.00    -0.030 A 
ATOM      7  C   LIG    1       -3.559   1.707   0.129  0.00  0.00    +0.510 A 
ATOM      8  O   LIG    1       -4.586   1.054   0.137  0.00  0.00    -0.450 OA
ATOM      9  C   LIG    1       -0.010   3.858   0.101  0.00  0.00    +0.100 A 
ATOM     10  O   LIG    1       -2.378   1.070   0.126  0.00  0.00    -0.270 OA
ATOM     11  C   LIG    1        1.181   3.167   0.099  0.00  0.00    -0.060 A 
ATOM     12 CL   LIG    1        2.684   4.036   0.088  0.00  0.00    -0.050 Cl
ENDROOT
BRANCH   1  14
ATOM     13  C   LIG    1        3.058   0.997  -1.320  0.00  0.00    +0.040 C 
ATOM     14  C   LIG    1        2.498   1.037   0.103  0.00  0.00    +0.080 C 
ENDBRANCH   1  14
BRANCH   5  15
ATOM     15  C   LIG    1       -2.562   5.364   0.104  0.00  0.00    +0.300 C 
BRANCH  15  16
ATOM     16  O   LIG    1       -3.948   5.795   0.109  0.00  0.00    -0.350 OA
BRANCH  16  17
ATOM     17  C   LIG    1       -4.175   7.118   0.103  0.00  0.00    +0.480 C 
ATOM     18  O   LIG    1       -3.245   7.890   0.094  0.00  0.00    -0.490 OA
BRANCH  17  19
ATOM     19  C   LIG    1       -5.588   7.640   0.107  0.00  0.00    +0.030 C 
ATOM     20  C   LIG    1       -5.568   9.171   0.102  0.00  0.00    +0.050 C 
ATOM     21  C   LIG    1       -7.003   9.702   0.074  0.00  0.00    +0.020 C 
ATOM     22  C   LIG    1       -7.742   9.232   1.330  0.00  0.00    +0.270 C 
ATOM     23  N   LIG    1       -7.642   7.769   1.419  0.00  0.00    -0.620 N 
ATOM     24  C   LIG    1       -8.749   7.011   1.548  0.00  0.00    +0.510 C 
ATOM     25  O   LIG    1       -8.664   5.802   1.518  0.00  0.00    -0.540 OA
ATOM     26  C   LIG    1      -10.094   7.667   1.729  0.00  0.00    +0.100 C 
ATOM     27  C   LIG    1       -6.312   7.147   1.364  0.00  0.00    +0.300 C 
ENDBRANCH  17  19
ENDBRANCH  16  17
ENDBRANCH  15  16
ENDBRANCH   5  15
TORSDOF 5
