REMARK  Name = ZINCpk000000npyK.0
REMARK                            x       y       z     vdW  Elec       q    Type
REMARK                         _______ _______ _______ _____ _____    ______ ____
ROOT
ATOM      1  C   LIG    1       -3.379   3.374   0.034  0.00  0.00    +0.240 C 
ATOM      2  C   LIG    1       -2.732   3.643  -1.331  0.00  0.00    +0.290 C 
ATOM      3  N   LIG    1       -1.421   3.485  -0.683  0.00  0.00    -0.630 N 
ATOM      4  C   LIG    1       -0.171   3.942  -0.898  0.00  0.00    +0.570 C 
ATOM      5  O   LIG    1        0.053   4.678  -1.836  0.00  0.00    -0.530 OA
ATOM      6  C   LIG    1       -2.073   2.606   0.299  0.00  0.00    +0.340 C 
ENDROOT
BRANCH   4   7
ATOM      7  C   LIG    1        0.948   3.537   0.026  0.00  0.00    +0.070 C 
ATOM      8  C   LIG    1        2.242   4.210  -0.425  0.00  0.00    +0.060 C 
ATOM      9  C   LIG    1        3.402   3.628   0.392  0.00  0.00    +0.030 C 
ATOM     10  C   LIG    1        3.621   2.181  -0.045  0.00  0.00    +0.080 C 
ATOM     11  C   LIG    1        2.324   1.418  -0.018  0.00  0.00    -0.110 A 
ATOM     12  C   LIG    1        2.384   0.028  -0.023  0.00  0.00    +0.070 A 
ATOM     13  C   LIG    1        1.201  -0.692  -0.012  0.00  0.00    -0.020 A 
ATOM     14  C   LIG    1        0.002  -0.004   0.002  0.00  0.00    +0.260 A 
ATOM     15  N   LIG    1       -0.016   1.311   0.009  0.00  0.00    -0.490 NA
ATOM     16  C   LIG    1        1.095   2.037   0.003  0.00  0.00    +0.130 A 
ENDBRANCH   4   7
BRANCH   1  19
ATOM     17  C   LIG    1       -5.890   0.811  -0.090  0.00  0.00    -0.060 A 
ATOM     18  C   LIG    1       -4.588   1.175  -0.029  0.00  0.00    +0.170 A 
ATOM     19  N   LIG    1       -4.574   2.528  -0.023  0.00  0.00    -0.280 N 
ATOM     20  N   LIG    1       -5.791   2.944  -0.071  0.00  0.00    -0.080 NA
ATOM     21  N   LIG    1       -6.600   1.945  -0.118  0.00  0.00    -0.250 NA
BRANCH  17  23
ATOM     22  C   LIG    1       -7.961  -0.548  -0.189  0.00  0.00    +0.030 C 
ATOM     23  C   LIG    1       -6.434  -0.594  -0.120  0.00  0.00    +0.220 C 
ATOM     24  C   LIG    1       -5.889  -1.325  -1.349  0.00  0.00    +0.060 C 
BRANCH  23  25
ATOM     25  O   LIG    1       -6.031  -1.286   1.063  0.00  0.00    -0.550 OA
ATOM     26  H   LIG    1       -6.341  -0.878   1.883  0.00  0.00    +0.380 HD
ENDBRANCH  23  25
ENDBRANCH  17  23
ENDBRANCH   1  19
TORSDOF 4
