REMARK  Name = ZINCtV000002GT2I.0
REMARK                            x       y       z     vdW  Elec       q    Type
REMARK                         _______ _______ _______ _____ _____    ______ ____
ROOT
ATOM      1  C   LIG    1        4.742  -0.104  -0.579  0.00  0.00    +0.200 A 
ATOM      2  N   LIG    1        3.562  -0.642  -0.807  0.00  0.00    -0.440 NA
ATOM      3  C   LIG    1        2.471   0.095  -1.019  0.00  0.00    +0.130 A 
ATOM      4  C   LIG    1        1.222  -0.508  -1.260  0.00  0.00    +0.040 A 
ATOM      5  C   LIG    1        0.127   0.271  -1.473  0.00  0.00    +0.030 A 
ATOM      6  C   LIG    1        0.218   1.661  -1.458  0.00  0.00    +0.020 A 
ATOM      7  C   LIG    1        1.412   2.280  -1.228  0.00  0.00    +0.060 A 
ATOM      8  C   LIG    1        2.558   1.510  -1.005  0.00  0.00    -0.070 A 
ATOM      9  C   LIG    1        3.859   2.131  -0.755  0.00  0.00    -0.070 A 
ATOM     10  C   LIG    1        4.938   1.285  -0.544  0.00  0.00    +0.020 A 
ENDROOT
BRANCH   1  15
ATOM     11  C   LIG    1        9.253  -3.572   0.302  0.00  0.00    +0.090 C 
ATOM     12  C   LIG    1        8.073  -2.665   0.071  0.00  0.00    -0.060 A 
ATOM     13  C   LIG    1        8.264  -1.300  -0.040  0.00  0.00    +0.000 A 
ATOM     14  C   LIG    1        7.187  -0.464  -0.256  0.00  0.00    +0.030 A 
ATOM     15  C   LIG    1        5.903  -0.998  -0.352  0.00  0.00    -0.070 A 
ATOM     16  C   LIG    1        5.716  -2.374  -0.240  0.00  0.00    -0.030 A 
ATOM     17  C   LIG    1        4.331  -2.959  -0.348  0.00  0.00    +0.110 C 
ATOM     18  C   LIG    1        6.801  -3.201  -0.029  0.00  0.00    +0.000 A 
ENDBRANCH   1  15
BRANCH   9  19
ATOM     19  C   LIG    1        4.018   3.601  -0.727  0.00  0.00    +0.570 C 
ATOM     20  N   LIG    1        5.202   4.145  -0.383  0.00  0.00    -0.720 N 
ATOM     21  H   LIG    1        5.950   3.572  -0.154  0.00  0.00    +0.400 HD
ATOM     22  O   LIG    1        3.080   4.319  -1.014  0.00  0.00    -0.520 OA
BRANCH  20  23
ATOM     23  C   LIG    1        5.359   5.601  -0.355  0.00  0.00    +0.330 C 
BRANCH  23  24
ATOM     24  C   LIG    1        6.766   5.947   0.057  0.00  0.00    -0.100 A 
ATOM     25  C   LIG    1        7.070   6.126   1.393  0.00  0.00    +0.040 A 
ATOM     26  C   LIG    1        8.363   6.438   1.773  0.00  0.00    +0.030 A 
ATOM     27  C   LIG    1        9.349   6.582   0.816  0.00  0.00    +0.040 A 
ATOM     28  C   LIG    1        9.044   6.408  -0.523  0.00  0.00    -0.040 A 
ATOM     29 CL   LIG    1       10.282   6.588  -1.726  0.00  0.00    -0.060 Cl
ATOM     30  C   LIG    1        7.752   6.091  -0.901  0.00  0.00    +0.050 A 
ENDBRANCH  23  24
ENDBRANCH  20  23
ENDBRANCH   9  19
TORSDOF 4
