REMARK  Name = ZINCrD00000l4UYB.0
REMARK                            x       y       z     vdW  Elec       q    Type
REMARK                         _______ _______ _______ _____ _____    ______ ____
ROOT
ATOM      1  C   LIG    1        2.631  -1.865  -1.315  0.00  0.00    +0.160 C 
ATOM      2  C   LIG    1        3.983  -1.205  -1.395  0.00  0.00    +0.220 A 
ATOM      3  C   LIG    1        5.106  -1.960  -1.401  0.00  0.00    -0.130 A 
ATOM      4  C   LIG    1        6.369  -1.339  -1.476  0.00  0.00    +0.570 A 
ATOM      5  N   LIG    1        6.453   0.005  -1.542  0.00  0.00    -0.360 N 
ATOM      6  N   LIG    1        7.548   0.875  -1.623  0.00  0.00    -0.250 NA
ATOM      7  C   LIG    1        7.093   2.110  -1.664  0.00  0.00    +0.160 A 
ATOM      8  C   LIG    1        5.689   2.067  -1.610  0.00  0.00    -0.110 A 
ATOM      9  C   LIG    1        5.315   0.761  -1.541  0.00  0.00    +0.320 A 
ATOM     10  O   LIG    1        7.382  -2.015  -1.482  0.00  0.00    -0.490 OA
ATOM     11  N   LIG    1        4.076   0.153  -1.462  0.00  0.00    -0.490 N 
ENDROOT
BRANCH   7  12
ATOM     12  C   LIG    1        7.922   3.338  -1.752  0.00  0.00    -0.030 A 
ATOM     13  C   LIG    1        7.314   4.591  -1.795  0.00  0.00    +0.040 A 
ATOM     14  C   LIG    1        8.090   5.730  -1.871  0.00  0.00    +0.010 A 
ATOM     15  C   LIG    1        9.468   5.629  -1.917  0.00  0.00    +0.020 A 
ATOM     16  C   LIG    1       10.077   4.387  -1.881  0.00  0.00    +0.010 A 
ATOM     17  C   LIG    1        9.311   3.242  -1.799  0.00  0.00    +0.050 A 
ENDBRANCH   7  12
BRANCH  11  18
ATOM     18  C   LIG    1        2.860   0.970  -1.456  0.00  0.00    +0.300 C 
BRANCH  18  19
ATOM     19  C   LIG    1        2.489   1.321  -0.014  0.00  0.00    +0.250 C 
BRANCH  19  20
ATOM     20  C   LIG    1        1.173   2.056   0.002  0.00  0.00    -0.160 A 
ATOM     21  C   LIG    1        1.153   3.438   0.009  0.00  0.00    +0.050 A 
ATOM     22  C   LIG    1       -0.054   4.112   0.023  0.00  0.00    +0.020 A 
ATOM     23  C   LIG    1       -1.242   3.405   0.031  0.00  0.00    +0.060 A 
ATOM     24  C   LIG    1       -1.224   2.023   0.019  0.00  0.00    -0.010 A 
ATOM     25  C   LIG    1       -0.016   1.347   0.009  0.00  0.00    +0.110 A 
ATOM     26  F   LIG    1        0.002  -0.004   0.002  0.00  0.00    -0.140 F 
ENDBRANCH  19  20
BRANCH  19  27
ATOM     27  O   LIG    1        3.505   2.152   0.550  0.00  0.00    -0.530 OA
ATOM     28  H   LIG    1        3.638   2.986   0.079  0.00  0.00    +0.380 HD
ENDBRANCH  19  27
ENDBRANCH  18  19
ENDBRANCH  11  18
TORSDOF 5
