REMARK  Name = ZINCpe00000VUhVr.0
REMARK                            x       y       z     vdW  Elec       q    Type
REMARK                         _______ _______ _______ _____ _____    ______ ____
ROOT
ATOM      1  O   LIG    1       -4.725   3.629  -2.278  0.00  0.00    -0.520 OA
ATOM      2  C   LIG    1       -5.427   3.967  -1.348  0.00  0.00    +0.510 C 
ATOM      3  N   LIG    1       -6.623   4.543  -1.581  0.00  0.00    -0.610 N 
ATOM      4  C   LIG    1       -7.487   4.952  -0.465  0.00  0.00    +0.270 C 
ATOM      5  C   LIG    1       -8.868   4.327  -0.650  0.00  0.00    +0.040 C 
ATOM      6  C   LIG    1       -9.411   4.696  -2.033  0.00  0.00    +0.030 C 
ATOM      7  C   LIG    1       -8.479   4.141  -3.113  0.00  0.00    +0.230 C 
ATOM      8  C   LIG    1       -7.090   4.769  -2.955  0.00  0.00    +0.290 C 
ENDROOT
BRANCH   7   9
ATOM      9  N   LIG    1       -9.015   4.467  -4.437  0.00  0.00    -0.460 N 
ATOM     10  C   LIG    1       -9.373   3.574  -5.411  0.00  0.00    +0.120 A 
ATOM     11  C   LIG    1       -9.813   4.295  -6.459  0.00  0.00    +0.140 A 
ATOM     12  N   LIG    1       -9.726   5.594  -6.135  0.00  0.00    -0.490 NA
ATOM     13  C   LIG    1       -9.255   5.704  -4.923  0.00  0.00    +0.380 A 
ENDBRANCH   7   9
BRANCH   2  14
ATOM     14  C   LIG    1       -4.961   3.742   0.067  0.00  0.00    +0.370 C 
BRANCH  14  15
ATOM     15  N   LIG    1       -3.642   3.107   0.052  0.00  0.00    -0.450 N 
ATOM     16  N   LIG    1       -3.538   1.713   0.044  0.00  0.00    +0.090 NA
ATOM     17  N   LIG    1       -2.413   1.096   0.030  0.00  0.00    -0.190 NA
ATOM     18  C   LIG    1       -1.230   1.760   0.017  0.00  0.00    +0.060 A 
ATOM     19  C   LIG    1       -0.013   1.076   0.008  0.00  0.00    +0.080 A 
ATOM     20  C   LIG    1        1.169   1.783   0.001  0.00  0.00    +0.070 A 
ATOM     21  C   LIG    1        1.166   3.171   0.007  0.00  0.00    +0.040 A 
ATOM     22  C   LIG    1       -0.022   3.869   0.022  0.00  0.00    +0.100 A 
ATOM     23  C   LIG    1       -1.228   3.173   0.030  0.00  0.00    -0.150 A 
ATOM     24  C   LIG    1       -2.523   3.870   0.045  0.00  0.00    +0.540 A 
ATOM     25  O   LIG    1       -2.587   5.086   0.052  0.00  0.00    -0.500 OA
ENDBRANCH  14  15
ENDBRANCH   2  14
TORSDOF 3
