REMARK  Name = ZINCb80000006luB.0
REMARK                            x       y       z     vdW  Elec       q    Type
REMARK                         _______ _______ _______ _____ _____    ______ ____
ROOT
ATOM      1  C   LIG    1        0.478  -4.050  -1.879  0.00  0.00    +0.060 A 
ATOM      2  C   LIG    1        0.275  -2.764  -2.261  0.00  0.00    +0.140 A 
ATOM      3  N   LIG    1        0.738  -1.962  -1.265  0.00  0.00    -0.370 N 
ATOM      4  N   LIG    1        1.243  -2.786  -0.251  0.00  0.00    -0.270 NA
ATOM      5  C   LIG    1        1.083  -4.033  -0.614  0.00  0.00    +0.190 A 
ENDROOT
BRANCH   1   6
ATOM      6  N   LIG    1        0.142  -5.198  -2.622  0.00  0.00    -0.880 N 
ATOM      7  H   LIG    1        0.328  -6.080  -2.262  0.00  0.00    +0.400 HD
ATOM      8  H   LIG    1       -0.276  -5.107  -3.492  0.00  0.00    +0.400 HD
ENDBRANCH   1   6
BRANCH   3   9
ATOM      9  C   LIG    1        0.718  -0.497  -1.257  0.00  0.00    +0.320 C 
BRANCH   9  10
ATOM     10  C   LIG    1        0.002  -0.004   0.002  0.00  0.00    +0.020 C 
BRANCH  10  11
ATOM     11  C   LIG    1       -0.019   1.526   0.010  0.00  0.00    +0.020 C 
BRANCH  11  12
ATOM     12  C   LIG    1       -0.735   2.019   1.269  0.00  0.00    +0.180 C 
BRANCH  12  13
ATOM     13  O   LIG    1       -0.754   3.448   1.277  0.00  0.00    -0.580 OA
ATOM     14  H   LIG    1       -1.194   3.831   2.048  0.00  0.00    +0.380 HD
ENDBRANCH  12  13
ENDBRANCH  11  12
ENDBRANCH  10  11
ENDBRANCH   9  10
ENDBRANCH   3   9
TORSDOF 6
