REMARK  Name = ZINCrH000008uzlB.0
REMARK                            x       y       z     vdW  Elec       q    Type
REMARK                         _______ _______ _______ _____ _____    ______ ____
ROOT
ATOM      1  C   LIG    1       -0.342   1.213   8.667  0.00  0.00    +0.170 A 
ATOM      2  C   LIG    1        0.230   0.828   9.872  0.00  0.00    +0.030 A 
ATOM      3  C   LIG    1       -0.389   1.148  11.065  0.00  0.00    +0.030 A 
ATOM      4  C   LIG    1       -1.584   1.853  11.060  0.00  0.00    +0.040 A 
ATOM      5  C   LIG    1       -2.158   2.239   9.853  0.00  0.00    +0.150 A 
ATOM      6  F   LIG    1       -3.321   2.926   9.847  0.00  0.00    -0.120 F 
ATOM      7  C   LIG    1       -1.535   1.923   8.660  0.00  0.00    -0.040 A 
ENDROOT
BRANCH   4   8
ATOM      8  N   LIG    1       -2.211   2.178  12.269  0.00  0.00    -0.490 N 
ATOM      9  C   LIG    1       -1.374   3.082  13.071  0.00  0.00    +0.170 C 
ATOM     10  C   LIG    1       -2.121   3.458  14.353  0.00  0.00    +0.200 C 
ATOM     11  O   LIG    1       -2.466   2.266  15.065  0.00  0.00    -0.370 OA
ATOM     12  C   LIG    1       -3.281   1.362  14.314  0.00  0.00    +0.160 C 
ATOM     13  C   LIG    1       -3.562   0.112  15.149  0.00  0.00    +0.050 C 
ATOM     14  C   LIG    1       -3.395   4.226  13.996  0.00  0.00    +0.020 C 
ATOM     15  C   LIG    1       -2.546   0.966  13.031  0.00  0.00    +0.170 C 
ENDBRANCH   4   8
BRANCH   1  17
ATOM     16  C   LIG    1        0.951  -0.278   7.335  0.00  0.00    +0.520 C 
ATOM     17  N   LIG    1        0.287   0.889   7.458  0.00  0.00    -0.670 N 
ATOM     18  H   LIG    1        0.245   1.504   6.709  0.00  0.00    +0.420 HD
ATOM     19  O   LIG    1        1.076  -1.009   8.295  0.00  0.00    -0.510 OA
BRANCH  16  20
ATOM     20  C   LIG    1        1.539  -0.674   6.005  0.00  0.00    +0.050 C 
BRANCH  20  21
ATOM     21  C   LIG    1        2.234  -2.030   6.138  0.00  0.00    +0.130 C 
BRANCH  21  22
ATOM     22  C   LIG    1        2.831  -2.433   4.788  0.00  0.00    +0.040 C 
ATOM     23  N   LIG    1        2.187  -1.948   3.565  0.00  0.00    -0.120 NA
ATOM     24  N   LIG    1        3.247  -1.376   3.863  0.00  0.00    -0.120 NA
BRANCH  22  25
ATOM     25  C   LIG    1        3.566  -3.773   4.747  0.00  0.00    +0.120 C 
BRANCH  25  26
ATOM     26  C   LIG    1        4.097  -4.021   3.333  0.00  0.00    +0.160 C 
BRANCH  26  28
ATOM     27  C   LIG    1        5.369  -6.340   3.262  0.00  0.00    +0.030 C 
ATOM     28  C   LIG    1        4.805  -5.311   3.293  0.00  0.00    -0.200 C 
ENDBRANCH  26  28
ENDBRANCH  25  26
ENDBRANCH  22  25
ENDBRANCH  21  22
ENDBRANCH  20  21
ENDBRANCH  16  20
ENDBRANCH   1  17
TORSDOF 8
