REMARK  Name = ZINCrD00000F5LBQ.0
REMARK                            x       y       z     vdW  Elec       q    Type
REMARK                         _______ _______ _______ _____ _____    ______ ____
ROOT
ATOM      1  C   LIG    1       -0.599   8.236   0.319  0.00  0.00    +0.120 A 
ATOM      2  C   LIG    1       -0.049   6.965   0.213  0.00  0.00    -0.040 A 
ATOM      3  C   LIG    1       -0.869   5.861   0.128  0.00  0.00    +0.060 A 
ATOM      4  C   LIG    1       -2.260   6.019   0.148  0.00  0.00    -0.090 A 
ATOM      5  C   LIG    1       -2.813   7.304   0.251  0.00  0.00    +0.000 A 
ATOM      6  C   LIG    1       -1.984   8.402   0.341  0.00  0.00    +0.100 A 
ENDROOT
BRANCH   4   7
ATOM      7  C   LIG    1       -3.136   4.847   0.057  0.00  0.00    +0.190 C 
ATOM      8  C   LIG    1       -2.857   3.729   0.788  0.00  0.00    -0.160 C 
ATOM      9  C   LIG    1       -3.484   2.401   0.670  0.00  0.00    +0.560 C 
ATOM     10  N   LIG    1       -2.914   1.591   1.579  0.00  0.00    -0.650 N 
ATOM     11  H   LIG    1       -3.150   0.659   1.704  0.00  0.00    +0.420 HD
ATOM     12  C   LIG    1       -1.937   2.258   2.311  0.00  0.00    +0.150 A 
ATOM     13  C   LIG    1       -1.106   1.836   3.342  0.00  0.00    +0.010 A 
ATOM     14  C   LIG    1       -0.211   2.716   3.916  0.00  0.00    +0.070 A 
ATOM     15  C   LIG    1       -0.132   4.028   3.476  0.00  0.00    -0.060 A 
ATOM     16  C   LIG    1       -0.953   4.467   2.455  0.00  0.00    +0.090 A 
ATOM     17 CL   LIG    1        1.001   5.121   4.208  0.00  0.00    -0.060 Cl
ATOM     18  O   LIG    1       -4.364   2.092  -0.113  0.00  0.00    -0.500 OA
ATOM     19  C   LIG    1       -1.858   3.587   1.873  0.00  0.00    -0.090 A 
ENDBRANCH   4   7
BRANCH   6  20
ATOM     20  O   LIG    1       -2.517   9.649   0.445  0.00  0.00    -0.300 OA
ATOM     21  C   LIG    1       -3.942   9.747   0.460  0.00  0.00    +0.240 C 
ENDBRANCH   6  20
BRANCH   1  22
ATOM     22  O   LIG    1        0.215   9.320   0.402  0.00  0.00    -0.270 OA
BRANCH  22  23
ATOM     23  C   LIG    1        1.623   9.078   0.374  0.00  0.00    +0.240 C 
BRANCH  23  26
ATOM     24  N   LIG    1        3.708  10.406   0.470  0.00  0.00    -0.730 N 
ATOM     25  H   LIG    1        4.203   9.575   0.399  0.00  0.00    +0.400 HD
ATOM     26  C   LIG    1        2.360  10.388   0.476  0.00  0.00    +0.510 C 
ATOM     27  O   LIG    1        1.740  11.427   0.564  0.00  0.00    -0.510 OA
BRANCH  24  29
ATOM     28  C   LIG    1        5.932  11.421   0.539  0.00  0.00    +0.030 C 
ATOM     29  C   LIG    1        4.424  11.680   0.569  0.00  0.00    +0.250 C 
ENDBRANCH  24  29
ENDBRANCH  23  26
ENDBRANCH  22  23
ENDBRANCH   1  22
TORSDOF 6
