REMARK  Name = ZINCtV00000L6kXv.0
REMARK                            x       y       z     vdW  Elec       q    Type
REMARK                         _______ _______ _______ _____ _____    ______ ____
ROOT
ATOM      1  C   LIG    1        7.805   2.400   0.132  0.00  0.00    -0.000 A 
ATOM      2  C   LIG    1        9.057   2.842   0.034  0.00  0.00    -0.020 A 
ATOM      3  S   LIG    1       10.189   1.516  -0.152  0.00  0.00    +0.200 S 
ATOM      4  C   LIG    1        8.906   0.317  -0.093  0.00  0.00    +0.110 A 
ATOM      5  N   LIG    1        8.946  -1.019  -0.172  0.00  0.00    -0.510 NA
ATOM      6  C   LIG    1        7.847  -1.734  -0.104  0.00  0.00    +0.560 A 
ATOM      7  N   LIG    1        6.657  -1.181   0.044  0.00  0.00    -0.570 NA
ATOM      8  C   LIG    1        6.519   0.133   0.131  0.00  0.00    +0.410 A 
ATOM      9  C   LIG    1        7.670   0.951   0.058  0.00  0.00    -0.180 A 
ENDROOT
BRANCH   1  13
ATOM     10  C   LIG    1        4.475   5.003   0.604  0.00  0.00    +0.130 A 
ATOM     11  C   LIG    1        5.524   5.050   1.511  0.00  0.00    -0.030 A 
ATOM     12  C   LIG    1        6.606   4.207   1.361  0.00  0.00    +0.070 A 
ATOM     13  C   LIG    1        6.644   3.307   0.296  0.00  0.00    -0.080 A 
ATOM     14  C   LIG    1        5.590   3.266  -0.616  0.00  0.00    +0.100 A 
ATOM     15  C   LIG    1        4.509   4.107  -0.457  0.00  0.00    -0.060 A 
BRANCH  10  17
ATOM     16  C   LIG    1        2.340   5.695  -0.183  0.00  0.00    +0.240 C 
ATOM     17  O   LIG    1        3.410   5.835   0.754  0.00  0.00    -0.320 OA
ENDBRANCH  10  17
ENDBRANCH   1  13
BRANCH   8  18
ATOM     18  O   LIG    1        5.291   0.686   0.282  0.00  0.00    -0.190 OA
BRANCH  18  19
ATOM     19  C   LIG    1        4.237  -0.147   0.483  0.00  0.00    +0.100 A 
ATOM     20  C   LIG    1        4.406  -1.317   1.167  0.00  0.00    +0.040 A 
ATOM     21  C   LIG    1        3.337  -2.183   1.382  0.00  0.00    +0.040 A 
ATOM     22  C   LIG    1        2.092  -1.888   0.916  0.00  0.00    +0.040 A 
ATOM     23  C   LIG    1        1.879  -0.694   0.208  0.00  0.00    -0.090 A 
ATOM     24  C   LIG    1        0.606  -0.355  -0.289  0.00  0.00    +0.090 A 
ATOM     25  C   LIG    1        0.472   0.823  -0.968  0.00  0.00    -0.030 A 
ATOM     26  C   LIG    1        1.579   1.649  -1.152  0.00  0.00    +0.150 A 
ATOM     27  N   LIG    1        2.763   1.329  -0.687  0.00  0.00    -0.450 NA
ATOM     28  C   LIG    1        1.411   2.943  -1.904  0.00  0.00    +0.120 C 
ATOM     29  C   LIG    1        2.961   0.192  -0.015  0.00  0.00    +0.140 A 
ENDBRANCH  18  19
ENDBRANCH   8  18
TORSDOF 4
