REMARK  Name = ZINCvU0000000DjY.0
REMARK                            x       y       z     vdW  Elec       q    Type
REMARK                         _______ _______ _______ _____ _____    ______ ____
ROOT
ATOM      1  C   LIG    1        6.594   9.300   2.777  0.00  0.00    +0.110 A 
ATOM      2  C   LIG    1        5.360   8.752   2.480  0.00  0.00    -0.030 A 
ATOM      3  C   LIG    1        5.251   7.699   1.579  0.00  0.00    -0.060 A 
ATOM      4  C   LIG    1        6.383   7.202   0.973  0.00  0.00    -0.090 A 
ATOM      5  C   LIG    1        6.334   6.072  -0.020  0.00  0.00    +0.400 C 
ATOM      6  N   LIG    1        5.000   5.463  -0.017  0.00  0.00    -0.610 N 
ATOM      7  C   LIG    1        3.842   6.372  -0.001  0.00  0.00    +0.280 C 
ATOM      8  C   LIG    1        4.840   4.125  -0.023  0.00  0.00    +0.530 C 
ATOM      9  O   LIG    1        5.812   3.398  -0.036  0.00  0.00    -0.500 OA
ATOM     10  C   LIG    1        7.626   7.745   1.272  0.00  0.00    -0.020 A 
ATOM     11  C   LIG    1        3.874   7.150   1.314  0.00  0.00    +0.090 C 
ATOM     12  C   LIG    1        7.738   8.791   2.170  0.00  0.00    +0.110 A 
ENDROOT
BRANCH   5  13
ATOM     13  C   LIG    1        6.638   6.607  -1.396  0.00  0.00    -0.190 A 
ATOM     14  C   LIG    1        7.821   6.532  -2.007  0.00  0.00    +0.020 A 
ATOM     15  C   LIG    1        7.861   7.091  -3.272  0.00  0.00    +0.010 A 
ATOM     16  C   LIG    1        6.713   7.629  -3.686  0.00  0.00    -0.050 A 
ATOM     17  S   LIG    1        5.487   7.433  -2.439  0.00  0.00    +0.110 S 
ENDBRANCH   5  13
BRANCH   1  19
ATOM     18  C   LIG    1        5.472  10.799   4.244  0.00  0.00    +0.250 C 
ATOM     19  O   LIG    1        6.689  10.330   3.659  0.00  0.00    -0.300 OA
ENDBRANCH   1  19
BRANCH  12  20
ATOM     20  O   LIG    1        8.958   9.318   2.457  0.00  0.00    -0.300 OA
ATOM     21  C   LIG    1       10.086   8.743   1.794  0.00  0.00    +0.240 C 
ENDBRANCH  12  20
BRANCH   8  22
ATOM     22  C   LIG    1        3.455   3.531  -0.013  0.00  0.00    +0.240 C 
BRANCH  22  23
ATOM     23  O   LIG    1        3.549   2.105  -0.021  0.00  0.00    -0.280 OA
BRANCH  23  24
ATOM     24  C   LIG    1        2.380   1.410  -0.014  0.00  0.00    +0.130 A 
ATOM     25  C   LIG    1        1.170   2.087   0.002  0.00  0.00    -0.060 A 
ATOM     26  C   LIG    1       -0.017   1.379   0.010  0.00  0.00    +0.070 A 
ATOM     27  C   LIG    1        0.002  -0.004   0.002  0.00  0.00    -0.070 A 
ATOM     28  C   LIG    1        1.209  -0.681  -0.013  0.00  0.00    +0.070 A 
ATOM     29 CL   LIG    1       -1.490  -0.891   0.012  0.00  0.00    -0.070 Cl
ATOM     30  C   LIG    1        2.397   0.023  -0.021  0.00  0.00    -0.100 A 
ATOM     31  C   LIG    1        3.711  -0.715  -0.039  0.00  0.00    +0.110 C 
ENDBRANCH  23  24
ENDBRANCH  22  23
ENDBRANCH   8  22
TORSDOF 6
