REMARK  Name = ZINCpe00000yAvxw.0
REMARK                            x       y       z     vdW  Elec       q    Type
REMARK                         _______ _______ _______ _____ _____    ______ ____
ROOT
ATOM      1  C   LIG    1       -2.511   1.052   0.019  0.00  0.00    +0.590 C 
ATOM      2  N   LIG    1       -3.668   1.735   0.130  0.00  0.00    -0.620 N 
ATOM      3  C   LIG    1       -3.856   3.204   0.156  0.00  0.00    +0.270 C 
ATOM      4  C   LIG    1       -4.964   3.438   1.208  0.00  0.00    +0.290 C 
ATOM      5  C   LIG    1       -5.736   2.111   1.262  0.00  0.00    -0.160 C 
ATOM      6  C   LIG    1       -7.245   2.075   1.463  0.00  0.00    +0.070 C 
ATOM      7  C   LIG    1       -6.308   1.576   2.567  0.00  0.00    +0.050 C 
ATOM      8  C   LIG    1       -5.040   1.183   0.246  0.00  0.00    +0.320 C 
ATOM      9  O   LIG    1       -2.525  -0.161  -0.046  0.00  0.00    -0.520 OA
ENDROOT
BRANCH   1  14
ATOM     10  C   LIG    1        0.074   3.719  -0.556  0.00  0.00    +0.160 A 
ATOM     11  C   LIG    1        1.189   3.054  -0.058  0.00  0.00    +0.210 A 
ATOM     12  N   LIG    1        1.090   1.829   0.421  0.00  0.00    -0.440 NA
ATOM     13  C   LIG    1       -0.056   1.183   0.451  0.00  0.00    +0.260 A 
ATOM     14  C   LIG    1       -1.225   1.780  -0.024  0.00  0.00    -0.130 A 
ATOM     15  C   LIG    1       -1.159   3.077  -0.545  0.00  0.00    +0.000 A 
BRANCH  10  17
ATOM     16  C   LIG    1        1.495   5.685  -1.067  0.00  0.00    +0.290 C 
ATOM     17  N   LIG    1        0.191   5.017  -1.060  0.00  0.00    -0.740 N 
ATOM     18  H   LIG    1       -0.590   5.476  -1.406  0.00  0.00    +0.400 HD
ENDBRANCH  10  17
ENDBRANCH   1  14
BRANCH   4  19
ATOM     19  N   LIG    1       -4.373   3.741   2.514  0.00  0.00    -0.720 N 
ATOM     20  H   LIG    1       -4.219   3.028   3.154  0.00  0.00    +0.400 HD
ATOM     21  C   LIG    1       -4.042   5.009   2.826  0.00  0.00    +0.600 C 
ATOM     22  O   LIG    1       -4.234   5.903   2.024  0.00  0.00    -0.510 OA
BRANCH  21  23
ATOM     23  C   LIG    1       -3.447   5.313   4.138  0.00  0.00    -0.050 A 
ATOM     24  C   LIG    1       -3.051   6.555   4.603  0.00  0.00    +0.020 A 
ATOM     25  C   LIG    1       -2.557   6.328   5.889  0.00  0.00    +0.190 A 
ATOM     26  N   LIG    1       -2.656   5.047   6.137  0.00  0.00    -0.260 NA
ATOM     27  N   LIG    1       -3.171   4.425   5.139  0.00  0.00    -0.380 N 
ATOM     28  H   LIG    1       -3.338   3.470   5.100  0.00  0.00    +0.440 HD
ENDBRANCH  21  23
ENDBRANCH   4  19
TORSDOF 4
