REMARK  Name = ZINCnE000004wPz9.2
REMARK                            x       y       z     vdW  Elec       q    Type
REMARK                         _______ _______ _______ _____ _____    ______ ____
ROOT
ATOM      1  C   LIG    1       -2.630   4.467   0.050  0.00  0.00    +0.280 C 
ENDROOT
BRANCH   1   2
ATOM      2  C   LIG    1       -1.297   3.763   0.034  0.00  0.00    -0.080 A 
ATOM      3  C   LIG    1       -1.244   2.404   0.021  0.00  0.00    +0.040 A 
ATOM      4  C   LIG    1       -0.021   1.732   0.012  0.00  0.00    -0.030 A 
ATOM      5  C   LIG    1        1.154   2.420   0.004  0.00  0.00    +0.060 A 
ATOM      6  C   LIG    1        1.136   3.824   0.011  0.00  0.00    -0.100 A 
ATOM      7  C   LIG    1        2.328   4.573   0.003  0.00  0.00    +0.080 A 
ATOM      8  C   LIG    1        2.233   5.935   0.011  0.00  0.00    -0.020 A 
ATOM      9  C   LIG    1        0.981   6.545   0.026  0.00  0.00    +0.320 A 
ATOM     10  N   LIG    1       -0.127   5.845   0.033  0.00  0.00    -0.450 NA
ATOM     11 CL   LIG    1        0.002  -0.004   0.002  0.00  0.00    -0.070 Cl
ATOM     12  C   LIG    1       -0.105   4.509   0.026  0.00  0.00    +0.140 A 
ENDBRANCH   1   2
BRANCH   1  15
ATOM     13  C   LIG    1       -2.372   6.367  -3.191  0.00  0.00    -0.110 C 
ATOM     14  C   LIG    1       -1.924   5.808  -1.839  0.00  0.00    +0.240 C 
ATOM     15  N   LIG    1       -2.963   4.915  -1.309  0.00  0.00    -0.530 NA
ATOM     16  C   LIG    1       -3.183   3.769  -2.201  0.00  0.00    +0.170 C 
ATOM     17  C   LIG    1       -3.669   4.268  -3.564  0.00  0.00    +0.030 C 
ATOM     18  C   LIG    1       -2.618   5.209  -4.161  0.00  0.00    +0.300 C 
ATOM     19  F   LIG    1       -3.081   5.712  -5.382  0.00  0.00    -0.190 F 
ATOM     20  F   LIG    1       -1.425   4.508  -4.365  0.00  0.00    -0.210 F 
BRANCH  13  22
ATOM     21  O   LIG    1       -1.454   7.814  -4.822  0.00  0.00    -0.680 OA
ATOM     22  C   LIG    1       -1.296   7.267  -3.744  0.00  0.00    +0.500 C 
ATOM     23  O   LIG    1       -0.268   7.447  -3.114  0.00  0.00    -0.680 OA
ENDBRANCH  13  22
ENDBRANCH   1  15
TORSDOF 3
