REMARK  Name = ZINCkj000005kxq4.0
REMARK                            x       y       z     vdW  Elec       q    Type
REMARK                         _______ _______ _______ _____ _____    ______ ____
ROOT
ATOM      1  N   LIG    1       -0.164   0.916   2.447  0.00  0.00    -0.490 N 
ATOM      2  H   LIG    1        0.798   1.197   2.562  0.00  0.00    +0.440 HD
ATOM      3  H   LIG    1       -0.210  -0.084   2.325  0.00  0.00    +0.440 HD
ENDROOT
BRANCH   1   9
ATOM      4  C   LIG    1       -1.838   6.417  -2.149  0.00  0.00    +0.140 C 
ATOM      5  C   LIG    1       -1.464   5.149  -1.426  0.00  0.00    +0.020 A 
ATOM      6  C   LIG    1       -1.196   5.038  -0.109  0.00  0.00    +0.130 A 
ATOM      7  N   LIG    1       -0.906   3.726   0.122  0.00  0.00    -0.470 N 
ATOM      8  C   LIG    1       -0.551   3.097   1.396  0.00  0.00    +0.300 C 
ATOM      9  C   LIG    1       -0.732   1.581   1.267  0.00  0.00    +0.170 C 
ATOM     10  C   LIG    1       -0.013   1.086   0.008  0.00  0.00    +0.060 C 
ATOM     11  C   LIG    1       -0.756   1.595  -1.233  0.00  0.00    +0.200 C 
ATOM     12  C   LIG    1       -1.005   3.075  -1.061  0.00  0.00    +0.200 A 
ATOM     13  N   LIG    1       -1.339   3.932  -1.980  0.00  0.00    -0.460 NA
ENDBRANCH   1   9
BRANCH   1  14
ATOM     14  C   LIG    1       -0.931   1.299   3.640  0.00  0.00    +0.160 C 
ATOM     15  C   LIG    1       -2.359   0.764   3.522  0.00  0.00    +0.120 C 
BRANCH  14  16
ATOM     16  C   LIG    1       -0.276   0.717   4.867  0.00  0.00    +0.510 C 
ATOM     17  N   LIG    1       -0.809   0.939   6.085  0.00  0.00    -0.690 N 
ATOM     18  H   LIG    1       -1.614   1.473   6.172  0.00  0.00    +0.410 HD
ATOM     19  O   LIG    1        0.730   0.049   4.758  0.00  0.00    -0.520 OA
BRANCH  17  20
ATOM     20  C   LIG    1       -0.173   0.373   7.277  0.00  0.00    +0.170 C 
ATOM     21  C   LIG    1       -0.138  -1.152   7.161  0.00  0.00    +0.050 C 
ATOM     22  C   LIG    1       -0.972   0.772   8.519  0.00  0.00    +0.070 C 
ATOM     23  C   LIG    1        1.256   0.908   7.395  0.00  0.00    +0.050 C 
ENDBRANCH  17  20
ENDBRANCH  14  16
ENDBRANCH   1  14
TORSDOF 4
