REMARK  Name = ZINCrH00000tj1lY.0
REMARK                            x       y       z     vdW  Elec       q    Type
REMARK                         _______ _______ _______ _____ _____    ______ ____
ROOT
ATOM      1  C   LIG    1        0.254   4.270   0.023  0.00  0.00    +0.380 C 
ATOM      2  C   LIG    1        0.953   5.590   0.027  0.00  0.00    -0.230 A 
ATOM      3  C   LIG    1        2.298   5.348   0.009  0.00  0.00    +0.090 A 
ATOM      4  C   LIG    1        2.505   3.891   0.004  0.00  0.00    +0.570 C 
ATOM      5  O   LIG    1        3.590   3.342  -0.003  0.00  0.00    -0.450 OA
ATOM      6  O   LIG    1        3.213   6.337   0.000  0.00  0.00    -0.180 OA
ATOM      7  C   LIG    1        2.827   7.609   0.248  0.00  0.00    +0.140 A 
ATOM      8  C   LIG    1        3.801   8.581   0.473  0.00  0.00    +0.020 A 
ATOM      9  C   LIG    1        3.436   9.885   0.719  0.00  0.00    +0.100 A 
ATOM     10  C   LIG    1        2.099  10.256   0.746  0.00  0.00    +0.000 A 
ATOM     11  C   LIG    1        1.117   9.315   0.529  0.00  0.00    +0.120 A 
ATOM     12  C   LIG    1        1.475   7.990   0.282  0.00  0.00    -0.210 A 
ATOM     13  C   LIG    1        0.431   6.960   0.051  0.00  0.00    +0.460 A 
ATOM     14  O   LIG    1       -0.748   7.227  -0.103  0.00  0.00    -0.420 OA
ATOM     15  N   LIG    1        1.317   3.253   0.007  0.00  0.00    -0.500 N 
ENDROOT
BRANCH   1  20
ATOM     16  C   LIG    1       -3.053   3.773  -4.690  0.00  0.00    +0.090 C 
ATOM     17  C   LIG    1       -2.190   3.903  -3.461  0.00  0.00    -0.070 A 
ATOM     18  C   LIG    1       -2.766   4.208  -2.242  0.00  0.00    +0.010 A 
ATOM     19  C   LIG    1       -1.975   4.327  -1.115  0.00  0.00    +0.060 A 
ATOM     20  C   LIG    1       -0.609   4.140  -1.206  0.00  0.00    -0.100 A 
ATOM     21  C   LIG    1       -0.032   3.841  -2.426  0.00  0.00    +0.010 A 
ATOM     22  C   LIG    1       -0.824   3.717  -3.553  0.00  0.00    +0.000 A 
ENDBRANCH   1  20
BRANCH  15  23
ATOM     23  C   LIG    1        1.130   1.877   0.001  0.00  0.00    +0.260 A 
ATOM     24  N   LIG    1       -0.015   1.257   0.009  0.00  0.00    -0.280 NA
ATOM     25  N   LIG    1        0.002  -0.004   0.002  0.00  0.00    -0.230 NA
ATOM     26  C   LIG    1        1.153  -0.595  -0.012  0.00  0.00    +0.200 A 
ATOM     27  S   LIG    1        2.402   0.653  -0.017  0.00  0.00    +0.140 S 
ENDBRANCH  15  23
TORSDOF 2
