REMARK  Name = ZINCrD00000F5Lyv.0
REMARK                            x       y       z     vdW  Elec       q    Type
REMARK                         _______ _______ _______ _____ _____    ______ ____
ROOT
ATOM      1  N   LIG    1       -0.725   1.574  -1.182  0.00  0.00    -0.420 N 
ATOM      2  C   LIG    1       -0.013   1.086   0.008  0.00  0.00    +0.200 C 
ATOM      3  C   LIG    1       -0.731   1.580   1.266  0.00  0.00    +0.260 C 
ATOM      4  O   LIG    1       -2.093   1.143   1.233  0.00  0.00    -0.380 OA
ATOM      5  C   LIG    1       -2.818   1.601   0.088  0.00  0.00    +0.280 C 
ATOM      6  C   LIG    1       -2.119   1.107  -1.182  0.00  0.00    +0.210 C 
ENDROOT
BRANCH   5   7
ATOM      7  C   LIG    1       -4.223   1.060   0.132  0.00  0.00    +0.060 A 
ATOM      8  C   LIG    1       -4.762   0.348   1.146  0.00  0.00    +0.130 A 
ATOM      9  N   LIG    1       -6.050   0.052   0.792  0.00  0.00    -0.360 N 
ATOM     10  C   LIG    1       -7.047  -0.635   1.423  0.00  0.00    +0.090 A 
ATOM     11  C   LIG    1       -8.255  -0.785   0.840  0.00  0.00    +0.000 A 
ATOM     12  C   LIG    1       -8.502  -0.233  -0.428  0.00  0.00    +0.060 A 
ATOM     13  C   LIG    1       -7.518   0.454  -1.068  0.00  0.00    +0.060 A 
ATOM     14  C   LIG    1       -6.796  -1.231   2.785  0.00  0.00    +0.140 C 
ATOM     15  C   LIG    1       -6.262   0.601  -0.446  0.00  0.00    +0.230 A 
ATOM     16  N   LIG    1       -5.146   1.210  -0.821  0.00  0.00    -0.480 NA
ENDBRANCH   5   7
BRANCH   1  22
ATOM     17  C   LIG    1        2.604   0.268  -5.845  0.00  0.00    +0.140 A 
ATOM     18  C   LIG    1        1.442  -0.347  -6.297  0.00  0.00    -0.030 A 
ATOM     19  C   LIG    1        0.296  -0.327  -5.528  0.00  0.00    +0.100 A 
ATOM     20  C   LIG    1        0.300   0.308  -4.297  0.00  0.00    -0.030 A 
ATOM     21  O   LIG    1       -0.636   0.489  -3.335  0.00  0.00    -0.230 OA
ATOM     22  C   LIG    1       -0.078   1.193  -2.335  0.00  0.00    +0.430 A 
ATOM     23  N   LIG    1        1.172   1.460  -2.616  0.00  0.00    -0.490 NA
ATOM     24  C   LIG    1        1.469   0.930  -3.834  0.00  0.00    +0.080 A 
ATOM     25  C   LIG    1        2.623   0.905  -4.618  0.00  0.00    +0.040 A 
BRANCH  17  27
ATOM     26  C   LIG    1        3.639  -0.434  -7.867  0.00  0.00    +0.240 C 
ATOM     27  O   LIG    1        3.727   0.242  -6.612  0.00  0.00    -0.310 OA
ENDBRANCH  17  27
ENDBRANCH   1  22
TORSDOF 3
