REMARK  Name = ZINCtj00001n1jI4.0
REMARK                            x       y       z     vdW  Elec       q    Type
REMARK                         _______ _______ _______ _____ _____    ______ ____
ROOT
ATOM      1  C   LIG    1       -1.493   3.993  -3.726  0.00  0.00    +0.300 C 
ENDROOT
BRANCH   1   5
ATOM      2  N   LIG    1       -0.345   1.631  -1.163  0.00  0.00    -0.600 N 
ATOM      3  C   LIG    1       -1.225   0.850  -1.814  0.00  0.00    +0.520 C 
ATOM      4  C   LIG    1       -1.957   1.654  -2.865  0.00  0.00    +0.060 C 
ATOM      5  C   LIG    1       -1.681   3.126  -2.479  0.00  0.00    +0.000 C 
ATOM      6  O   LIG    1       -1.407  -0.328  -1.589  0.00  0.00    -0.520 OA
ATOM      7  C   LIG    1       -0.360   3.001  -1.688  0.00  0.00    +0.330 C 
BRANCH   7   8
ATOM      8  C   LIG    1       -0.335   3.994  -0.555  0.00  0.00    -0.260 A 
ATOM      9  C   LIG    1        0.450   5.093  -0.476  0.00  0.00    +0.260 A 
ATOM     10  N   LIG    1        0.172   5.715   0.689  0.00  0.00    -0.370 N 
ATOM     11  N   LIG    1       -0.817   4.973   1.348  0.00  0.00    -0.290 NA
ATOM     12  C   LIG    1        0.795   6.947   1.179  0.00  0.00    +0.360 C 
ATOM     13  C   LIG    1       -1.125   3.946   0.599  0.00  0.00    +0.240 A 
ENDBRANCH   7   8
BRANCH   2  14
ATOM     14  C   LIG    1        0.521   1.172  -0.075  0.00  0.00    +0.320 C 
BRANCH  14  15
ATOM     15  C   LIG    1        1.783   0.535  -0.661  0.00  0.00    +0.160 C 
BRANCH  15  17
ATOM     16  C   LIG    1        3.743   1.034  -1.947  0.00  0.00    +0.200 C 
ATOM     17  O   LIG    1        2.538   1.528  -1.358  0.00  0.00    -0.390 OA
ENDBRANCH  15  17
ENDBRANCH  14  15
ENDBRANCH   2  14
ENDBRANCH   1   5
BRANCH   1  18
ATOM     18  N   LIG    1       -2.787   4.187  -4.385  0.00  0.00    -0.650 NA
ATOM     19  H   LIG    1       -3.587   3.786  -4.011  0.00  0.00    +0.430 HD
BRANCH  18  20
ATOM     20  C   LIG    1       -2.868   4.944  -5.543  0.00  0.00    +0.520 C 
ATOM     21  N   LIG    1       -1.778   5.500  -6.058  0.00  0.00    -0.570 NA
ATOM     22  C   LIG    1       -1.854   6.219  -7.168  0.00  0.00    +0.660 C 
ATOM     23  N   LIG    1       -3.006   6.417  -7.788  0.00  0.00    -0.580 NA
ATOM     24  C   LIG    1       -4.138   5.895  -7.322  0.00  0.00    +0.240 C 
ATOM     25  C   LIG    1       -5.413   6.167  -8.074  0.00  0.00    +0.130 C 
ATOM     26  C   LIG    1       -6.495   5.165  -7.672  0.00  0.00    +0.060 C 
ATOM     27  C   LIG    1       -6.591   5.142  -6.142  0.00  0.00    +0.040 C 
ATOM     28  C   LIG    1       -5.324   4.493  -5.587  0.00  0.00    +0.110 C 
ATOM     29  H   LIG    1       -3.026   6.953  -8.596  0.00  0.00    +0.440 HD
ATOM     30  C   LIG    1       -4.101   5.135  -6.179  0.00  0.00    -0.220 C 
BRANCH  22  31
ATOM     31  N   LIG    1       -0.702   6.781  -7.689  0.00  0.00    -0.790 NA
ATOM     32  H   LIG    1        0.149   6.644  -7.244  0.00  0.00    +0.440 HD
ATOM     33  H   LIG    1       -0.745   7.313  -8.499  0.00  0.00    +0.430 HD
ENDBRANCH  22  31
ENDBRANCH  18  20
ENDBRANCH   1  18
TORSDOF 8
