REMARK  Name = ZINCqH0000036cVu.2
REMARK                            x       y       z     vdW  Elec       q    Type
REMARK                         _______ _______ _______ _____ _____    ______ ____
ROOT
ATOM      1  N   LIG    1       -1.062   2.677  -0.151  0.00  0.00    -0.700 NA
ATOM      2  C   LIG    1       -2.158   1.893  -0.157  0.00  0.00    +0.650 C 
ATOM      3  N   LIG    1       -3.383   2.446  -0.060  0.00  0.00    -0.630 N 
ATOM      4  C   LIG    1       -3.495   3.914   0.051  0.00  0.00    +0.290 C 
ATOM      5  C   LIG    1       -4.653   4.449  -0.811  0.00  0.00    +0.030 C 
ATOM      6  C   LIG    1       -4.690   3.700  -2.124  0.00  0.00    +0.250 C 
ATOM      7  N   LIG    1       -5.613   2.572  -2.011  0.00  0.00    -0.360 N 
ATOM      8  C   LIG    1       -5.037   1.379  -1.522  0.00  0.00    +0.210 C 
ATOM      9  H   LIG    1       -6.366   2.838  -1.394  0.00  0.00    +0.410 HD
ATOM     10  C   LIG    1       -4.544   1.579  -0.076  0.00  0.00    +0.320 C 
ATOM     11  O   LIG    1       -2.041   0.686  -0.250  0.00  0.00    -0.610 OA
ENDROOT
BRANCH   1  17
ATOM     12  C   LIG    1        4.463  -0.018  -0.622  0.00  0.00    +0.090 A 
ATOM     13  C   LIG    1        3.571  -1.085  -0.653  0.00  0.00    -0.050 A 
ATOM     14  C   LIG    1        2.220  -0.866  -0.568  0.00  0.00    +0.050 A 
ATOM     15  C   LIG    1        1.712   0.445  -0.447  0.00  0.00    +0.110 A 
ATOM     16  N   LIG    1        0.428   0.846  -0.353  0.00  0.00    -0.550 NA
ATOM     17  C   LIG    1        0.198   2.109  -0.251  0.00  0.00    +0.400 A 
ATOM     18  S   LIG    1        1.707   3.010  -0.262  0.00  0.00    -0.010 S 
ATOM     19  C   LIG    1        2.618   1.509  -0.417  0.00  0.00    -0.180 A 
ATOM     20  C   LIG    1        3.987   1.274  -0.504  0.00  0.00    +0.040 A 
BRANCH  12  22
ATOM     21  C   LIG    1        6.221  -1.607  -0.826  0.00  0.00    +0.230 C 
ATOM     22  O   LIG    1        5.801  -0.246  -0.706  0.00  0.00    -0.320 OA
ENDBRANCH  12  22
ENDBRANCH   1  17
BRANCH   7  23
ATOM     23  C   LIG    1       -6.178   2.300  -3.339  0.00  0.00    +0.150 C 
ATOM     24  C   LIG    1       -6.873   3.564  -3.887  0.00  0.00    +0.050 C 
ATOM     25  C   LIG    1       -8.115   3.020  -4.635  0.00  0.00    +0.050 C 
ATOM     26  C   LIG    1       -8.576   1.851  -3.728  0.00  0.00    +0.030 C 
ATOM     27  C   LIG    1       -7.261   1.211  -3.238  0.00  0.00    +0.050 C 
ENDBRANCH   7  23
TORSDOF 3
