REMARK  Name = ZINCqH0000036cVu.1
REMARK                            x       y       z     vdW  Elec       q    Type
REMARK                         _______ _______ _______ _____ _____    ______ ____
ROOT
ATOM      1  N   LIG    1       -2.360   3.593   2.169  0.00  0.00    -0.700 NA
ATOM      2  C   LIG    1       -2.950   2.539   1.571  0.00  0.00    +0.650 C 
ATOM      3  N   LIG    1       -2.200   1.519   1.110  0.00  0.00    -0.630 N 
ATOM      4  C   LIG    1       -0.734   1.582   1.274  0.00  0.00    +0.290 C 
ATOM      5  C   LIG    1       -0.013   1.086   0.008  0.00  0.00    +0.030 C 
ATOM      6  C   LIG    1       -0.745   1.587  -1.217  0.00  0.00    +0.250 C 
ATOM      7  N   LIG    1       -1.702   0.574  -1.655  0.00  0.00    -0.360 N 
ATOM      8  C   LIG    1       -2.975   0.655  -1.049  0.00  0.00    +0.210 C 
ATOM      9  H   LIG    1       -1.313  -0.337  -1.459  0.00  0.00    +0.410 HD
ATOM     10  C   LIG    1       -2.861   0.399   0.472  0.00  0.00    +0.320 C 
ATOM     11  O   LIG    1       -4.160   2.509   1.447  0.00  0.00    -0.610 OA
ENDROOT
BRANCH   1  17
ATOM     12  C   LIG    1       -5.944   8.174   4.217  0.00  0.00    +0.090 A 
ATOM     13  C   LIG    1       -6.846   7.268   3.667  0.00  0.00    -0.050 A 
ATOM     14  C   LIG    1       -6.404   6.099   3.102  0.00  0.00    +0.050 A 
ATOM     15  C   LIG    1       -5.027   5.795   3.070  0.00  0.00    +0.110 A 
ATOM     16  N   LIG    1       -4.415   4.708   2.556  0.00  0.00    -0.550 NA
ATOM     17  C   LIG    1       -3.132   4.642   2.643  0.00  0.00    +0.400 A 
ATOM     18  S   LIG    1       -2.497   6.074   3.441  0.00  0.00    -0.010 S 
ATOM     19  C   LIG    1       -4.129   6.712   3.625  0.00  0.00    -0.180 A 
ATOM     20  C   LIG    1       -4.591   7.896   4.195  0.00  0.00    +0.040 A 
BRANCH  12  22
ATOM     21  C   LIG    1       -7.805   9.550   4.762  0.00  0.00    +0.230 C 
ATOM     22  O   LIG    1       -6.393   9.330   4.774  0.00  0.00    -0.320 OA
ENDBRANCH  12  22
ENDBRANCH   1  17
BRANCH   7  23
ATOM     23  C   LIG    1       -1.872   0.695  -3.110  0.00  0.00    +0.150 C 
ATOM     24  C   LIG    1       -2.837  -0.394  -3.621  0.00  0.00    +0.050 C 
ATOM     25  C   LIG    1       -2.248  -0.809  -4.993  0.00  0.00    +0.050 C 
ATOM     26  C   LIG    1       -0.721  -0.764  -4.737  0.00  0.00    +0.030 C 
ATOM     27  C   LIG    1       -0.527   0.460  -3.819  0.00  0.00    +0.050 C 
ENDBRANCH   7  23
TORSDOF 3
