REMARK  Name = ZINCpk00000KfKWq.0
REMARK                            x       y       z     vdW  Elec       q    Type
REMARK                         _______ _______ _______ _____ _____    ______ ____
ROOT
ATOM      1  N   LIG    1       -0.771   1.671   1.150  0.00  0.00    -0.740 N 
ATOM      2  H   LIG    1       -1.238   2.520   1.097  0.00  0.00    +0.390 HD
ATOM      3  C   LIG    1       -0.763   0.978   2.305  0.00  0.00    +0.700 C 
ATOM      4  N   LIG    1       -1.403   1.464   3.388  0.00  0.00    -0.740 N 
ATOM      5  H   LIG    1       -1.870   2.312   3.334  0.00  0.00    +0.400 HD
ATOM      6  O   LIG    1       -0.178  -0.086   2.372  0.00  0.00    -0.590 OA
ENDROOT
BRANCH   1   7
ATOM      7  C   LIG    1       -0.075   1.143  -0.026  0.00  0.00    +0.350 C 
BRANCH   7   8
ATOM      8  C   LIG    1       -0.773   1.614  -1.276  0.00  0.00    -0.250 A 
ATOM      9  C   LIG    1       -1.162   0.835  -2.312  0.00  0.00    +0.100 A 
ATOM     10  N   LIG    1       -1.750   1.633  -3.228  0.00  0.00    -0.370 N 
ATOM     11  N   LIG    1       -1.714   2.947  -2.743  0.00  0.00    -0.290 NA
ATOM     12  C   LIG    1       -2.321   1.202  -4.507  0.00  0.00    +0.360 C 
ATOM     13  C   LIG    1       -0.976  -0.656  -2.422  0.00  0.00    +0.140 C 
ATOM     14  C   LIG    1       -1.128   2.934  -1.573  0.00  0.00    +0.090 A 
ATOM     15  C   LIG    1       -0.879   4.135  -0.697  0.00  0.00    +0.150 C 
ENDBRANCH   7   8
BRANCH   7  17
ATOM     16  C   LIG    1        2.114   1.063   1.174  0.00  0.00    +0.020 C 
ATOM     17  C   LIG    1        1.371   1.643  -0.030  0.00  0.00    +0.000 C 
ENDBRANCH   7  17
ENDBRANCH   1   7
BRANCH   4  18
ATOM     18  C   LIG    1       -1.394   0.710   4.644  0.00  0.00    +0.270 C 
BRANCH  18  19
ATOM     19  C   LIG    1       -2.187   1.477   5.704  0.00  0.00    +0.210 C 
ATOM     20  C   LIG    1       -3.630   1.659   5.229  0.00  0.00    +0.070 C 
BRANCH  19  21
ATOM     21  C   LIG    1       -2.178   0.701   6.996  0.00  0.00    -0.270 A 
ATOM     22  C   LIG    1       -2.234   1.228   8.241  0.00  0.00    +0.260 A 
ATOM     23  N   LIG    1       -2.205   0.206   9.122  0.00  0.00    -0.370 N 
ATOM     24  N   LIG    1       -2.119  -0.988   8.395  0.00  0.00    -0.290 NA
ATOM     25  C   LIG    1       -2.250   0.325  10.582  0.00  0.00    +0.360 C 
ATOM     26  C   LIG    1       -2.103  -0.690   7.121  0.00  0.00    +0.240 A 
ENDBRANCH  19  21
BRANCH  19  27
ATOM     27  O   LIG    1       -1.589   2.757   5.913  0.00  0.00    -0.550 OA
ATOM     28  H   LIG    1       -0.671   2.719   6.215  0.00  0.00    +0.380 HD
ENDBRANCH  19  27
ENDBRANCH  18  19
ENDBRANCH   4  18
TORSDOF 7
