REMARK  Name = ZINCrH000004t3iM.0
REMARK                            x       y       z     vdW  Elec       q    Type
REMARK                         _______ _______ _______ _____ _____    ______ ____
ROOT
ATOM      1  C   LIG    1        1.903   0.349  -1.966  0.00  0.00    +0.420 A 
ATOM      2  C   LIG    1        1.277  -0.802  -2.513  0.00  0.00    -0.150 A 
ATOM      3  C   LIG    1        1.262  -2.175  -2.046  0.00  0.00    +0.070 A 
ATOM      4  C   LIG    1        0.573  -3.009  -2.801  0.00  0.00    -0.020 A 
ATOM      5  S   LIG    1       -0.138  -2.189  -4.178  0.00  0.00    +0.170 S 
ATOM      6  C   LIG    1        0.541  -0.642  -3.692  0.00  0.00    +0.090 A 
ATOM      7  N   LIG    1        0.459   0.570  -4.250  0.00  0.00    -0.480 NA
ATOM      8  C   LIG    1        1.059   1.612  -3.704  0.00  0.00    +0.390 A 
ATOM      9  N   LIG    1        1.764   1.510  -2.582  0.00  0.00    -0.500 NA
ENDROOT
BRANCH   1  15
ATOM     10  C   LIG    1        2.202   1.247   0.182  0.00  0.00    +0.260 C 
ATOM     11  C   LIG    1        2.703   0.856   1.577  0.00  0.00    +0.140 C 
ATOM     12  S   LIG    1        4.522   0.853   1.557  0.00  0.00    -0.260 S 
ATOM     13  C   LIG    1        4.880  -0.187   0.108  0.00  0.00    +0.130 C 
ATOM     14  C   LIG    1        4.079   0.348  -1.084  0.00  0.00    +0.220 C 
ATOM     15  N   LIG    1        2.645   0.257  -0.801  0.00  0.00    -0.490 N 
BRANCH  10  19
ATOM     16  C   LIG    1       -2.508   2.960   0.169  0.00  0.00    +0.350 C 
ATOM     17  N   LIG    1       -1.353   2.060   0.183  0.00  0.00    -0.370 N 
ATOM     18  C   LIG    1       -0.056   2.432   0.168  0.00  0.00    +0.250 A 
ATOM     19  C   LIG    1        0.696   1.307   0.190  0.00  0.00    -0.250 A 
ATOM     20  C   LIG    1       -0.171   0.210   0.220  0.00  0.00    +0.250 A 
ATOM     21  N   LIG    1       -1.399   0.660   0.211  0.00  0.00    -0.290 NA
ENDBRANCH  10  19
ENDBRANCH   1  15
BRANCH   8  22
ATOM     22  C   LIG    1        0.938   2.937  -4.361  0.00  0.00    +0.170 A 
ATOM     23  C   LIG    1        0.102   3.087  -5.464  0.00  0.00    +0.030 A 
ATOM     24  C   LIG    1       -0.001   4.330  -6.066  0.00  0.00    +0.060 A 
ATOM     25  C   LIG    1        0.738   5.382  -5.544  0.00  0.00    -0.010 A 
ATOM     26  C   LIG    1        1.549   5.161  -4.445  0.00  0.00    +0.260 A 
ATOM     27  N   LIG    1        1.624   3.970  -3.888  0.00  0.00    -0.440 NA
ENDBRANCH   8  22
TORSDOF 3
