REMARK  Name = ZINCnE00000rhoca.0
REMARK                            x       y       z     vdW  Elec       q    Type
REMARK                         _______ _______ _______ _____ _____    ______ ____
ROOT
ATOM      1  C   LIG    1        4.881   3.825  -0.023  0.00  0.00    -0.060 A 
ATOM      2  C   LIG    1        4.897   5.223  -0.021  0.00  0.00    +0.030 A 
ATOM      3  C   LIG    1        6.099   5.901  -0.022  0.00  0.00    +0.010 A 
ATOM      4  C   LIG    1        7.292   5.204  -0.037  0.00  0.00    +0.030 A 
ATOM      5  C   LIG    1        7.290   3.809  -0.045  0.00  0.00    -0.060 A 
ATOM      6  C   LIG    1        6.084   3.117  -0.037  0.00  0.00    +0.080 A 
ENDROOT
BRANCH   5   7
ATOM      7  C   LIG    1        8.573   3.064  -0.060  0.00  0.00    +0.170 A 
ATOM      8  C   LIG    1        9.777   3.763  -0.073  0.00  0.00    -0.030 A 
ATOM      9  C   LIG    1       10.967   3.055  -0.082  0.00  0.00    +0.070 A 
ATOM     10  C   LIG    1       10.912   1.669  -0.089  0.00  0.00    -0.040 A 
ATOM     11  C   LIG    1        9.680   1.039  -0.081  0.00  0.00    +0.270 A 
ATOM     12  N   LIG    1        8.563   1.737  -0.067  0.00  0.00    -0.480 NA
ENDBRANCH   5   7
BRANCH   1  14
ATOM     13  C   LIG    1        2.440   3.785  -0.000  0.00  0.00    +0.030 C 
ATOM     14  C   LIG    1        3.597   3.101  -0.015  0.00  0.00    +0.070 C 
BRANCH  13  17
ATOM     15  CA  LIG    1       -1.240   3.029   0.030  0.00  0.00    +0.120 A 
ATOM     16  C   LIG    1       -0.058   3.764   0.023  0.00  0.00    -0.030 A 
ATOM     17  C   LIG    1        1.158   3.062   0.007  0.00  0.00    +0.170 A 
ATOM     18  N   LIG    1        1.131   1.729   0.001  0.00  0.00    -0.530 NA
ATOM     19  C   LIG    1       -0.013   1.076   0.008  0.00  0.00    +0.460 A 
ATOM     20  N   LIG    1       -1.173   1.697   0.017  0.00  0.00    -0.480 NA
BRANCH  15  22
ATOM     21  O   LIG    1       -2.604   4.937   0.054  0.00  0.00    -0.670 OA
ATOM     22  C   LIG    1       -2.553   3.716   0.047  0.00  0.00    +0.530 C 
ATOM     23  OXT LIG    1       -3.585   3.061   0.053  0.00  0.00    -0.650 OA
ENDBRANCH  15  22
ENDBRANCH  13  17
ENDBRANCH   1  14
TORSDOF 4
