REMARK  Name = ZINCrD0000070RDz.0
REMARK                            x       y       z     vdW  Elec       q    Type
REMARK                         _______ _______ _______ _____ _____    ______ ____
ROOT
ATOM      1  N   LIG    1        2.341   5.739  -2.601  0.00  0.00    -0.610 N 
ATOM      2  C   LIG    1        2.171   5.085  -1.435  0.00  0.00    +0.520 C 
ATOM      3  O   LIG    1        2.344   5.663  -0.383  0.00  0.00    -0.530 OA
ENDROOT
BRANCH   1   4
ATOM      4  C   LIG    1        2.131   5.041  -3.871  0.00  0.00    +0.310 C 
BRANCH   4   6
ATOM      5  C   LIG    1        0.398   5.672  -5.471  0.00  0.00    +0.030 C 
ATOM      6  C   LIG    1        0.691   5.184  -4.291  0.00  0.00    -0.080 C 
ENDBRANCH   4   6
ENDBRANCH   1   4
BRANCH   2   7
ATOM      7  C   LIG    1        1.764   3.633  -1.438  0.00  0.00    +0.070 C 
BRANCH   7   8
ATOM      8  C   LIG    1        1.641   3.135   0.003  0.00  0.00    +0.220 C 
BRANCH   8   9
ATOM      9  C   LIG    1        1.235   1.683  -0.001  0.00  0.00    +0.190 A 
ATOM     10  N   LIG    1        2.040   0.650  -0.014  0.00  0.00    -0.470 NA
ATOM     11  C   LIG    1        1.236  -0.437  -0.012  0.00  0.00    +0.220 A 
ATOM     12  N   LIG    1        0.002  -0.004   0.002  0.00  0.00    -0.370 NA
ATOM     13  O   LIG    1       -0.014   1.209   0.009  0.00  0.00    +0.090 OA
BRANCH  11  14
ATOM     14  C   LIG    1        1.672  -1.855  -0.024  0.00  0.00    -0.080 A 
ATOM     15  C   LIG    1        0.731  -2.888  -0.020  0.00  0.00    +0.100 A 
ATOM     16  C   LIG    1        1.189  -4.194  -0.031  0.00  0.00    -0.020 A 
ATOM     17  C   LIG    1        2.550  -4.433  -0.046  0.00  0.00    +0.280 A 
ATOM     18  N   LIG    1        3.416  -3.438  -0.049  0.00  0.00    -0.480 NA
ATOM     19  C   LIG    1        3.027  -2.179  -0.045  0.00  0.00    +0.320 A 
ENDBRANCH  11  14
ENDBRANCH   8   9
ENDBRANCH   7   8
ENDBRANCH   2   7
BRANCH   1  20
ATOM     20  C   LIG    1        2.736   7.150  -2.597  0.00  0.00    +0.290 C 
BRANCH  20  21
ATOM     21  C   LIG    1        4.262   7.253  -2.612  0.00  0.00    +0.060 C 
BRANCH  21  22
ATOM     22  C   LIG    1        4.668   8.704  -2.608  0.00  0.00    -0.080 A 
ATOM     23  C   LIG    1        4.848   9.374  -3.804  0.00  0.00    +0.000 A 
ATOM     24  C   LIG    1        5.216  10.707  -3.800  0.00  0.00    +0.000 A 
ATOM     25  C   LIG    1        5.414  11.366  -2.602  0.00  0.00    +0.000 A 
ATOM     26  C   LIG    1        5.239  10.694  -1.406  0.00  0.00    +0.000 A 
ATOM     27  C   LIG    1        4.866   9.363  -1.409  0.00  0.00    +0.010 A 
ENDBRANCH  21  22
ENDBRANCH  20  21
ENDBRANCH   1  20
TORSDOF 9
