REMARK  Name = ZINCqH0000007wZB.0
REMARK                            x       y       z     vdW  Elec       q    Type
REMARK                         _______ _______ _______ _____ _____    ______ ____
ROOT
ATOM      1  C   LIG    1        2.332   5.709   0.005  0.00  0.00    +0.250 C 
ATOM      2  C   LIG    1        2.424   5.439   1.508  0.00  0.00    +0.060 C 
ENDROOT
BRANCH   1  11
ATOM      3  C   LIG    1        7.455   9.335  -1.940  0.00  0.00    +0.110 A 
ATOM      4  C   LIG    1        7.362   7.966  -2.145  0.00  0.00    -0.050 A 
ATOM      5  C   LIG    1        6.265   7.270  -1.687  0.00  0.00    +0.050 A 
ATOM      6  C   LIG    1        5.241   7.934  -1.008  0.00  0.00    +0.100 A 
ATOM      7  C   LIG    1        5.338   9.302  -0.811  0.00  0.00    -0.090 A 
ATOM      8  C   LIG    1        4.109   9.770  -0.065  0.00  0.00    +0.110 C 
ATOM      9  C   LIG    1        3.275   8.496   0.146  0.00  0.00    +0.270 C 
ATOM     10  N   LIG    1        4.054   7.420  -0.472  0.00  0.00    -0.550 N 
ATOM     11  C   LIG    1        3.684   6.124  -0.515  0.00  0.00    +0.520 C 
ATOM     12  O   LIG    1        4.440   5.292  -0.971  0.00  0.00    -0.520 OA
ATOM     13  C   LIG    1        6.438  10.000  -1.271  0.00  0.00    +0.030 A 
BRANCH   3  15
ATOM     14  C   LIG    1        9.545   9.270  -3.071  0.00  0.00    +0.250 C 
ATOM     15  O   LIG    1        8.538  10.022  -2.392  0.00  0.00    -0.320 OA
ENDBRANCH   3  15
ENDBRANCH   1  11
BRANCH   1  16
ATOM     16  N   LIG    1        1.896   4.492  -0.684  0.00  0.00    -0.710 N 
ATOM     17  H   LIG    1        2.554   3.890  -1.067  0.00  0.00    +0.410 HD
ATOM     18  C   LIG    1        0.583   4.208  -0.786  0.00  0.00    +0.560 C 
ATOM     19  O   LIG    1       -0.241   4.962  -0.306  0.00  0.00    -0.510 OA
BRANCH  18  20
ATOM     20  C   LIG    1        0.144   2.980  -1.481  0.00  0.00    -0.120 A 
ATOM     21  C   LIG    1        1.087   2.112  -2.034  0.00  0.00    +0.070 A 
ATOM     22  C   LIG    1        0.671   0.968  -2.682  0.00  0.00    +0.040 A 
ATOM     23  C   LIG    1       -0.678   0.678  -2.785  0.00  0.00    +0.080 A 
ATOM     24  C   LIG    1       -1.620   1.533  -2.240  0.00  0.00    -0.040 A 
ATOM     25 CL   LIG    1       -3.310   1.160  -2.376  0.00  0.00    -0.040 Cl
ATOM     26  C   LIG    1       -1.217   2.683  -1.588  0.00  0.00    +0.020 A 
ATOM     27 CL   LIG    1       -2.399   3.759  -0.910  0.00  0.00    -0.010 Cl
ENDBRANCH  18  20
ENDBRANCH   1  16
TORSDOF 4
