REMARK  Name = ZINCpk00000KfL41.0
REMARK                            x       y       z     vdW  Elec       q    Type
REMARK                         _______ _______ _______ _____ _____    ______ ____
ROOT
ATOM      1  N   LIG    1       -0.700   1.560   1.217  0.00  0.00    -0.510 NA
ATOM      2  C   LIG    1       -0.725   3.027   1.267  0.00  0.00    +0.180 C 
ATOM      3  C   LIG    1       -1.602   3.480   2.439  0.00  0.00    +0.290 C 
ATOM      4  N   LIG    1       -1.120   2.824   3.664  0.00  0.00    -0.610 N 
ATOM      5  C   LIG    1       -0.938   1.365   3.646  0.00  0.00    +0.300 C 
ATOM      6  C   LIG    1       -0.853   3.541   4.774  0.00  0.00    +0.510 C 
ATOM      7  O   LIG    1       -0.457   2.983   5.775  0.00  0.00    -0.520 OA
ATOM      8  C   LIG    1       -0.087   0.995   2.426  0.00  0.00    +0.170 C 
ENDROOT
BRANCH   1   9
ATOM      9  C   LIG    1       -0.013   1.086   0.008  0.00  0.00    +0.310 C 
BRANCH   9  10
ATOM     10  C   LIG    1       -0.753   1.593  -1.232  0.00  0.00    +0.000 C 
ATOM     11  C   LIG    1       -2.188   1.063  -1.221  0.00  0.00    +0.050 C 
ATOM     12  C   LIG    1       -2.928   1.570  -2.460  0.00  0.00    +0.000 C 
ATOM     13  C   LIG    1       -2.212   1.077  -3.719  0.00  0.00    +0.000 C 
ATOM     14  C   LIG    1       -0.777   1.606  -3.730  0.00  0.00    +0.000 C 
ATOM     15  C   LIG    1       -0.037   1.099  -2.490  0.00  0.00    +0.010 C 
ENDBRANCH   9  10
BRANCH   9  17
ATOM     16  N   LIG    1        2.434   1.988  -0.011  0.00  0.00    -0.410 NA
ATOM     17  C   LIG    1        1.368   1.595  -0.002  0.00  0.00    +0.170 C 
ENDBRANCH   9  17
ENDBRANCH   1   9
BRANCH   6  18
ATOM     18  C   LIG    1       -1.046   5.035   4.770  0.00  0.00    +0.320 C 
BRANCH  18  19
ATOM     19  N   LIG    1       -0.690   5.577   6.084  0.00  0.00    -0.480 N 
ATOM     20  C   LIG    1       -1.643   5.687   7.045  0.00  0.00    +0.300 A 
ATOM     21  C   LIG    1       -1.336   6.179   8.268  0.00  0.00    -0.080 A 
ATOM     22  C   LIG    1       -0.026   6.592   8.549  0.00  0.00    +0.130 A 
ATOM     23  C   LIG    1        0.928   6.486   7.580  0.00  0.00    -0.090 A 
ATOM     24  C   LIG    1        0.577   5.965   6.323  0.00  0.00    +0.520 A 
ATOM     25  O   LIG    1        1.421   5.865   5.447  0.00  0.00    -0.550 OA
ENDBRANCH  18  19
ENDBRANCH   6  18
TORSDOF 5
