REMARK  Name = ZINCpk00000KfLmc.0
REMARK                            x       y       z     vdW  Elec       q    Type
REMARK                         _______ _______ _______ _____ _____    ______ ____
ROOT
ATOM      1  C   LIG    1       -1.409  -0.245   2.989  0.00  0.00    +0.160 C 
ATOM      2  C   LIG    1       -1.407   0.319   4.412  0.00  0.00    +0.190 C 
ATOM      3  N   LIG    1       -2.787   0.368   4.917  0.00  0.00    -0.530 NA
ATOM      4  C   LIG    1       -3.393  -0.971   4.907  0.00  0.00    +0.150 C 
ATOM      5  C   LIG    1       -3.376  -1.522   3.478  0.00  0.00    +0.240 C 
ATOM      6  O   LIG    1       -2.030  -1.533   2.993  0.00  0.00    -0.360 OA
ENDROOT
BRANCH   1   7
ATOM      7  C   LIG    1        0.030  -0.373   2.487  0.00  0.00    +0.370 C 
BRANCH   7  11
ATOM      8  C   LIG    1        0.028  -3.225  -1.639  0.00  0.00    +0.190 C 
ATOM      9  C   LIG    1        0.022  -2.048  -0.698  0.00  0.00    +0.220 A 
ATOM     10  N   LIG    1        0.036  -2.120   0.607  0.00  0.00    -0.300 NA
ATOM     11  N   LIG    1        0.023  -0.799   1.086  0.00  0.00    -0.370 N 
ATOM     12  C   LIG    1        0.002  -0.004   0.002  0.00  0.00    +0.270 A 
ATOM     13  C   LIG    1       -0.018   1.503   0.010  0.00  0.00    +0.190 C 
ATOM     14  N   LIG    1       -0.003  -0.767  -1.061  0.00  0.00    -0.540 NA
ENDBRANCH   7  11
ENDBRANCH   1   7
BRANCH   3  15
ATOM     15  C   LIG    1       -2.835   0.957   6.262  0.00  0.00    +0.360 C 
BRANCH  15  16
ATOM     16  C   LIG    1       -4.212   0.769   6.844  0.00  0.00    +0.170 A 
ATOM     17  N   LIG    1       -4.614  -0.247   7.555  0.00  0.00    -0.270 NA
ATOM     18  N   LIG    1       -5.846  -0.080   7.887  0.00  0.00    -0.250 NA
ATOM     19  C   LIG    1       -6.277   1.061   7.394  0.00  0.00    +0.250 A 
ATOM     20  O   LIG    1       -5.246   1.622   6.728  0.00  0.00    -0.210 OA
BRANCH  19  21
ATOM     21  C   LIG    1       -7.627   1.623   7.545  0.00  0.00    +0.020 A 
ATOM     22  C   LIG    1       -8.661   1.050   8.224  0.00  0.00    +0.060 A 
ATOM     23  C   LIG    1       -9.755   1.927   8.110  0.00  0.00    -0.050 A 
ATOM     24  C   LIG    1       -9.344   2.980   7.375  0.00  0.00    +0.230 A 
ATOM     25  O   LIG    1       -8.057   2.796   7.040  0.00  0.00    -0.160 OA
ENDBRANCH  19  21
ENDBRANCH  15  16
ENDBRANCH   3  15
TORSDOF 5
