REMARK  Name = ZINCrD000000BWcH.0
REMARK                            x       y       z     vdW  Elec       q    Type
REMARK                         _______ _______ _______ _____ _____    ______ ____
ROOT
ATOM      1  O   LIG    1       -1.135   2.880  -0.067  0.00  0.00    -0.520 OA
ATOM      2  C   LIG    1       -1.162   1.667   0.017  0.00  0.00    +0.700 C 
ATOM      3  N   LIG    1       -2.342   1.024   0.118  0.00  0.00    -0.730 N 
ATOM      4  H   LIG    1       -2.363   0.057   0.184  0.00  0.00    +0.400 HD
ATOM      5  N   LIG    1       -0.011   0.966   0.007  0.00  0.00    -0.670 N 
ATOM      6  H   LIG    1       -0.034  -0.004  -0.001  0.00  0.00    +0.410 HD
ENDROOT
BRANCH   5   7
ATOM      7  C   LIG    1        1.212   1.634   0.004  0.00  0.00    +0.380 A 
ATOM      8  C   LIG    1        2.394   0.908   0.102  0.00  0.00    -0.080 A 
ATOM      9  C   LIG    1        3.602   1.584   0.092  0.00  0.00    -0.000 A 
ATOM     10  C   LIG    1        3.585   2.968  -0.005  0.00  0.00    -0.080 A 
ATOM     11  C   LIG    1        2.374   3.626  -0.093  0.00  0.00    +0.300 A 
ATOM     12  N   LIG    1        1.238   2.954  -0.087  0.00  0.00    -0.470 NA
BRANCH   9  13
ATOM     13  C   LIG    1        4.905   0.833   0.189  0.00  0.00    +0.020 C 
ATOM     14  C   LIG    1        5.734   1.322   1.402  0.00  0.00    +0.010 C 
ATOM     15  C   LIG    1        7.181   1.377   0.873  0.00  0.00    +0.200 C 
ATOM     16  O   LIG    1        7.156   0.911  -0.487  0.00  0.00    -0.380 OA
ATOM     17  C   LIG    1        5.834   1.181  -1.002  0.00  0.00    +0.230 C 
ENDBRANCH   9  13
ENDBRANCH   5   7
BRANCH   3  18
ATOM     18  C   LIG    1       -3.593   1.787   0.128  0.00  0.00    +0.340 C 
BRANCH  18  19
ATOM     19  C   LIG    1       -4.660   0.992   0.836  0.00  0.00    -0.090 A 
ATOM     20  C   LIG    1       -4.754  -0.372   0.635  0.00  0.00    +0.020 A 
ATOM     21  C   LIG    1       -5.730  -1.102   1.288  0.00  0.00    +0.000 A 
ATOM     22  C   LIG    1       -6.617  -0.465   2.136  0.00  0.00    +0.000 A 
ATOM     23  C   LIG    1       -6.526   0.900   2.334  0.00  0.00    +0.000 A 
ATOM     24  C   LIG    1       -5.548   1.629   1.684  0.00  0.00    +0.010 A 
ENDBRANCH  18  19
BRANCH  18  25
ATOM     25  C   LIG    1       -4.034   2.062  -1.311  0.00  0.00    +0.110 C 
ATOM     26  C   LIG    1       -3.224   3.172  -2.002  0.00  0.00    +0.020 C 
ATOM     27  C   LIG    1       -4.552   3.649  -2.616  0.00  0.00    +0.000 C 
ATOM     28  C   LIG    1       -5.253   2.994  -1.414  0.00  0.00    +0.000 C 
BRANCH  25  29
ATOM     29  O   LIG    1       -4.155   0.872  -2.092  0.00  0.00    -0.540 OA
ATOM     30  H   LIG    1       -4.433   1.027  -3.005  0.00  0.00    +0.380 HD
ENDBRANCH  25  29
ENDBRANCH  18  25
ENDBRANCH   3  18
TORSDOF 6
