REMARK  Name = ZINCkj00000KEnGC.0
REMARK                            x       y       z     vdW  Elec       q    Type
REMARK                         _______ _______ _______ _____ _____    ______ ____
ROOT
ATOM      1  C   LIG    1        1.120   3.657   0.011  0.00  0.00    -0.010 C 
ATOM      2  C   LIG    1        0.384   4.166  -1.232  0.00  0.00    +0.060 C 
ATOM      3  C   LIG    1        0.437   5.696  -1.255  0.00  0.00    +0.070 C 
ATOM      4  C   LIG    1        1.897   6.151  -1.218  0.00  0.00    +0.240 C 
ATOM      5  N   LIG    1        2.538   5.656   0.006  0.00  0.00    -0.380 N 
ATOM      6  H   LIG    1        2.022   5.982   0.809  0.00  0.00    +0.420 HD
ATOM      7  C   LIG    1        2.555   4.188   0.000  0.00  0.00    +0.290 C 
ENDROOT
BRANCH   1  10
ATOM      8  N   LIG    1       -0.018   1.461   0.010  0.00  0.00    -0.710 N 
ATOM      9  H   LIG    1       -0.864   1.934   0.017  0.00  0.00    +0.420 HD
ATOM     10  C   LIG    1        1.140   2.151   0.003  0.00  0.00    +0.530 C 
ATOM     11  O   LIG    1        2.199   1.558  -0.011  0.00  0.00    -0.530 OA
BRANCH   8  12
ATOM     12  C   LIG    1        0.002  -0.004   0.002  0.00  0.00    +0.350 C 
BRANCH  12  13
ATOM     13  C   LIG    1       -1.412  -0.526   0.013  0.00  0.00    +0.270 C 
ATOM     14  S   LIG    1       -2.641   0.497   0.030  0.00  0.00    -0.430 S 
BRANCH  13  15
ATOM     15  N   LIG    1       -1.640  -1.854   0.008  0.00  0.00    -0.760 N 
ATOM     16  H   LIG    1       -2.550  -2.190   0.015  0.00  0.00    +0.430 HD
ATOM     17  H   LIG    1       -0.894  -2.474  -0.003  0.00  0.00    +0.410 HD
ENDBRANCH  13  15
ENDBRANCH  12  13
ENDBRANCH   8  12
ENDBRANCH   1  10
BRANCH   5  18
ATOM     18  C   LIG    1        3.916   6.160   0.074  0.00  0.00    +0.330 C 
BRANCH  18  19
ATOM     19  C   LIG    1        3.896   7.661   0.203  0.00  0.00    -0.160 A 
ATOM     20  C   LIG    1        3.914   8.453  -0.929  0.00  0.00    +0.030 A 
ATOM     21  C   LIG    1        3.891   9.830  -0.811  0.00  0.00    +0.030 A 
ATOM     22  C   LIG    1        3.860  10.415   0.441  0.00  0.00    +0.060 A 
ATOM     23  C   LIG    1        3.848   9.623   1.574  0.00  0.00    +0.030 A 
ATOM     24  C   LIG    1        3.866   8.246   1.456  0.00  0.00    +0.040 A 
ENDBRANCH  18  19
ENDBRANCH   5  18
TORSDOF 6
