REMARK  Name = ZINCkj00000KEnGC.1
REMARK                            x       y       z     vdW  Elec       q    Type
REMARK                         _______ _______ _______ _____ _____    ______ ____
ROOT
ATOM      1  C   LIG    1       -1.548   3.783   2.677  0.00  0.00    +0.020 C 
ATOM      2  C   LIG    1       -2.985   3.254   2.689  0.00  0.00    +0.070 C 
ATOM      3  C   LIG    1       -3.740   3.826   1.486  0.00  0.00    +0.050 C 
ATOM      4  C   LIG    1       -3.685   5.355   1.536  0.00  0.00    +0.240 C 
ATOM      5  N   LIG    1       -2.286   5.799   1.496  0.00  0.00    -0.380 N 
ATOM      6  H   LIG    1       -1.843   5.434   0.666  0.00  0.00    +0.430 HD
ATOM      7  C   LIG    1       -1.575   5.313   2.684  0.00  0.00    +0.300 C 
ENDROOT
BRANCH   1  10
ATOM      8  N   LIG    1       -0.704   1.975   1.216  0.00  0.00    -0.700 N 
ATOM      9  H   LIG    1       -1.058   1.337   1.854  0.00  0.00    +0.430 HD
ATOM     10  C   LIG    1       -0.843   3.297   1.437  0.00  0.00    +0.520 C 
ATOM     11  O   LIG    1       -0.401   4.096   0.639  0.00  0.00    -0.560 OA
BRANCH   8  12
ATOM     12  C   LIG    1       -0.018   1.503   0.010  0.00  0.00    +0.350 C 
BRANCH  12  13
ATOM     13  C   LIG    1        0.002  -0.004   0.002  0.00  0.00    +0.260 C 
ATOM     14  S   LIG    1       -0.668  -0.819   1.203  0.00  0.00    -0.420 S 
BRANCH  13  15
ATOM     15  N   LIG    1        0.585  -0.664  -1.018  0.00  0.00    -0.760 N 
ATOM     16  H   LIG    1        0.598  -1.634  -1.023  0.00  0.00    +0.430 HD
ATOM     17  H   LIG    1        0.992  -0.170  -1.747  0.00  0.00    +0.400 HD
ENDBRANCH  13  15
ENDBRANCH  12  13
ENDBRANCH   8  12
ENDBRANCH   1  10
BRANCH   5  18
ATOM     18  C   LIG    1       -2.241   7.267   1.468  0.00  0.00    +0.320 C 
BRANCH  18  19
ATOM     19  C   LIG    1       -2.856   7.764   0.185  0.00  0.00    -0.160 A 
ATOM     20  C   LIG    1       -2.064   7.955  -0.933  0.00  0.00    +0.040 A 
ATOM     21  C   LIG    1       -2.629   8.406  -2.111  0.00  0.00    +0.030 A 
ATOM     22  C   LIG    1       -3.983   8.677  -2.169  0.00  0.00    +0.050 A 
ATOM     23  C   LIG    1       -4.774   8.491  -1.050  0.00  0.00    +0.020 A 
ATOM     24  C   LIG    1       -4.210   8.035   0.127  0.00  0.00    +0.030 A 
ENDBRANCH  18  19
ENDBRANCH   5  18
TORSDOF 6
