REMARK  Name = ZINCrH000004ogV2.0
REMARK                            x       y       z     vdW  Elec       q    Type
REMARK                         _______ _______ _______ _____ _____    ______ ____
ROOT
ATOM      1  N   LIG    1       -2.833   7.033  -1.110  0.00  0.00    -0.740 N 
ATOM      2  H   LIG    1       -2.775   6.559  -1.954  0.00  0.00    +0.400 HD
ATOM      3  C   LIG    1       -2.841   6.345   0.049  0.00  0.00    +0.710 C 
ATOM      4  N   LIG    1       -2.666   5.009   0.042  0.00  0.00    -0.630 N 
ATOM      5  C   LIG    1       -2.562   4.261   1.302  0.00  0.00    +0.300 C 
ATOM      6  C   LIG    1       -1.276   3.429   1.277  0.00  0.00    +0.040 C 
ATOM      7  C   LIG    1       -1.264   2.552   0.022  0.00  0.00    +0.090 C 
ATOM      8  C   LIG    1       -1.289   3.441  -1.223  0.00  0.00    +0.040 C 
ATOM      9  C   LIG    1       -2.576   4.273  -1.226  0.00  0.00    +0.260 C 
ATOM     10  O   LIG    1       -3.007   6.931   1.102  0.00  0.00    -0.580 OA
ENDROOT
BRANCH   7  11
ATOM     11  C   LIG    1       -0.016   1.708   0.012  0.00  0.00    +0.060 A 
ATOM     12  N   LIG    1        1.185   2.168   0.003  0.00  0.00    -0.460 NA
ATOM     13  C   LIG    1        2.183   1.296  -0.012  0.00  0.00    +0.070 A 
ATOM     14  C   LIG    1        1.767   0.016  -0.015  0.00  0.00    -0.220 A 
ATOM     15  C   LIG    1        2.671  -1.193  -0.031  0.00  0.00    +0.120 C 
ATOM     16  C   LIG    1        4.078  -0.746  -0.445  0.00  0.00    +0.030 C 
ATOM     17  C   LIG    1        4.484   0.466   0.399  0.00  0.00    +0.030 C 
ATOM     18  C   LIG    1        3.655   1.681  -0.023  0.00  0.00    +0.120 C 
ATOM     19  S   LIG    1        0.009  -0.001   0.002  0.00  0.00    +0.110 S 
ENDBRANCH   7  11
BRANCH   1  21
ATOM     20  C   LIG    1       -4.378   8.926  -1.020  0.00  0.00    +0.040 C 
ATOM     21  C   LIG    1       -2.912   8.495  -1.095  0.00  0.00    +0.300 C 
BRANCH  21  22
ATOM     22  C   LIG    1       -2.291   9.045  -2.354  0.00  0.00    +0.010 A 
ATOM     23  C   LIG    1       -1.292   9.970  -2.282  0.00  0.00    -0.070 A 
ATOM     24  C   LIG    1       -0.725  10.464  -3.470  0.00  0.00    +0.520 A 
ATOM     25  N   LIG    1       -1.177  10.031  -4.662  0.00  0.00    -0.610 N 
ATOM     26  H   LIG    1       -0.784  10.379  -5.478  0.00  0.00    +0.420 HD
ATOM     27  C   LIG    1       -2.175   9.114  -4.736  0.00  0.00    +0.310 A 
ATOM     28  O   LIG    1        0.173  11.289  -3.420  0.00  0.00    -0.550 OA
ATOM     29  C   LIG    1       -2.739   8.615  -3.611  0.00  0.00    -0.080 A 
ENDBRANCH  21  22
ENDBRANCH   1  21
TORSDOF 3
