REMARK  Name = ZINCrH000004vGKs.0
REMARK                            x       y       z     vdW  Elec       q    Type
REMARK                         _______ _______ _______ _____ _____    ______ ____
ROOT
ATOM      1  N   LIG    1       -2.532   5.134   0.046  0.00  0.00    -0.550 NA
ATOM      2  C   LIG    1       -2.550   4.295   1.252  0.00  0.00    +0.190 C 
ATOM      3  C   LIG    1       -1.301   3.410   1.277  0.00  0.00    +0.060 C 
ATOM      4  C   LIG    1       -1.278   2.533   0.022  0.00  0.00    +0.080 C 
ATOM      5  C   LIG    1       -1.310   3.430  -1.219  0.00  0.00    +0.050 C 
ATOM      6  C   LIG    1       -2.558   4.314  -1.171  0.00  0.00    +0.180 C 
ENDROOT
BRANCH   4   7
ATOM      7  C   LIG    1       -0.021   1.702   0.011  0.00  0.00    +0.100 A 
ATOM      8  N   LIG    1        1.162   2.188   0.003  0.00  0.00    -0.460 NA
ATOM      9  C   LIG    1        2.196   1.325  -0.012  0.00  0.00    +0.080 A 
ATOM     10  C   LIG    1        3.582   1.581  -0.023  0.00  0.00    +0.070 A 
ATOM     11  C   LIG    1        4.474   0.551  -0.037  0.00  0.00    +0.030 A 
ATOM     12  C   LIG    1        4.037  -0.766  -0.041  0.00  0.00    +0.040 A 
ATOM     13  C   LIG    1        2.689  -1.046  -0.029  0.00  0.00    +0.060 A 
ATOM     14  C   LIG    1        1.763  -0.005  -0.015  0.00  0.00    -0.180 A 
ATOM     15  S   LIG    1        0.002  -0.004   0.002  0.00  0.00    +0.090 S 
ENDBRANCH   4   7
BRANCH   1  16
ATOM     16  C   LIG    1       -3.643   6.095   0.058  0.00  0.00    +0.460 C 
BRANCH  16  27
ATOM     17  O   LIG    1       -2.345   8.491   0.880  0.00  0.00    -0.470 OA
ATOM     18  C   LIG    1       -2.680   8.338  -0.275  0.00  0.00    +0.530 C 
ATOM     19  C   LIG    1       -2.469   9.340  -1.391  0.00  0.00    +0.090 C 
ATOM     20  C   LIG    1       -3.080   8.640  -2.611  0.00  0.00    -0.100 C 
ATOM     21  C   LIG    1       -3.571   7.321  -2.079  0.00  0.00    +0.540 C 
ATOM     22  O   LIG    1       -4.124   6.460  -2.729  0.00  0.00    -0.470 OA
ATOM     23  C   LIG    1       -4.231   9.468  -3.198  0.00  0.00    +0.050 C 
ATOM     24  C   LIG    1       -3.582  10.220  -4.389  0.00  0.00    +0.020 C 
ATOM     25  C   LIG    1       -2.598   9.171  -4.965  0.00  0.00    +0.020 C 
ATOM     26  C   LIG    1       -2.040   8.449  -3.717  0.00  0.00    +0.050 C 
ATOM     27  N   LIG    1       -3.295   7.254  -0.768  0.00  0.00    -0.570 N 
ENDBRANCH  16  27
ENDBRANCH   1  16
TORSDOF 3
