REMARK  Name = ZINCb70000005y25.0
REMARK                            x       y       z     vdW  Elec       q    Type
REMARK                         _______ _______ _______ _____ _____    ______ ____
ROOT
ATOM      1  C   LIG    1        0.002  -0.004   0.002  0.00  0.00    +0.140 A 
ATOM      2  N   LIG    1        0.608  -0.765  -0.869  0.00  0.00    -0.270 NA
ATOM      3  N   LIG    1        0.416  -2.001  -0.571  0.00  0.00    -0.270 NA
ATOM      4  C   LIG    1       -0.320  -2.085   0.503  0.00  0.00    +0.240 A 
ATOM      5  N   LIG    1       -0.600  -0.820   0.900  0.00  0.00    -0.570 N 
ATOM      6  H   LIG    1       -1.126  -0.553   1.671  0.00  0.00    +0.430 HD
ENDROOT
BRANCH   4   7
ATOM      7  C   LIG    1       -0.771  -3.354   1.180  0.00  0.00    +0.060 C 
ATOM      8  C   LIG    1       -1.292  -3.243   2.614  0.00  0.00    +0.040 C 
ATOM      9  C   LIG    1        0.075  -3.874   2.343  0.00  0.00    +0.070 C 
ENDBRANCH   4   7
BRANCH   1  10
ATOM     10  C   LIG    1       -0.018   1.503   0.010  0.00  0.00    +0.180 C 
BRANCH  10  11
ATOM     11  C   LIG    1        1.417   2.032  -0.001  0.00  0.00    +0.290 C 
BRANCH  11  12
ATOM     12  N   LIG    1        1.397   3.501   0.007  0.00  0.00    -0.640 N 
ATOM     13  H   LIG    1        0.909   3.835  -0.810  0.00  0.00    +0.440 HD
ATOM     14  H   LIG    1        2.344   3.850   0.000  0.00  0.00    +0.440 HD
ATOM     15  H   LIG    1        0.925   3.827   0.838  0.00  0.00    +0.440 HD
ENDBRANCH  11  12
ENDBRANCH  10  11
ENDBRANCH   1  10
TORSDOF 4
