REMARK  Name = ZINCb70000005y25.1
REMARK                            x       y       z     vdW  Elec       q    Type
REMARK                         _______ _______ _______ _____ _____    ______ ____
ROOT
ATOM      1  C   LIG    1        0.000   1.080   2.488  0.00  0.00    +0.260 A 
ATOM      2  N   LIG    1       -0.290   0.001   3.168  0.00  0.00    -0.520 NA
ATOM      3  C   LIG    1        0.562  -0.136   4.183  0.00  0.00    +0.270 A 
ATOM      4  N   LIG    1        1.405   0.862   4.167  0.00  0.00    -0.290 NA
ATOM      5  N   LIG    1        1.059   1.669   3.071  0.00  0.00    -0.470 N 
ATOM      6  H   LIG    1        1.496   2.487   2.790  0.00  0.00    +0.440 HD
ENDROOT
BRANCH   3   7
ATOM      7  C   LIG    1        0.551  -1.258   5.190  0.00  0.00    +0.050 C 
ATOM      8  C   LIG    1        1.476  -1.127   6.402  0.00  0.00    +0.060 C 
ATOM      9  C   LIG    1        1.805  -2.128   5.291  0.00  0.00    +0.060 C 
ENDBRANCH   3   7
BRANCH   1  10
ATOM     10  C   LIG    1       -0.729   1.579   1.267  0.00  0.00    +0.170 C 
BRANCH  10  11
ATOM     11  C   LIG    1       -0.013   1.086   0.008  0.00  0.00    +0.290 C 
BRANCH  11  12
ATOM     12  N   LIG    1       -0.723   1.572  -1.182  0.00  0.00    -0.630 N 
ATOM     13  H   LIG    1       -0.737   2.581  -1.177  0.00  0.00    +0.440 HD
ATOM     14  H   LIG    1       -1.670   1.223  -1.175  0.00  0.00    +0.440 HD
ATOM     15  H   LIG    1       -0.251   1.247  -2.012  0.00  0.00    +0.440 HD
ENDBRANCH  11  12
ENDBRANCH  10  11
ENDBRANCH   1  10
TORSDOF 4
