REMARK  Name = ZINCvU00000005t0.0
REMARK                            x       y       z     vdW  Elec       q    Type
REMARK                         _______ _______ _______ _____ _____    ______ ____
ROOT
ATOM      1  N   LIG    1        1.503  -2.373  -1.446  0.00  0.00    -0.510 NA
ENDROOT
BRANCH   1   2
ATOM      2  C   LIG    1        1.578  -1.652  -0.169  0.00  0.00    +0.270 C 
BRANCH   2   7
ATOM      3  C   LIG    1        2.153   3.684  -1.248  0.00  0.00    +0.130 C 
ATOM      4  C   LIG    1        1.734   2.275  -0.914  0.00  0.00    -0.190 A 
ATOM      5  C   LIG    1        0.490   1.892  -0.621  0.00  0.00    -0.010 A 
ATOM      6  C   LIG    1        0.345   0.542  -0.348  0.00  0.00    -0.010 A 
ATOM      7  C   LIG    1        1.470  -0.170  -0.421  0.00  0.00    -0.160 A 
ATOM      8  S   LIG    1        2.809   0.884  -0.854  0.00  0.00    +0.140 S 
ENDBRANCH   2   7
ENDBRANCH   1   2
BRANCH   1   9
ATOM      9  C   LIG    1        1.958  -3.761  -1.295  0.00  0.00    +0.300 C 
BRANCH   9  10
ATOM     10  C   LIG    1        3.428  -3.774  -0.962  0.00  0.00    +0.380 A 
ATOM     11  N   LIG    1        4.065  -2.642  -0.862  0.00  0.00    -0.460 NA
ATOM     12  C   LIG    1        5.373  -2.605  -0.561  0.00  0.00    +0.130 A 
ATOM     13  C   LIG    1        6.075  -3.790  -0.362  0.00  0.00    -0.090 A 
ATOM     14  C   LIG    1        5.368  -5.009  -0.480  0.00  0.00    +0.570 A 
ATOM     15  O   LIG    1        5.935  -6.077  -0.316  0.00  0.00    -0.510 OA
ATOM     16  O   LIG    1        7.361  -3.496  -0.082  0.00  0.00    -0.160 OA
ATOM     17  C   LIG    1        7.571  -2.163  -0.080  0.00  0.00    +0.090 A 
ATOM     18  C   LIG    1        8.703  -1.389   0.149  0.00  0.00    +0.020 A 
ATOM     19  C   LIG    1        8.625  -0.015   0.084  0.00  0.00    +0.070 A 
ATOM     20  C   LIG    1        7.423   0.612  -0.209  0.00  0.00    +0.000 A 
ATOM     21  C   LIG    1        6.289  -0.136  -0.440  0.00  0.00    +0.100 A 
ATOM     22  C   LIG    1        6.355  -1.526  -0.377  0.00  0.00    -0.120 A 
ATOM     23  N   LIG    1        4.052  -4.964  -0.779  0.00  0.00    -0.620 N 
ATOM     24  H   LIG    1        3.550  -5.790  -0.865  0.00  0.00    +0.430 HD
ENDBRANCH   9  10
ENDBRANCH   1   9
BRANCH   1  25
ATOM     25  C   LIG    1        0.143  -2.322  -2.001  0.00  0.00    +0.190 C 
BRANCH  25  26
ATOM     26  C   LIG    1        0.177  -2.736  -3.473  0.00  0.00    +0.070 C 
BRANCH  26  27
ATOM     27  C   LIG    1       -1.211  -2.643  -4.053  0.00  0.00    -0.080 A 
ATOM     28  C   LIG    1       -2.052  -3.739  -4.009  0.00  0.00    +0.000 A 
ATOM     29  C   LIG    1       -3.327  -3.653  -4.537  0.00  0.00    +0.000 A 
ATOM     30  C   LIG    1       -3.757  -2.474  -5.117  0.00  0.00    +0.000 A 
ATOM     31  C   LIG    1       -2.914  -1.380  -5.165  0.00  0.00    +0.000 A 
ATOM     32  C   LIG    1       -1.641  -1.465  -4.633  0.00  0.00    +0.010 A 
ENDBRANCH  26  27
ENDBRANCH  25  26
ENDBRANCH   1  25
TORSDOF 7
