REMARK  Name = ZINCqH00000070m8.0
REMARK                            x       y       z     vdW  Elec       q    Type
REMARK                         _______ _______ _______ _____ _____    ______ ____
ROOT
ATOM      1  C   LIG    1       -0.013   1.086   0.008  0.00  0.00    +0.400 C 
ENDROOT
BRANCH   1   5
ATOM      2  N   LIG    1       -2.154   1.785  -2.882  0.00  0.00    -0.310 N 
ATOM      3  C   LIG    1       -1.315   2.843  -2.957  0.00  0.00    +0.230 A 
ATOM      4  C   LIG    1       -0.436   2.745  -1.933  0.00  0.00    -0.080 A 
ATOM      5  C   LIG    1       -0.742   1.585  -1.213  0.00  0.00    +0.050 A 
ATOM      6  N   LIG    1       -1.773   1.011  -1.779  0.00  0.00    -0.270 NA
BRANCH   2  10
ATOM      7  C   LIG    1       -5.317   0.972  -5.477  0.00  0.00    +0.130 A 
ATOM      8  C   LIG    1       -5.050   0.115  -4.419  0.00  0.00    +0.010 A 
ATOM      9  C   LIG    1       -4.003   0.383  -3.560  0.00  0.00    +0.080 A 
ATOM     10  C   LIG    1       -3.218   1.512  -3.755  0.00  0.00    +0.110 A 
ATOM     11  C   LIG    1       -3.489   2.372  -4.811  0.00  0.00    +0.040 A 
ATOM     12  C   LIG    1       -4.533   2.099  -5.672  0.00  0.00    -0.040 A 
BRANCH   7  14
ATOM     13  C   LIG    1       -6.566   1.631  -7.390  0.00  0.00    +0.240 C 
ATOM     14  O   LIG    1       -6.348   0.706  -6.323  0.00  0.00    -0.310 OA
ENDBRANCH   7  14
ENDBRANCH   2  10
ENDBRANCH   1   5
BRANCH   1  15
ATOM     15  N   LIG    1       -0.698   1.558   1.213  0.00  0.00    -0.690 N 
ATOM     16  H   LIG    1       -1.495   2.106   1.135  0.00  0.00    +0.410 HD
BRANCH  15  17
ATOM     17  C   LIG    1       -0.211   1.225   2.459  0.00  0.00    +0.480 A 
ATOM     18  N   LIG    1        0.877   0.478   2.587  0.00  0.00    -0.600 NA
ATOM     19  C   LIG    1        1.355   0.151   3.778  0.00  0.00    +0.540 A 
ATOM     20  N   LIG    1        0.798   0.535   4.901  0.00  0.00    -0.550 NA
ATOM     21  C   LIG    1       -0.308   1.295   4.887  0.00  0.00    +0.190 A 
ATOM     22  C   LIG    1       -0.929   1.724   6.067  0.00  0.00    -0.080 A 
ATOM     23  C   LIG    1       -2.042   2.509   5.995  0.00  0.00    +0.050 A 
ATOM     24  C   LIG    1       -2.582   2.877   4.766  0.00  0.00    +0.000 A 
ATOM     25  C   LIG    1       -2.005   2.473   3.598  0.00  0.00    +0.040 A 
ATOM     26  C   LIG    1       -0.361   1.335   7.407  0.00  0.00    +0.110 C 
ATOM     27  C   LIG    1       -0.855   1.676   3.637  0.00  0.00    -0.190 A 
ENDBRANCH  15  17
ENDBRANCH   1  15
TORSDOF 5
