REMARK  Name = ZINCrH000004mMZY.0
REMARK                            x       y       z     vdW  Elec       q    Type
REMARK                         _______ _______ _______ _____ _____    ______ ____
ROOT
ATOM      1  S   LIG    1        2.500   1.027  -0.117  0.00  0.00    +2.690 S 
ATOM      2  O   LIG    1        2.046  -0.212   0.412  0.00  0.00    -0.940 OA
ATOM      3  O   LIG    1        3.454   1.849   0.539  0.00  0.00    -0.940 OA
ENDROOT
BRANCH   1   4
ATOM      4  C   LIG    1        1.065   2.022  -0.354  0.00  0.00    -0.700 A 
ATOM      5  C   LIG    1       -0.172   1.423  -0.508  0.00  0.00    +0.170 A 
ATOM      6  C   LIG    1       -1.297   2.200  -0.706  0.00  0.00    -0.030 A 
ATOM      7  C   LIG    1       -1.186   3.584  -0.739  0.00  0.00    +0.230 A 
ATOM      8  N   LIG    1       -2.322   4.370  -0.954  0.00  0.00    -0.660 N 
ATOM      9  H   LIG    1       -3.203   3.972  -0.872  0.00  0.00    +0.420 HD
ATOM     10  C   LIG    1       -2.207   5.671  -1.272  0.00  0.00    +0.520 C 
ATOM     11  C   LIG    1       -0.855   6.282  -1.532  0.00  0.00    +0.090 C 
ATOM     12  C   LIG    1        0.177   5.684  -0.576  0.00  0.00    -0.020 C 
ATOM     13  C   LIG    1        1.583   6.081  -1.031  0.00  0.00    +0.050 C 
ATOM     14  C   LIG    1       -0.070   6.217   0.837  0.00  0.00    +0.040 C 
ATOM     15  O   LIG    1       -3.202   6.360  -1.349  0.00  0.00    -0.510 OA
ATOM     16  C   LIG    1        0.055   4.182  -0.573  0.00  0.00    -0.140 A 
ATOM     17  C   LIG    1        1.178   3.400  -0.387  0.00  0.00    +0.170 A 
ENDBRANCH   1   4
BRANCH   1  18
ATOM     18  N   LIG    1        3.120   0.695  -1.616  0.00  0.00    -0.950 N 
ATOM     19  C   LIG    1        4.015   1.655  -2.267  0.00  0.00    +0.320 C 
BRANCH  18  23
ATOM     20  C   LIG    1        2.134  -2.872  -3.536  0.00  0.00    +0.140 A 
ATOM     21  C   LIG    1        2.779  -2.900  -2.309  0.00  0.00    -0.030 A 
ATOM     22  C   LIG    1        3.107  -1.718  -1.672  0.00  0.00    +0.080 A 
ATOM     23  C   LIG    1        2.789  -0.502  -2.261  0.00  0.00    +0.110 A 
ATOM     24  C   LIG    1        2.139  -0.473  -3.488  0.00  0.00    +0.080 A 
ATOM     25  C   LIG    1        1.817  -1.656  -4.126  0.00  0.00    -0.060 A 
ATOM     26 CL   LIG    1        1.010  -1.621  -5.662  0.00  0.00    -0.050 Cl
BRANCH  20  28
ATOM     27  C   LIG    1        2.169  -5.250  -3.497  0.00  0.00    +0.250 C 
ATOM     28  O   LIG    1        1.812  -4.036  -4.162  0.00  0.00    -0.300 OA
ENDBRANCH  20  28
ENDBRANCH  18  23
ENDBRANCH   1  18
TORSDOF 4
