REMARK  Name = ZINCqH0000050t94.2
REMARK                            x       y       z     vdW  Elec       q    Type
REMARK                         _______ _______ _______ _____ _____    ______ ____
ROOT
ATOM      1  C   LIG    1       -1.350   1.984  -3.515  0.00  0.00    +0.220 C 
ENDROOT
BRANCH   1   2
ATOM      2  C   LIG    1       -2.854   1.900  -3.570  0.00  0.00    +0.550 C 
ATOM      3  N   LIG    1       -3.584   2.162  -2.468  0.00  0.00    -0.470 N 
ATOM      4  C   LIG    1       -5.053   2.117  -2.384  0.00  0.00    +0.260 C 
ATOM      5  C   LIG    1       -5.346   2.495  -0.918  0.00  0.00    +0.090 C 
ATOM      6  C   LIG    1       -3.971   2.720  -0.322  0.00  0.00    +0.140 C 
ATOM      7  N   LIG    1       -3.072   2.520  -1.222  0.00  0.00    -0.240 NA
ATOM      8  O   LIG    1       -3.407   1.597  -4.606  0.00  0.00    -0.500 OA
BRANCH   6   9
ATOM      9  C   LIG    1       -3.704   3.106   1.077  0.00  0.00    -0.040 A 
ATOM     10  C   LIG    1       -4.763   3.301   1.966  0.00  0.00    +0.040 A 
ATOM     11  C   LIG    1       -4.505   3.658   3.273  0.00  0.00    +0.010 A 
ATOM     12  C   LIG    1       -3.201   3.833   3.701  0.00  0.00    +0.030 A 
ATOM     13  C   LIG    1       -2.147   3.646   2.825  0.00  0.00    +0.010 A 
ATOM     14  C   LIG    1       -2.390   3.284   1.516  0.00  0.00    +0.050 A 
ENDBRANCH   6   9
ENDBRANCH   1   2
BRANCH   1  19
ATOM     15  C   LIG    1        0.692   1.652  -4.798  0.00  0.00    +0.170 C 
ATOM     16  C   LIG    1        1.132   0.668  -5.910  0.00  0.00    +0.050 C 
ATOM     17  C   LIG    1        0.153  -0.515  -5.733  0.00  0.00    +0.020 C 
ATOM     18  C   LIG    1       -1.058   0.074  -4.987  0.00  0.00    +0.170 C 
ATOM     19  N   LIG    1       -0.787   1.514  -4.787  0.00  0.00    -0.490 NA
BRANCH  15  24
ATOM     20  C   LIG    1        2.226   7.061  -6.135  0.00  0.00    +0.090 C 
ATOM     21  C   LIG    1        1.826   5.650  -5.786  0.00  0.00    -0.090 A 
ATOM     22  C   LIG    1        2.514   4.959  -4.807  0.00  0.00    +0.000 A 
ATOM     23  C   LIG    1        2.147   3.665  -4.487  0.00  0.00    +0.010 A 
ATOM     24  C   LIG    1        1.092   3.063  -5.146  0.00  0.00    -0.080 A 
ATOM     25  C   LIG    1        0.407   3.752  -6.129  0.00  0.00    +0.050 A 
ATOM     26  C   LIG    1        0.771   5.048  -6.446  0.00  0.00    -0.010 A 
ENDBRANCH  15  24
ENDBRANCH   1  19
TORSDOF 4
