REMARK  Name = ZINCrD000000CfDZ.1
REMARK                            x       y       z     vdW  Elec       q    Type
REMARK                         _______ _______ _______ _____ _____    ______ ____
ROOT
ATOM      1  O   LIG    1        5.776  -2.206  -0.059  0.00  0.00    -0.450 OA
ATOM      2  C   LIG    1        6.577  -1.296  -0.062  0.00  0.00    +0.520 C 
ATOM      3  N   LIG    1        6.145  -0.019  -0.053  0.00  0.00    -0.620 N 
ATOM      4  H   LIG    1        6.785   0.710  -0.056  0.00  0.00    +0.430 HD
ENDROOT
BRANCH   2   5
ATOM      5  C   LIG    1        8.054  -1.591  -0.077  0.00  0.00    +0.010 C 
ATOM      6  C   LIG    1        8.744  -1.029   1.187  0.00  0.00    +0.090 C 
ATOM      7  C   LIG    1        9.790  -2.066   1.532  0.00  0.00    +0.530 C 
ATOM      8  N   LIG    1        9.529  -3.217   0.888  0.00  0.00    -0.580 N 
ATOM      9  O   LIG    1       10.727  -1.886   2.280  0.00  0.00    -0.510 OA
ATOM     10  C   LIG    1        8.316  -3.107   0.069  0.00  0.00    +0.310 C 
BRANCH   8  11
ATOM     11  C   LIG    1       10.313  -4.373   0.987  0.00  0.00    +0.100 A 
ATOM     12  C   LIG    1       10.041  -5.317   1.967  0.00  0.00    +0.060 A 
ATOM     13  C   LIG    1       10.816  -6.457   2.062  0.00  0.00    +0.020 A 
ATOM     14  C   LIG    1       11.863  -6.658   1.182  0.00  0.00    +0.060 A 
ATOM     15  C   LIG    1       12.139  -5.720   0.204  0.00  0.00    -0.010 A 
ATOM     16  C   LIG    1       11.364  -4.580   0.099  0.00  0.00    +0.110 A 
ATOM     17  F   LIG    1       11.630  -3.667  -0.860  0.00  0.00    -0.130 F 
ENDBRANCH   8  11
ENDBRANCH   2   5
BRANCH   3  18
ATOM     18  C   LIG    1        4.783   0.254  -0.039  0.00  0.00    +0.220 A 
ATOM     19  N   LIG    1        3.833  -0.635  -0.034  0.00  0.00    -0.260 NA
ATOM     20  N   LIG    1        2.641  -0.220  -0.017  0.00  0.00    -0.220 NA
ATOM     21  C   LIG    1        2.478   1.075  -0.015  0.00  0.00    +0.050 A 
ATOM     22  S   LIG    1        4.079   1.815  -0.026  0.00  0.00    +0.140 S 
BRANCH  21  23
ATOM     23  C   LIG    1        1.186   1.792   0.000  0.00  0.00    -0.030 A 
ATOM     24  C   LIG    1       -0.013   1.076   0.008  0.00  0.00    +0.070 A 
ATOM     25  C   LIG    1       -1.216   1.751   0.017  0.00  0.00    +0.010 A 
ATOM     26  C   LIG    1       -1.236   3.134   0.029  0.00  0.00    +0.030 A 
ATOM     27  C   LIG    1       -0.052   3.850   0.022  0.00  0.00    +0.010 A 
ATOM     28  C   LIG    1        1.158   3.187   0.008  0.00  0.00    +0.020 A 
ENDBRANCH  21  23
ENDBRANCH   3  18
TORSDOF 4
