REMARK  Name = ZINCrD000000CFDZ.0
REMARK                            x       y       z     vdW  Elec       q    Type
REMARK                         _______ _______ _______ _____ _____    ______ ____
ROOT
ATOM      1  O   LIG    1       -2.321  -0.178   0.130  0.00  0.00    -0.510 OA
ATOM      2  C   LIG    1       -1.261  -0.763   0.011  0.00  0.00    +0.560 C 
ATOM      3  N   LIG    1       -1.241  -2.106  -0.099  0.00  0.00    -0.610 N 
ATOM      4  C   LIG    1        0.032  -2.843  -0.123  0.00  0.00    +0.300 C 
ATOM      5  C   LIG    1       -0.040  -3.964   0.925  0.00  0.00    +0.210 C 
ATOM      6  N   LIG    1       -1.235  -4.782   0.679  0.00  0.00    -0.460 N 
ATOM      7  C   LIG    1       -2.463  -3.993   0.844  0.00  0.00    +0.220 C 
ATOM      8  C   LIG    1       -2.492  -2.874  -0.202  0.00  0.00    +0.300 C 
ENDROOT
BRANCH   6   9
ATOM      9  C   LIG    1       -1.249  -5.898   1.498  0.00  0.00    +0.490 A 
ATOM     10  N   LIG    1       -2.293  -6.110   2.285  0.00  0.00    -0.550 NA
ATOM     11  C   LIG    1       -2.341  -7.170   3.075  0.00  0.00    +0.340 A 
ATOM     12  C   LIG    1       -1.276  -8.057   3.080  0.00  0.00    -0.110 A 
ATOM     13  C   LIG    1       -0.197  -7.803   2.248  0.00  0.00    +0.350 A 
ATOM     14  N   LIG    1       -0.215  -6.727   1.479  0.00  0.00    -0.530 NA
ENDBRANCH   6   9
BRANCH   2  15
ATOM     15  C   LIG    1        0.001  -0.003  -0.015  0.00  0.00    -0.120 A 
ATOM     16  C   LIG    1        0.901  -0.171  -1.070  0.00  0.00    +0.060 A 
ATOM     17  C   LIG    1        2.080   0.543  -1.088  0.00  0.00    +0.000 A 
ATOM     18  C   LIG    1        2.379   1.428  -0.064  0.00  0.00    +0.050 A 
ATOM     19  C   LIG    1        1.501   1.606   0.984  0.00  0.00    -0.010 A 
ATOM     20  C   LIG    1        0.307   0.895   1.021  0.00  0.00    -0.050 A 
BRANCH  20  21
ATOM     21  S   LIG    1       -0.821   1.125   2.355  0.00  0.00    -0.050 S 
BRANCH  21  22
ATOM     22  C   LIG    1        0.021   2.351   3.394  0.00  0.00    +0.190 C 
BRANCH  22  23
ATOM     23  C   LIG    1       -0.831   2.659   4.598  0.00  0.00    -0.010 A 
ATOM     24  C   LIG    1       -0.790   2.013   5.777  0.00  0.00    -0.030 A 
ATOM     25  C   LIG    1       -1.749   2.628   6.614  0.00  0.00    -0.070 A 
ATOM     26  C   LIG    1       -2.325   3.608   5.895  0.00  0.00    +0.190 A 
ATOM     27  O   LIG    1       -1.765   3.622   4.674  0.00  0.00    -0.170 OA
ENDBRANCH  22  23
ENDBRANCH  21  22
ENDBRANCH  20  21
ENDBRANCH   2  15
TORSDOF 5
