REMARK  Name = ZINCtV00001bB3xF.0
REMARK                            x       y       z     vdW  Elec       q    Type
REMARK                         _______ _______ _______ _____ _____    ______ ____
ROOT
ATOM      1  C   LIG    1       -0.017   1.428   0.010  0.00  0.00    -0.020 A 
ATOM      2  C   LIG    1        1.185   2.166   0.002  0.00  0.00    +0.080 A 
ATOM      3  C   LIG    1        1.124   3.575   0.011  0.00  0.00    +0.010 A 
ATOM      4  C   LIG    1       -0.073   4.219   0.025  0.00  0.00    +0.200 A 
ATOM      5  N   LIG    1       -1.265   3.534   0.033  0.00  0.00    -0.390 N 
ATOM      6  C   LIG    1       -2.581   3.961   0.047  0.00  0.00    +0.020 A 
ATOM      7  C   LIG    1       -3.186   5.209   0.059  0.00  0.00    +0.040 A 
ATOM      8  C   LIG    1       -4.562   5.303   0.072  0.00  0.00    +0.030 A 
ATOM      9  C   LIG    1       -5.345   4.157   0.073  0.00  0.00    +0.040 A 
ATOM     10  C   LIG    1       -4.768   2.919   0.061  0.00  0.00    +0.060 A 
ATOM     11  C   LIG    1       -3.374   2.799   0.048  0.00  0.00    +0.100 A 
ATOM     12  N   LIG    1       -2.539   1.740   0.035  0.00  0.00    -0.480 NA
ATOM     13  C   LIG    1       -1.287   2.160   0.020  0.00  0.00    +0.330 A 
ENDROOT
BRANCH   4  14
ATOM     14  C   LIG    1       -0.093   5.696   0.034  0.00  0.00    -0.060 A 
ATOM     15  C   LIG    1       -0.608   6.383   1.135  0.00  0.00    +0.040 A 
ATOM     16  C   LIG    1       -0.620   7.763   1.140  0.00  0.00    +0.050 A 
ATOM     17  C   LIG    1       -0.133   8.466   0.053  0.00  0.00    +0.010 A 
ATOM     18  C   LIG    1        0.375   7.791  -1.046  0.00  0.00    +0.100 A 
ATOM     19  F   LIG    1        0.848   8.485  -2.104  0.00  0.00    -0.130 F 
ATOM     20  C   LIG    1        0.397   6.410  -1.061  0.00  0.00    +0.030 A 
ENDBRANCH   4  14
BRANCH   1  22
ATOM     21  N   LIG    1        0.018  -1.140  -0.004  0.00  0.00    -0.390 NA
ATOM     22  C   LIG    1        0.002  -0.004   0.002  0.00  0.00    +0.270 C 
ENDBRANCH   1  22
BRANCH   2  23
ATOM     23  C   LIG    1        2.477   1.480  -0.014  0.00  0.00    -0.020 C 
ATOM     24  C   LIG    1        3.625   2.198  -0.021  0.00  0.00    +0.130 C 
BRANCH  24  25
ATOM     25  C   LIG    1        4.878   1.533  -0.037  0.00  0.00    -0.190 A 
ATOM     26  C   LIG    1        6.099   2.147  -0.051  0.00  0.00    +0.050 A 
ATOM     27  C   LIG    1        7.168   1.283  -0.061  0.00  0.00    +0.010 A 
ATOM     28  C   LIG    1        6.851  -0.018  -0.066  0.00  0.00    -0.030 A 
ATOM     29  S   LIG    1        5.104  -0.211  -0.050  0.00  0.00    +0.140 S 
ENDBRANCH  24  25
ENDBRANCH   2  23
TORSDOF 4
