REMARK  Name = ZINCb80000003W5d.0
REMARK                            x       y       z     vdW  Elec       q    Type
REMARK                         _______ _______ _______ _____ _____    ______ ____
ROOT
ATOM      1  O   LIG    1        1.336  -1.583  -2.204  0.00  0.00    -0.430 OA
ATOM      2  C   LIG    1        1.594  -1.619  -1.024  0.00  0.00    +0.390 C 
ATOM      3  C   LIG    1        2.152  -2.806  -0.255  0.00  0.00    +0.030 C 
ATOM      4  C   LIG    1        1.725  -2.551   1.212  0.00  0.00    +0.050 C 
ATOM      5  C   LIG    1        1.868  -1.012   1.340  0.00  0.00    +0.070 C 
ATOM      6  C   LIG    1        1.424  -0.495  -0.036  0.00  0.00    -0.170 C 
ATOM      7  C   LIG    1        2.259   0.729  -0.448  0.00  0.00    +0.070 C 
ATOM      8  C   LIG    1        1.345   1.894  -0.001  0.00  0.00    +0.270 C 
ATOM      9  N   LIG    1       -0.016   1.343   0.009  0.00  0.00    -0.730 N 
ATOM     10  H   LIG    1       -0.824   1.879   0.016  0.00  0.00    +0.420 HD
ATOM     11  C   LIG    1        0.002  -0.004   0.002  0.00  0.00    +0.540 C 
ATOM     12  O   LIG    1       -0.981  -0.715   0.022  0.00  0.00    -0.520 OA
ENDROOT
TORSDOF 0
