REMARK  Name = ZINCrg00000SjSpK.0
REMARK                            x       y       z     vdW  Elec       q    Type
REMARK                         _______ _______ _______ _____ _____    ______ ____
ROOT
ATOM      1  C   LIG    1        4.516   1.355   0.019  0.00  0.00    +0.350 C 
ATOM      2  N   LIG    1        3.169   0.778   0.005  0.00  0.00    -0.550 N 
ATOM      3  C   LIG    1        3.020  -0.562   0.052  0.00  0.00    +0.600 A 
ATOM      4  C   LIG    1        1.720  -1.112   0.039  0.00  0.00    -0.140 A 
ATOM      5  C   LIG    1        0.625  -0.259  -0.022  0.00  0.00    +0.320 A 
ATOM      6  N   LIG    1        0.844   1.108  -0.068  0.00  0.00    -0.510 N 
ATOM      7  C   LIG    1       -0.293   2.029  -0.139  0.00  0.00    +0.340 C 
ATOM      8  N   LIG    1       -0.471  -1.022  -0.022  0.00  0.00    -0.490 NA
ATOM      9  C   LIG    1       -0.132  -2.285   0.035  0.00  0.00    +0.310 A 
ATOM     10  N   LIG    1        1.210  -2.394   0.074  0.00  0.00    -0.390 N 
ATOM     11  O   LIG    1        3.996  -1.289   0.105  0.00  0.00    -0.510 OA
ATOM     12  C   LIG    1        2.101   1.592  -0.052  0.00  0.00    +0.710 A 
ATOM     13  O   LIG    1        2.273   2.795  -0.093  0.00  0.00    -0.530 OA
ENDROOT
BRANCH   9  14
ATOM     14  C   LIG    1       -1.098  -3.442   0.053  0.00  0.00    +0.310 C 
BRANCH  14  15
ATOM     15  N   LIG    1       -1.249  -3.975  -1.307  0.00  0.00    -0.540 NA
ATOM     16  C   LIG    1       -2.018  -3.052  -2.152  0.00  0.00    +0.170 C 
ATOM     17  C   LIG    1       -2.032  -3.568  -3.592  0.00  0.00    +0.020 C 
ATOM     18  C   LIG    1       -2.661  -4.963  -3.624  0.00  0.00    +0.010 C 
ATOM     19  C   LIG    1       -1.871  -5.893  -2.699  0.00  0.00    +0.020 C 
ATOM     20  C   LIG    1       -1.862  -5.309  -1.284  0.00  0.00    +0.180 C 
ENDBRANCH  14  15
ENDBRANCH   9  14
BRANCH  10  21
ATOM     21  C   LIG    1        1.981  -3.638   0.142  0.00  0.00    +0.330 C 
BRANCH  21  22
ATOM     22  C   LIG    1        2.287  -3.962   1.581  0.00  0.00    +0.350 C 
ATOM     23  O   LIG    1        1.976  -3.187   2.454  0.00  0.00    -0.430 OA
BRANCH  22  24
ATOM     24  C   LIG    1        2.980  -5.253   1.932  0.00  0.00    -0.110 C 
ATOM     25  C   LIG    1        4.346  -5.302   1.244  0.00  0.00    +0.050 C 
ATOM     26  C   LIG    1        2.129  -6.434   1.460  0.00  0.00    +0.060 C 
ATOM     27  C   LIG    1        3.170  -5.335   3.448  0.00  0.00    +0.050 C 
ENDBRANCH  22  24
ENDBRANCH  21  22
ENDBRANCH  10  21
TORSDOF 5
