REMARK  Name = ZINCrg00000BmFRU.0
REMARK                            x       y       z     vdW  Elec       q    Type
REMARK                         _______ _______ _______ _____ _____    ______ ____
ROOT
ATOM      1  C   LIG    1        5.178   6.761   2.196  0.00  0.00    +0.250 C 
ATOM      2  C   LIG    1        5.761   6.499   0.782  0.00  0.00    +0.030 C 
ATOM      3  C   LIG    1        5.144   5.136   0.401  0.00  0.00    +0.260 C 
ATOM      4  N   LIG    1        3.934   4.961   1.217  0.00  0.00    -0.620 N 
ATOM      5  C   LIG    1        3.120   3.887   1.195  0.00  0.00    +0.530 C 
ATOM      6  O   LIG    1        2.145   3.850   1.915  0.00  0.00    -0.520 OA
ATOM      7  C   LIG    1        3.755   6.158   2.059  0.00  0.00    +0.270 C 
ENDROOT
BRANCH   1  10
ATOM      8  O   LIG    1        7.202   8.213   3.224  0.00  0.00    -0.520 OA
ATOM      9  C   LIG    1        6.184   8.831   2.994  0.00  0.00    +0.530 C 
ATOM     10  N   LIG    1        5.113   8.197   2.479  0.00  0.00    -0.720 N 
ATOM     11  H   LIG    1        4.299   8.691   2.295  0.00  0.00    +0.410 HD
BRANCH   9  12
ATOM     12  C   LIG    1        6.118  10.308   3.286  0.00  0.00    +0.200 C 
BRANCH  12  13
ATOM     13  C   LIG    1        7.436  10.768   3.852  0.00  0.00    +0.240 A 
ATOM     14  N   LIG    1        8.450  11.210   3.155  0.00  0.00    -0.300 NA
ATOM     15  N   LIG    1        9.465  11.528   4.071  0.00  0.00    -0.480 N 
ATOM     16  H   LIG    1       10.345  11.881   3.865  0.00  0.00    +0.440 HD
ATOM     17  C   LIG    1        8.976  11.246   5.291  0.00  0.00    +0.490 A 
ATOM     18  N   LIG    1        7.756  10.796   5.145  0.00  0.00    -0.540 NA
ENDBRANCH  12  13
ENDBRANCH   9  12
ENDBRANCH   1  10
BRANCH   5  19
ATOM     19  C   LIG    1        3.422   2.732   0.276  0.00  0.00    +0.100 C 
BRANCH  19  20
ATOM     20  C   LIG    1        2.352   1.652   0.445  0.00  0.00    +0.200 C 
ATOM     21  C   LIG    1        2.725   0.421  -0.397  0.00  0.00    +0.090 C 
ATOM     22  S   LIG    1        1.530  -0.889   0.010  0.00  0.00    -0.110 S 
ATOM     23  C   LIG    1        0.002  -0.004   0.002  0.00  0.00    -0.160 A 
ATOM     24  C   LIG    1       -1.189  -0.720  -0.009  0.00  0.00    +0.070 A 
ATOM     25  C   LIG    1       -2.400  -0.056  -0.005  0.00  0.00    -0.010 A 
ATOM     26  C   LIG    1       -2.425   1.326   0.011  0.00  0.00    +0.050 A 
ATOM     27  C   LIG    1       -1.246   2.042   0.018  0.00  0.00    +0.000 A 
ATOM     28  C   LIG    1       -0.017   1.386   0.010  0.00  0.00    +0.140 A 
ATOM     29  O   LIG    1        1.099   2.151   0.003  0.00  0.00    -0.310 OA
ENDBRANCH  19  20
ENDBRANCH   5  19
TORSDOF 5
