REMARK  Name = ZINCrg00000BmFRU.1
REMARK                            x       y       z     vdW  Elec       q    Type
REMARK                         _______ _______ _______ _____ _____    ______ ____
ROOT
ATOM      1  C   LIG    1        5.191   2.445  -2.533  0.00  0.00    +0.240 C 
ATOM      2  C   LIG    1        5.105   1.554  -3.800  0.00  0.00    +0.030 C 
ATOM      3  C   LIG    1        6.353   1.977  -4.605  0.00  0.00    +0.260 C 
ATOM      4  N   LIG    1        7.305   2.570  -3.654  0.00  0.00    -0.620 N 
ATOM      5  C   LIG    1        8.511   3.083  -3.967  0.00  0.00    +0.530 C 
ATOM      6  O   LIG    1        9.216   3.549  -3.097  0.00  0.00    -0.520 OA
ATOM      7  C   LIG    1        6.721   2.512  -2.301  0.00  0.00    +0.260 C 
ENDROOT
BRANCH   1  10
ATOM      8  O   LIG    1        2.583   2.765  -1.927  0.00  0.00    -0.510 OA
ATOM      9  C   LIG    1        3.204   2.036  -1.182  0.00  0.00    +0.520 C 
ATOM     10  N   LIG    1        4.515   1.810  -1.398  0.00  0.00    -0.720 N 
ATOM     11  H   LIG    1        5.011   1.227  -0.803  0.00  0.00    +0.400 HD
BRANCH   9  12
ATOM     12  C   LIG    1        2.509   1.383  -0.015  0.00  0.00    +0.190 C 
BRANCH  12  13
ATOM     13  C   LIG    1        1.060   1.796   0.002  0.00  0.00    +0.180 A 
ATOM     14  N   LIG    1        0.604   3.018   0.013  0.00  0.00    -0.260 NA
ATOM     15  N   LIG    1       -0.682   3.001   0.025  0.00  0.00    -0.290 NA
ATOM     16  C   LIG    1       -1.104   1.766   0.016  0.00  0.00    +0.380 A 
ATOM     17  N   LIG    1       -0.011   0.966   0.007  0.00  0.00    -0.580 N 
ATOM     18  H   LIG    1        0.002  -0.004   0.002  0.00  0.00    +0.430 HD
ENDBRANCH  12  13
ENDBRANCH   9  12
ENDBRANCH   1  10
BRANCH   5  19
ATOM     19  C   LIG    1        8.984   3.077  -5.398  0.00  0.00    +0.100 C 
BRANCH  19  20
ATOM     20  C   LIG    1       10.373   3.712  -5.479  0.00  0.00    +0.200 C 
ATOM     21  C   LIG    1       10.805   3.822  -6.950  0.00  0.00    +0.090 C 
ATOM     22  S   LIG    1       12.361   4.764  -6.985  0.00  0.00    -0.110 S 
ATOM     23  C   LIG    1       13.260   4.032  -5.653  0.00  0.00    -0.160 A 
ATOM     24  C   LIG    1       14.622   4.284  -5.544  0.00  0.00    +0.070 A 
ATOM     25  C   LIG    1       15.351   3.733  -4.508  0.00  0.00    -0.010 A 
ATOM     26  C   LIG    1       14.720   2.929  -3.577  0.00  0.00    +0.050 A 
ATOM     27  C   LIG    1       13.368   2.673  -3.682  0.00  0.00    +0.000 A 
ATOM     28  C   LIG    1       12.622   3.218  -4.725  0.00  0.00    +0.140 A 
ATOM     29  O   LIG    1       11.308   2.901  -4.783  0.00  0.00    -0.310 OA
ENDBRANCH  19  20
ENDBRANCH   5  19
TORSDOF 5
