REMARK  Name = ZINCtV00000L6jql.0
REMARK                            x       y       z     vdW  Elec       q    Type
REMARK                         _______ _______ _______ _____ _____    ______ ____
ROOT
ATOM      1  C   LIG    1        2.748   1.181   1.164  0.00  0.00    +0.430 A 
ATOM      2  N   LIG    1        1.938   1.509   2.143  0.00  0.00    -0.500 NA
ATOM      3  C   LIG    1        0.900   0.711   2.500  0.00  0.00    +0.120 A 
ATOM      4  C   LIG    1        0.058   1.089   3.554  0.00  0.00    +0.080 A 
ATOM      5  C   LIG    1       -0.998   0.283   3.913  0.00  0.00    +0.040 A 
ATOM      6  C   LIG    1       -1.230  -0.910   3.245  0.00  0.00    +0.050 A 
ATOM      7  C   LIG    1       -0.409  -1.300   2.208  0.00  0.00    +0.030 A 
ATOM      8  C   LIG    1        0.659  -0.499   1.826  0.00  0.00    +0.070 A 
ATOM      9  N   LIG    1        1.489  -0.882   0.788  0.00  0.00    -0.370 N 
ATOM     10  C   LIG    1        1.542  -1.952  -0.051  0.00  0.00    +0.230 A 
ATOM     11  N   LIG    1        2.574  -1.767  -0.854  0.00  0.00    -0.230 NA
ATOM     12  N   LIG    1        3.161  -0.657  -0.570  0.00  0.00    -0.210 NA
ATOM     13  C   LIG    1        2.539  -0.068   0.431  0.00  0.00    +0.160 A 
ENDROOT
BRANCH  10  14
ATOM     14  C   LIG    1        0.618  -3.105  -0.060  0.00  0.00    -0.020 A 
ATOM     15  C   LIG    1       -0.532  -3.076  -0.850  0.00  0.00    +0.090 A 
ATOM     16  C   LIG    1       -1.391  -4.155  -0.855  0.00  0.00    +0.050 A 
ATOM     17  C   LIG    1       -1.114  -5.268  -0.078  0.00  0.00    -0.000 A 
ATOM     18  C   LIG    1        0.025  -5.304   0.709  0.00  0.00    +0.060 A 
ATOM     19 CL   LIG    1       -2.200  -6.622  -0.089  0.00  0.00    -0.040 Cl
ATOM     20  C   LIG    1        0.895  -4.233   0.718  0.00  0.00    +0.010 A 
ATOM     21 CL   LIG    1        2.327  -4.282   1.698  0.00  0.00    -0.030 Cl
ENDBRANCH  10  14
BRANCH   1  22
ATOM     22  O   LIG    1        3.775   1.998   0.831  0.00  0.00    -0.220 OA
BRANCH  22  27
ATOM     23 CL   LIG    1        4.725   6.726   4.164  0.00  0.00    -0.060 Cl
ATOM     24  C   LIG    1        4.443   5.325   3.177  0.00  0.00    -0.030 A 
ATOM     25  C   LIG    1        4.832   4.075   3.624  0.00  0.00    +0.040 A 
ATOM     26  C   LIG    1        4.609   2.960   2.840  0.00  0.00    +0.040 A 
ATOM     27  C   LIG    1        3.994   3.094   1.603  0.00  0.00    +0.090 A 
ATOM     28  C   LIG    1        3.610   4.349   1.155  0.00  0.00    +0.050 A 
ATOM     29  C   LIG    1        3.830   5.461   1.944  0.00  0.00    +0.050 A 
ENDBRANCH  22  27
ENDBRANCH   1  22
TORSDOF 3
