REMARK  Name = ZINCrH000004szmq.0
REMARK                            x       y       z     vdW  Elec       q    Type
REMARK                         _______ _______ _______ _____ _____    ______ ____
ROOT
ATOM      1  N   LIG    1        6.687  -3.530  -4.465  0.00  0.00    -0.670 N 
ATOM      2  H   LIG    1        7.545  -3.095  -4.341  0.00  0.00    +0.420 HD
ATOM      3  C   LIG    1        5.569  -2.975  -3.957  0.00  0.00    +0.520 C 
ATOM      4  O   LIG    1        4.486  -3.467  -4.194  0.00  0.00    -0.510 OA
ENDROOT
BRANCH   1  11
ATOM      5  C   LIG    1        4.944 -10.430  -7.171  0.00  0.00    +0.190 C 
ATOM      6  C   LIG    1        5.315  -9.062  -6.660  0.00  0.00    +0.090 A 
ATOM      7  N   LIG    1        6.248  -8.338  -7.151  0.00  0.00    -0.470 NA
ATOM      8  C   LIG    1        6.470  -7.132  -6.593  0.00  0.00    +0.070 A 
ATOM      9  C   LIG    1        7.419  -6.146  -6.930  0.00  0.00    +0.100 A 
ATOM     10  C   LIG    1        7.481  -4.979  -6.233  0.00  0.00    +0.020 A 
ATOM     11  C   LIG    1        6.610  -4.736  -5.173  0.00  0.00    +0.160 A 
ATOM     12  C   LIG    1        5.673  -5.689  -4.818  0.00  0.00    +0.070 A 
ATOM     13  C   LIG    1        5.596  -6.885  -5.528  0.00  0.00    -0.160 A 
ATOM     14  S   LIG    1        4.541  -8.284  -5.352  0.00  0.00    +0.110 S 
ENDBRANCH   1  11
BRANCH   3  15
ATOM     15  C   LIG    1        5.665  -1.742  -3.095  0.00  0.00    -0.010 C 
ATOM     16  C   LIG    1        6.309  -0.608  -3.895  0.00  0.00    +0.040 C 
ATOM     17  C   LIG    1        6.437   0.634  -3.011  0.00  0.00    +0.040 C 
ATOM     18  C   LIG    1        5.042   1.087  -2.569  0.00  0.00    +0.290 C 
ATOM     19  N   LIG    1        4.359  -0.044  -1.926  0.00  0.00    -1.000 NA
ATOM     20  C   LIG    1        4.266  -1.318  -2.652  0.00  0.00    +0.320 C 
BRANCH  19  21
ATOM     21  S   LIG    1        3.714   0.111  -0.409  0.00  0.00    +2.720 S 
ATOM     22  O   LIG    1        3.643  -1.200   0.134  0.00  0.00    -0.940 OA
ATOM     23  O   LIG    1        4.416   1.175   0.219  0.00  0.00    -0.950 OA
BRANCH  21  24
ATOM     24  C   LIG    1        2.050   0.659  -0.603  0.00  0.00    -0.800 A 
ATOM     25  C   LIG    1        0.988  -0.138  -0.725  0.00  0.00    +0.170 A 
ATOM     26  C   LIG    1       -0.222   0.521  -0.868  0.00  0.00    -0.010 A 
ATOM     27  C   LIG    1       -0.141   1.852  -0.862  0.00  0.00    +0.010 A 
ATOM     28  S   LIG    1        1.538   2.340  -0.668  0.00  0.00    +0.210 S 
ENDBRANCH  21  24
ENDBRANCH  19  21
ENDBRANCH   3  15
TORSDOF 4
