REMARK  Name = ZINCrg000015BzeQ.0
REMARK                            x       y       z     vdW  Elec       q    Type
REMARK                         _______ _______ _______ _____ _____    ______ ____
ROOT
ATOM      1  C   LIG    1       -1.953   1.215  -3.283  0.00  0.00    +0.520 C 
ATOM      2  N   LIG    1       -2.442   0.345  -4.188  0.00  0.00    -0.640 N 
ATOM      3  H   LIG    1       -2.322  -0.609  -4.058  0.00  0.00    +0.430 HD
ATOM      4  O   LIG    1       -2.176   2.402  -3.401  0.00  0.00    -0.480 OA
ENDROOT
BRANCH   2   5
ATOM      5  C   LIG    1       -3.121   0.814  -5.310  0.00  0.00    +0.170 A 
ATOM      6  C   LIG    1       -3.926   1.945  -5.213  0.00  0.00    +0.020 A 
ATOM      7  C   LIG    1       -4.596   2.417  -6.320  0.00  0.00    +0.120 A 
ATOM      8  C   LIG    1       -4.475   1.752  -7.544  0.00  0.00    -0.170 A 
ATOM      9  C   LIG    1       -5.059   2.007  -8.872  0.00  0.00    +0.560 C 
ATOM     10  N   LIG    1       -4.644   1.080  -9.751  0.00  0.00    -0.720 N 
ATOM     11  H   LIG    1       -4.894   1.038 -10.688  0.00  0.00    +0.430 HD
ATOM     12  C   LIG    1       -3.752   0.141  -9.062  0.00  0.00    +0.340 C 
ATOM     13  O   LIG    1       -5.811   2.926  -9.134  0.00  0.00    -0.520 OA
ATOM     14  C   LIG    1       -3.668   0.612  -7.632  0.00  0.00    -0.070 A 
ATOM     15  C   LIG    1       -2.998   0.148  -6.528  0.00  0.00    +0.020 A 
ENDBRANCH   2   5
BRANCH   1  21
ATOM     16  C   LIG    1       -0.942   3.075   1.224  0.00  0.00    +0.070 C 
ATOM     17  C   LIG    1       -0.779   1.554   1.278  0.00  0.00    +0.030 C 
ATOM     18  C   LIG    1       -0.040   1.079   0.024  0.00  0.00    +0.290 C 
ATOM     19  N   LIG    1       -0.752   1.570  -1.163  0.00  0.00    -0.570 N 
ATOM     20  C   LIG    1       -1.039   3.007  -1.271  0.00  0.00    +0.270 C 
ATOM     21  C   LIG    1       -1.136   0.719  -2.135  0.00  0.00    +0.510 C 
ATOM     22  O   LIG    1       -0.818  -0.451  -2.078  0.00  0.00    -0.520 OA
ATOM     23  C   LIG    1       -1.770   3.461  -0.004  0.00  0.00    +0.030 C 
BRANCH  16  27
ATOM     24  C   LIG    1       -1.952   5.439   5.526  0.00  0.00    +0.360 C 
ATOM     25  N   LIG    1       -2.076   4.582   4.345  0.00  0.00    -0.380 N 
ATOM     26  C   LIG    1       -1.145   4.418   3.382  0.00  0.00    +0.230 A 
ATOM     27  C   LIG    1       -1.642   3.550   2.471  0.00  0.00    -0.230 A 
ATOM     28  C   LIG    1       -2.924   3.175   2.889  0.00  0.00    +0.230 A 
ATOM     29  N   LIG    1       -3.182   3.789   4.015  0.00  0.00    -0.300 NA
ENDBRANCH  16  27
ENDBRANCH   1  21
TORSDOF 3
