REMARK  Name = ZINCvU0000000CPv.0
REMARK                            x       y       z     vdW  Elec       q    Type
REMARK                         _______ _______ _______ _____ _____    ______ ____
ROOT
ATOM      1  C   LIG    1        3.707   2.586   1.901  0.00  0.00    +0.610 C 
ATOM      2  N   LIG    1        3.525   2.556   0.565  0.00  0.00    -0.720 N 
ATOM      3  H   LIG    1        4.085   3.098  -0.013  0.00  0.00    +0.400 HD
ATOM      4  O   LIG    1        3.005   1.907   2.625  0.00  0.00    -0.520 OA
ENDROOT
BRANCH   1  11
ATOM      5  C   LIG    1        6.713   1.729   2.447  0.00  0.00    +0.160 C 
ATOM      6  C   LIG    1        6.097   3.074   2.732  0.00  0.00    +0.120 A 
ATOM      7  N   LIG    1        6.709   4.103   3.250  0.00  0.00    -0.290 NA
ATOM      8  N   LIG    1        5.802   5.164   3.356  0.00  0.00    -0.350 N 
ATOM      9  C   LIG    1        4.614   4.757   2.881  0.00  0.00    +0.130 A 
ATOM     10  C   LIG    1        3.355   5.582   2.802  0.00  0.00    +0.160 C 
ATOM     11  C   LIG    1        4.756   3.443   2.483  0.00  0.00    -0.290 A 
BRANCH   8  12
ATOM     12  C   LIG    1        6.100   6.495   3.889  0.00  0.00    +0.260 C 
ATOM     13  C   LIG    1        7.214   7.142   3.059  0.00  0.00    +0.010 C 
ATOM     14  C   LIG    1        7.573   8.498   3.671  0.00  0.00    +0.220 C 
ATOM     15  O   LIG    1        7.969   8.316   5.031  0.00  0.00    -0.380 OA
ATOM     16  C   LIG    1        6.952   7.759   5.866  0.00  0.00    +0.220 C 
ATOM     17  C   LIG    1        6.567   6.372   5.342  0.00  0.00    +0.010 C 
ENDBRANCH   8  12
ENDBRANCH   1  11
BRANCH   2  18
ATOM     18  C   LIG    1        2.483   1.705  -0.013  0.00  0.00    +0.350 C 
BRANCH  18  19
ATOM     19  C   LIG    1        1.167   2.440   0.004  0.00  0.00    -0.080 A 
ATOM     20  C   LIG    1        1.148   3.822   0.012  0.00  0.00    +0.030 A 
ATOM     21  C   LIG    1       -0.059   4.497   0.026  0.00  0.00    +0.020 A 
ATOM     22  C   LIG    1       -1.247   3.789   0.034  0.00  0.00    +0.020 A 
ATOM     23  C   LIG    1       -1.229   2.407   0.021  0.00  0.00    +0.030 A 
ATOM     24  C   LIG    1       -0.021   1.732   0.012  0.00  0.00    -0.020 A 
ATOM     25 CL   LIG    1        0.002  -0.004   0.002  0.00  0.00    -0.060 Cl
ENDBRANCH  18  19
BRANCH  18  26
ATOM     26  C   LIG    1        2.847   1.360  -1.434  0.00  0.00    -0.090 A 
ATOM     27  C   LIG    1        3.406   2.320  -2.257  0.00  0.00    +0.030 A 
ATOM     28  C   LIG    1        3.745   2.003  -3.558  0.00  0.00    +0.030 A 
ATOM     29  C   LIG    1        3.515   0.727  -4.041  0.00  0.00    -0.030 A 
ATOM     30  C   LIG    1        2.950  -0.232  -3.220  0.00  0.00    +0.040 A 
ATOM     31 CL   LIG    1        3.935   0.329  -5.678  0.00  0.00    -0.070 Cl
ATOM     32  C   LIG    1        2.616   0.085  -1.916  0.00  0.00    +0.060 A 
ENDBRANCH  18  26
ENDBRANCH   2  18
TORSDOF 5
