REMARK  Name = ZINCrH000004rRrD.0
REMARK                            x       y       z     vdW  Elec       q    Type
REMARK                         _______ _______ _______ _____ _____    ______ ____
ROOT
ATOM      1  N   LIG    1       -8.563  -4.543   0.379  0.00  0.00    -0.410 N 
ATOM      2  N   LIG    1       -7.483  -3.720   0.717  0.00  0.00    -0.200 NA
ATOM      3  C   LIG    1       -7.598  -2.428   0.713  0.00  0.00    +0.080 C 
ATOM      4  C   LIG    1       -8.896  -1.768   0.335  0.00  0.00    +0.120 C 
ATOM      5  C   LIG    1       -9.601  -2.599  -0.740  0.00  0.00    +0.100 C 
ATOM      6  C   LIG    1       -9.600  -4.049  -0.325  0.00  0.00    +0.500 C 
ATOM      7  O   LIG    1      -10.530  -4.767  -0.624  0.00  0.00    -0.490 OA
ENDROOT
BRANCH   1  13
ATOM      8  C   LIG    1       -6.230  -8.859   0.700  0.00  0.00    +0.090 C 
ATOM      9  C   LIG    1       -7.447  -8.002   0.937  0.00  0.00    -0.080 A 
ATOM     10  C   LIG    1       -8.567  -8.544   1.540  0.00  0.00    +0.010 A 
ATOM     11  C   LIG    1       -9.686  -7.761   1.759  0.00  0.00    +0.030 A 
ATOM     12  C   LIG    1       -9.688  -6.435   1.375  0.00  0.00    +0.020 A 
ATOM     13  C   LIG    1       -8.564  -5.887   0.769  0.00  0.00    +0.150 A 
ATOM     14  C   LIG    1       -7.444  -6.678   0.546  0.00  0.00    +0.020 A 
ENDBRANCH   1  13
BRANCH   3  15
ATOM     15  C   LIG    1       -6.444  -1.598   1.077  0.00  0.00    +0.580 C 
ATOM     16  N   LIG    1       -5.277  -2.180   1.418  0.00  0.00    -0.650 N 
ATOM     17  H   LIG    1       -5.179  -3.143   1.358  0.00  0.00    +0.420 HD
ATOM     18  O   LIG    1       -6.541  -0.385   1.072  0.00  0.00    -0.500 OA
BRANCH  16  19
ATOM     19  C   LIG    1       -4.205  -1.394   1.859  0.00  0.00    +0.120 A 
ATOM     20  C   LIG    1       -2.901  -1.774   1.573  0.00  0.00    +0.040 A 
ATOM     21  C   LIG    1       -1.845  -0.999   2.009  0.00  0.00    +0.030 A 
ATOM     22  C   LIG    1       -2.087   0.161   2.732  0.00  0.00    +0.090 A 
ATOM     23  C   LIG    1       -3.389   0.539   3.021  0.00  0.00    -0.030 A 
ATOM     24  C   LIG    1       -4.447  -0.233   2.582  0.00  0.00    +0.060 A 
BRANCH  22  25
ATOM     25  O   LIG    1       -1.046   0.923   3.161  0.00  0.00    -0.320 OA
BRANCH  25  26
ATOM     26  C   LIG    1       -1.368   2.104   3.899  0.00  0.00    +0.590 C 
ATOM     27  F   LIG    1       -2.078   1.753   5.053  0.00  0.00    -0.200 F 
ATOM     28  F   LIG    1       -2.153   2.949   3.108  0.00  0.00    -0.200 F 
ENDBRANCH  25  26
ENDBRANCH  22  25
ENDBRANCH  16  19
ENDBRANCH   3  15
TORSDOF 5
