REMARK  Name = ZINCpe00000FUcW8.0
REMARK                            x       y       z     vdW  Elec       q    Type
REMARK                         _______ _______ _______ _____ _____    ______ ____
ROOT
ATOM      1  N   LIG    1       -1.194  -1.000   1.946  0.00  0.00    -0.540 N 
ATOM      2  C   LIG    1       -2.445  -1.146   1.212  0.00  0.00    +0.270 C 
ATOM      3  C   LIG    1       -2.441  -0.259  -0.033  0.00  0.00    +0.030 C 
ATOM      4  C   LIG    1       -1.148  -0.518  -0.816  0.00  0.00    +0.050 C 
ATOM      5  C   LIG    1        0.031   0.000   0.011  0.00  0.00    +0.270 C 
ATOM      6  C   LIG    1       -0.071  -0.509   1.420  0.00  0.00    +0.500 C 
ATOM      7  O   LIG    1        0.921  -0.473   2.117  0.00  0.00    -0.480 OA
ENDROOT
BRANCH   1  12
ATOM      8  N   LIG    1       -1.355  -0.598   4.358  0.00  0.00    -0.360 N 
ATOM      9  N   LIG    1       -1.256  -1.392   5.508  0.00  0.00    -0.280 NA
ATOM     10  C   LIG    1       -1.011  -2.623   5.138  0.00  0.00    +0.240 A 
ATOM     11  C   LIG    1       -0.951  -2.660   3.743  0.00  0.00    -0.100 A 
ATOM     12  C   LIG    1       -1.170  -1.397   3.283  0.00  0.00    +0.300 A 
BRANCH   8  14
ATOM     13  C   LIG    1       -3.126   1.089   4.398  0.00  0.00    +0.040 C 
ATOM     14  C   LIG    1       -1.617   0.843   4.326  0.00  0.00    +0.320 C 
ENDBRANCH   8  14
ENDBRANCH   1  12
BRANCH   5  15
ATOM     15  N   LIG    1        0.012   1.465   0.021  0.00  0.00    -1.110 NA
ATOM     16  H   LIG    1       -0.834   1.939   0.023  0.00  0.00    +0.420 HD
BRANCH  15  17
ATOM     17  S   LIG    1        1.435   2.311   0.022  0.00  0.00    +2.590 S 
ATOM     18  O   LIG    1        2.182   1.740   1.087  0.00  0.00    -0.920 OA
ATOM     19  O   LIG    1        1.033   3.674   0.058  0.00  0.00    -0.950 OA
BRANCH  17  20
ATOM     20  C   LIG    1        2.198   1.915  -1.575  0.00  0.00    -0.340 C 
BRANCH  20  21
ATOM     21  C   LIG    1        3.537   2.646  -1.696  0.00  0.00    +0.070 C 
BRANCH  21  22
ATOM     22  C   LIG    1        4.181   2.312  -3.044  0.00  0.00    +0.170 C 
ATOM     23  C   LIG    1        5.494   3.113  -3.225  0.00  0.00    +0.010 C 
ATOM     24  C   LIG    1        6.258   2.202  -4.227  0.00  0.00    +0.000 C 
ATOM     25  C   LIG    1        5.803   0.790  -3.800  0.00  0.00    +0.190 C 
ATOM     26  O   LIG    1        4.573   0.930  -3.080  0.00  0.00    -0.380 OA
ENDBRANCH  21  22
ENDBRANCH  20  21
ENDBRANCH  17  20
ENDBRANCH  15  17
ENDBRANCH   5  15
TORSDOF 7
