REMARK  Name = ZINCkj000005fXtf.0
REMARK                            x       y       z     vdW  Elec       q    Type
REMARK                         _______ _______ _______ _____ _____    ______ ____
ROOT
ATOM      1  N   LIG    1       -0.650   1.418   2.291  0.00  0.00    -1.130 NA
ATOM      2  H   LIG    1        0.193   1.046   2.594  0.00  0.00    +0.420 HD
ENDROOT
BRANCH   1   3
ATOM      3  S   LIG    1       -1.665   2.157   3.372  0.00  0.00    +2.720 S 
ATOM      4  O   LIG    1       -2.037   3.399   2.789  0.00  0.00    -0.940 OA
ATOM      5  O   LIG    1       -1.041   2.053   4.644  0.00  0.00    -0.930 OA
BRANCH   3   6
ATOM      6  C   LIG    1       -3.133   1.187   3.456  0.00  0.00    -0.810 A 
ATOM      7  C   LIG    1       -3.361   0.159   4.308  0.00  0.00    +0.240 A 
ATOM      8  N   LIG    1       -4.598  -0.318   4.054  0.00  0.00    -0.340 N 
ATOM      9  N   LIG    1       -5.148   0.441   3.013  0.00  0.00    -0.260 NA
ATOM     10  C   LIG    1       -5.250  -1.434   4.745  0.00  0.00    +0.390 C 
ATOM     11 CL   LIG    1       -2.260  -0.438   5.510  0.00  0.00    +0.040 Cl
ATOM     12  C   LIG    1       -4.272   1.347   2.660  0.00  0.00    +0.170 A 
ATOM     13  C   LIG    1       -4.456   2.380   1.579  0.00  0.00    +0.180 C 
ENDBRANCH   3   6
ENDBRANCH   1   3
BRANCH   1  14
ATOM     14  C   LIG    1       -1.026   1.328   0.878  0.00  0.00    +0.310 C 
BRANCH  14  15
ATOM     15  C   LIG    1        0.222   1.059   0.035  0.00  0.00    +0.160 C 
ATOM     16  C   LIG    1       -0.196   0.671  -1.385  0.00  0.00    +0.110 C 
BRANCH  15  17
ATOM     17  N   LIG    1        1.051   2.270  -0.012  0.00  0.00    -0.380 N 
ATOM     18  H   LIG    1        1.808   2.135  -0.666  0.00  0.00    +0.420 HD
BRANCH  17  20
ATOM     19  C   LIG    1        1.125   4.632  -0.656  0.00  0.00    +0.080 C 
ATOM     20  C   LIG    1        0.230   3.410  -0.443  0.00  0.00    +0.250 C 
ENDBRANCH  17  20
BRANCH  17  21
ATOM     21  C   LIG    1        1.601   2.540   1.323  0.00  0.00    +0.240 C 
ATOM     22  C   LIG    1        2.540   1.402   1.728  0.00  0.00    +0.090 C 
ENDBRANCH  17  21
ENDBRANCH  15  17
ENDBRANCH  14  15
ENDBRANCH   1  14
TORSDOF 7
