REMARK  Name = ZINCpk00000MmUuh.1
REMARK                            x       y       z     vdW  Elec       q    Type
REMARK                         _______ _______ _______ _____ _____    ______ ____
ROOT
ATOM      1  C   LIG    1       -1.055  -2.003   0.742  0.00  0.00    +0.180 C 
ATOM      2  C   LIG    1       -1.381  -1.848  -0.761  0.00  0.00    +0.030 C 
ATOM      3  C   LIG    1       -0.695  -0.537  -1.188  0.00  0.00    +0.200 C 
ATOM      4  N   LIG    1        0.002  -0.004   0.002  0.00  0.00    -0.470 N 
ATOM      5  C   LIG    1       -0.724  -0.553   1.176  0.00  0.00    +0.230 C 
ENDROOT
BRANCH   4   6
ATOM      6  C   LIG    1       -0.017   1.373   0.010  0.00  0.00    +0.470 A 
ATOM      7  N   LIG    1        1.109   2.077   0.003  0.00  0.00    -0.530 NA
ATOM      8  C   LIG    1        1.110   3.400   0.009  0.00  0.00    +0.570 A 
ATOM      9  N   LIG    1        0.034   4.143   0.023  0.00  0.00    -0.500 NA
ATOM     10  C   LIG    1       -1.192   3.585   0.031  0.00  0.00    +0.290 A 
ATOM     11  N   LIG    1       -2.430   4.030   0.044  0.00  0.00    -0.270 NA
ATOM     12  N   LIG    1       -3.308   2.941   0.032  0.00  0.00    -0.410 N 
ATOM     13  H   LIG    1       -4.276   3.005   0.037  0.00  0.00    +0.450 HD
ATOM     14  C   LIG    1       -2.615   1.795   0.024  0.00  0.00    +0.320 A 
ATOM     15  C   LIG    1       -1.276   2.114   0.019  0.00  0.00    -0.350 A 
ENDBRANCH   4   6
BRANCH   1  16
ATOM     16  O   LIG    1       -2.189  -2.498   1.457  0.00  0.00    -0.300 OA
BRANCH  16  19
ATOM     17  C   LIG    1       -3.431  -5.787   2.394  0.00  0.00    +0.170 A 
ATOM     18  C   LIG    1       -3.363  -4.414   2.276  0.00  0.00    -0.060 A 
ATOM     19  C   LIG    1       -2.291  -3.845   1.594  0.00  0.00    +0.170 A 
ATOM     20  C   LIG    1       -1.328  -4.692   1.052  0.00  0.00    -0.120 A 
ATOM     21  C   LIG    1       -1.465  -6.056   1.218  0.00  0.00    +0.300 A 
ATOM     22  N   LIG    1       -2.496  -6.557   1.871  0.00  0.00    -0.490 NA
BRANCH  17  23
ATOM     23  C   LIG    1       -4.586  -6.415   3.130  0.00  0.00    +0.250 C 
BRANCH  23  25
ATOM     24  C   LIG    1       -6.663  -7.618   2.812  0.00  0.00    +0.190 C 
ATOM     25  N   LIG    1       -5.631  -6.795   2.169  0.00  0.00    -0.540 NA
ATOM     26  C   LIG    1       -6.222  -5.607   1.537  0.00  0.00    +0.190 C 
ENDBRANCH  23  25
ENDBRANCH  17  23
ENDBRANCH  16  19
ENDBRANCH   1  16
TORSDOF 5
