REMARK  Name = ZINCrD000000Bv6L.0
REMARK                            x       y       z     vdW  Elec       q    Type
REMARK                         _______ _______ _______ _____ _____    ______ ____
ROOT
ATOM      1  C   LIG    1        4.080   0.794  -3.243  0.00  0.00    -0.250 A 
ATOM      2  C   LIG    1        4.082   1.184  -1.950  0.00  0.00    +0.260 A 
ATOM      3  N   LIG    1        2.903   0.817  -1.403  0.00  0.00    -0.360 N 
ATOM      4  N   LIG    1        2.146   0.172  -2.389  0.00  0.00    -0.270 NA
ATOM      5  C   LIG    1        2.849   0.161  -3.502  0.00  0.00    +0.130 A 
ENDROOT
BRANCH   5   6
ATOM      6  C   LIG    1        2.422  -0.423  -4.798  0.00  0.00    -0.020 A 
ATOM      7  C   LIG    1        2.803   0.180  -5.995  0.00  0.00    +0.030 A 
ATOM      8  C   LIG    1        2.408  -0.369  -7.198  0.00  0.00    +0.000 A 
ATOM      9  C   LIG    1        1.626  -1.510  -7.217  0.00  0.00    +0.010 A 
ATOM     10  C   LIG    1        1.240  -2.109  -6.031  0.00  0.00    +0.010 A 
ATOM     11  C   LIG    1        1.635  -1.571  -4.823  0.00  0.00    +0.040 A 
ENDBRANCH   5   6
BRANCH   1  12
ATOM     12  C   LIG    1        5.197   1.000  -4.234  0.00  0.00    +0.360 C 
BRANCH  12  15
ATOM     13  O   LIG    1        6.787   1.909  -6.214  0.00  0.00    -0.520 OA
ATOM     14  C   LIG    1        5.753   2.527  -6.049  0.00  0.00    +0.600 C 
ATOM     15  N   LIG    1        4.890   2.152  -5.084  0.00  0.00    -0.710 N 
ATOM     16  H   LIG    1        4.065   2.646  -4.952  0.00  0.00    +0.410 HD
BRANCH  14  17
ATOM     17  C   LIG    1        5.443   3.687  -6.905  0.00  0.00    -0.030 A 
ATOM     18  C   LIG    1        6.263   4.145  -7.916  0.00  0.00    -0.030 A 
ATOM     19  S   LIG    1        5.414   5.495  -8.563  0.00  0.00    +0.470 S 
ATOM     20  N   LIG    1        4.187   5.399  -7.598  0.00  0.00    -0.290 NA
ATOM     21  N   LIG    1        4.338   4.417  -6.801  0.00  0.00    -0.210 NA
ENDBRANCH  14  17
ENDBRANCH  12  15
ENDBRANCH   1  12
BRANCH   3  22
ATOM     22  C   LIG    1        2.490   1.048  -0.016  0.00  0.00    +0.390 C 
BRANCH  22  23
ATOM     23  C   LIG    1        1.175   1.783   0.000  0.00  0.00    -0.120 A 
ATOM     24  C   LIG    1       -0.013   1.076   0.008  0.00  0.00    +0.040 A 
ATOM     25  C   LIG    1       -1.219   1.751   0.017  0.00  0.00    +0.010 A 
ATOM     26  C   LIG    1       -1.238   3.133   0.030  0.00  0.00    +0.010 A 
ATOM     27  C   LIG    1       -0.050   3.840   0.022  0.00  0.00    +0.000 A 
ATOM     28  C   LIG    1        1.156   3.165   0.008  0.00  0.00    +0.020 A 
ENDBRANCH  22  23
ENDBRANCH   3  22
TORSDOF 6
