REMARK  Name = ZINCrH000004rbOr.0
REMARK                            x       y       z     vdW  Elec       q    Type
REMARK                         _______ _______ _______ _____ _____    ______ ____
ROOT
ATOM      1  C   LIG    1        4.891   2.641  -3.922  0.00  0.00    +0.150 A 
ATOM      2  C   LIG    1        5.300   1.511  -3.227  0.00  0.00    +0.040 A 
ATOM      3  C   LIG    1        6.177   0.620  -3.814  0.00  0.00    +0.010 A 
ATOM      4  C   LIG    1        6.657   0.860  -5.094  0.00  0.00    +0.120 A 
ATOM      5  C   LIG    1        6.252   1.993  -5.787  0.00  0.00    +0.040 A 
ATOM      6  C   LIG    1        5.372   2.881  -5.203  0.00  0.00    +0.000 A 
ENDROOT
BRANCH   1   9
ATOM      7  N   LIG    1        2.250   3.967  -1.840  0.00  0.00    -0.620 N 
ATOM      8  C   LIG    1        3.043   3.092  -2.490  0.00  0.00    +0.710 C 
ATOM      9  N   LIG    1        3.997   3.543  -3.329  0.00  0.00    -0.690 N 
ATOM     10  H   LIG    1        4.064   4.491  -3.523  0.00  0.00    +0.410 HD
ATOM     11  O   LIG    1        2.899   1.897  -2.319  0.00  0.00    -0.570 OA
ATOM     12  C   LIG    1        2.425   5.407  -2.046  0.00  0.00    +0.280 C 
BRANCH   7  13
ATOM     13  C   LIG    1        1.214   3.477  -0.928  0.00  0.00    +0.360 C 
BRANCH  13  18
ATOM     14  C   LIG    1       -3.700   2.679  -3.863  0.00  0.00    +0.090 C 
ATOM     15  C   LIG    1       -2.420   2.886  -3.095  0.00  0.00    -0.080 A 
ATOM     16  C   LIG    1       -1.509   1.853  -2.977  0.00  0.00    +0.000 A 
ATOM     17  C   LIG    1       -0.333   2.045  -2.277  0.00  0.00    +0.040 A 
ATOM     18  C   LIG    1       -0.069   3.268  -1.691  0.00  0.00    -0.120 A 
ATOM     19  C   LIG    1       -0.982   4.300  -1.804  0.00  0.00    +0.020 A 
ATOM     20  C   LIG    1       -2.159   4.108  -2.503  0.00  0.00    -0.010 A 
ENDBRANCH  13  18
ENDBRANCH   7  13
ENDBRANCH   1   9
BRANCH   4  21
ATOM     21  N   LIG    1        7.550  -0.042  -5.687  0.00  0.00    -0.670 N 
ATOM     22  H   LIG    1        7.462  -0.993  -5.520  0.00  0.00    +0.410 HD
ATOM     23  C   LIG    1        8.533   0.412  -6.490  0.00  0.00    +0.510 C 
ATOM     24  O   LIG    1        8.594   1.592  -6.767  0.00  0.00    -0.500 OA
BRANCH  23  25
ATOM     25  C   LIG    1        9.556  -0.545  -7.045  0.00  0.00    +0.160 C 
ATOM     26  C   LIG    1        8.875  -1.548  -7.996  0.00  0.00    +0.020 C 
ATOM     27  C   LIG    1        9.606  -1.347  -9.345  0.00  0.00    +0.020 C 
ATOM     28  C   LIG    1       10.935  -0.686  -8.900  0.00  0.00    +0.210 C 
ATOM     29  O   LIG    1       10.534   0.176  -7.813  0.00  0.00    -0.350 OA
ENDBRANCH  23  25
ENDBRANCH   4  21
TORSDOF 5
