REMARK  Name = ZINCvU0000000JSJ.0
REMARK                            x       y       z     vdW  Elec       q    Type
REMARK                         _______ _______ _______ _____ _____    ______ ____
ROOT
ATOM      1  C   LIG    1       -1.841   2.436  -1.456  0.00  0.00    +0.530 C 
ATOM      2  N   LIG    1       -1.480   2.328  -2.750  0.00  0.00    -0.600 N 
ATOM      3  O   LIG    1       -1.310   1.739  -0.618  0.00  0.00    -0.510 OA
ENDROOT
BRANCH   2   4
ATOM      4  C   LIG    1       -0.531   1.290  -3.161  0.00  0.00    +0.250 C 
ATOM      5  C   LIG    1       -1.054  -0.080  -2.725  0.00  0.00    +0.010 C 
ATOM      6  C   LIG    1       -0.064  -1.165  -3.155  0.00  0.00    +0.020 C 
ATOM      7  C   LIG    1        1.294  -0.904  -2.499  0.00  0.00    +0.000 C 
ATOM      8  C   LIG    1        1.816   0.466  -2.936  0.00  0.00    +0.010 C 
ATOM      9  C   LIG    1        0.826   1.550  -2.506  0.00  0.00    +0.010 C 
ENDBRANCH   2   4
BRANCH   1  10
ATOM     10  C   LIG    1       -2.906   3.422  -1.051  0.00  0.00    +0.100 C 
BRANCH  10  11
ATOM     11  S   LIG    1       -3.278   3.220   0.709  0.00  0.00    +0.060 S 
BRANCH  11  15
ATOM     12  C   LIG    1       -6.437   6.392   1.175  0.00  0.00    -0.240 A 
ATOM     13  C   LIG    1       -6.087   5.641   2.306  0.00  0.00    +0.200 A 
ATOM     14  C   LIG    1       -5.113   4.654   2.166  0.00  0.00    -0.080 A 
ATOM     15  C   LIG    1       -4.516   4.458   0.905  0.00  0.00    +0.170 A 
ATOM     16  N   LIG    1       -4.879   5.193  -0.138  0.00  0.00    -0.500 NA
ATOM     17  C   LIG    1       -5.798   6.129  -0.044  0.00  0.00    +0.240 A 
ATOM     18  C   LIG    1       -6.168   6.931  -1.265  0.00  0.00    +0.160 C 
BRANCH  12  20
ATOM     19  C   LIG    1       -8.041   7.811   2.606  0.00  0.00    +0.080 C 
ATOM     20  C   LIG    1       -7.460   7.440   1.266  0.00  0.00    +0.400 C 
ATOM     21  O   LIG    1       -7.838   8.008   0.263  0.00  0.00    -0.440 OA
ENDBRANCH  12  20
BRANCH  14  22
ATOM     22  C   LIG    1       -4.721   3.854   3.288  0.00  0.00    +0.240 C 
ATOM     23  N   LIG    1       -4.410   3.220   4.178  0.00  0.00    -0.380 NA
ENDBRANCH  14  22
ENDBRANCH  11  15
ENDBRANCH  10  11
ENDBRANCH   1  10
BRANCH   2  24
ATOM     24  C   LIG    1       -2.034   3.249  -3.744  0.00  0.00    +0.340 C 
BRANCH  24  25
ATOM     25  C   LIG    1       -1.067   4.382  -3.974  0.00  0.00    -0.120 A 
ATOM     26  C   LIG    1       -1.098   5.494  -3.153  0.00  0.00    +0.050 A 
ATOM     27  C   LIG    1       -0.208   6.531  -3.360  0.00  0.00    -0.010 A 
ATOM     28  C   LIG    1        0.707   6.461  -4.397  0.00  0.00    +0.110 A 
ATOM     29  C   LIG    1        0.733   5.349  -5.222  0.00  0.00    -0.010 A 
ATOM     30  F   LIG    1        1.573   7.477  -4.603  0.00  0.00    -0.140 F 
ATOM     31  C   LIG    1       -0.154   4.311  -5.010  0.00  0.00    +0.060 A 
ENDBRANCH  24  25
ENDBRANCH   2  24
TORSDOF 8
