REMARK  Name = ZINCvU0000000FbK.0
REMARK                            x       y       z     vdW  Elec       q    Type
REMARK                         _______ _______ _______ _____ _____    ______ ____
ROOT
ATOM      1  C   LIG    1        1.801   2.522   4.831  0.00  0.00    +0.120 C 
ATOM      2  C   LIG    1        1.097   1.347   5.460  0.00  0.00    -0.070 A 
ATOM      3  C   LIG    1        0.062   0.711   4.789  0.00  0.00    -0.060 A 
ATOM      4  C   LIG    1       -0.571  -0.428   5.457  0.00  0.00    -0.060 A 
ATOM      5  C   LIG    1       -1.618  -1.136   4.859  0.00  0.00    +0.020 A 
ATOM      6  C   LIG    1       -2.180  -2.190   5.517  0.00  0.00    +0.030 A 
ATOM      7  C   LIG    1       -1.723  -2.571   6.777  0.00  0.00    +0.040 A 
ATOM      8  C   LIG    1       -0.706  -1.903   7.387  0.00  0.00    +0.060 A 
ATOM      9  C   LIG    1       -0.101  -0.810   6.739  0.00  0.00    +0.130 A 
ATOM     10  N   LIG    1        0.897  -0.137   7.312  0.00  0.00    -0.440 NA
ATOM     11  C   LIG    1        1.480   0.889   6.730  0.00  0.00    +0.210 A 
ENDROOT
BRANCH  11  12
ATOM     12  C   LIG    1        2.584   1.582   7.438  0.00  0.00    -0.050 A 
ATOM     13  C   LIG    1        3.574   0.843   8.083  0.00  0.00    +0.050 A 
ATOM     14  C   LIG    1        4.601   1.492   8.736  0.00  0.00    +0.010 A 
ATOM     15  C   LIG    1        4.644   2.875   8.760  0.00  0.00    +0.030 A 
ATOM     16  C   LIG    1        3.662   3.614   8.125  0.00  0.00    +0.010 A 
ATOM     17  C   LIG    1        2.632   2.975   7.465  0.00  0.00    +0.030 A 
ENDBRANCH  11  12
BRANCH   3  18
ATOM     18  C   LIG    1       -0.380   1.160   3.453  0.00  0.00    +0.530 C 
ATOM     19  O   LIG    1       -1.256   1.995   3.352  0.00  0.00    -0.480 OA
BRANCH  18  20
ATOM     20  O   LIG    1        0.190   0.645   2.346  0.00  0.00    -0.340 OA
BRANCH  20  21
ATOM     21  C   LIG    1       -0.293   1.133   1.067  0.00  0.00    +0.260 C 
BRANCH  21  22
ATOM     22  C   LIG    1        0.467   0.438  -0.065  0.00  0.00    +0.150 C 
ATOM     23  C   LIG    1       -0.114   0.867  -1.419  0.00  0.00    +0.240 C 
ATOM     24  O   LIG    1        0.627   0.210  -2.453  0.00  0.00    -0.300 OA
ATOM     25  C   LIG    1        1.983   0.229  -2.340  0.00  0.00    +0.040 A 
ATOM     26  C   LIG    1        2.763  -0.061  -3.449  0.00  0.00    +0.030 A 
ATOM     27  C   LIG    1        4.141  -0.053  -3.348  0.00  0.00    +0.020 A 
ATOM     28  C   LIG    1        4.747   0.243  -2.142  0.00  0.00    +0.020 A 
ATOM     29  C   LIG    1        3.975   0.535  -1.032  0.00  0.00    +0.030 A 
ATOM     30  C   LIG    1        2.592   0.529  -1.127  0.00  0.00    +0.050 A 
ATOM     31  O   LIG    1        1.846   0.821  -0.026  0.00  0.00    -0.300 OA
ENDBRANCH  21  22
ENDBRANCH  20  21
ENDBRANCH  18  20
ENDBRANCH   3  18
TORSDOF 5
