REMARK  Name = ZINCrD00000hQ6GR.0
REMARK                            x       y       z     vdW  Elec       q    Type
REMARK                         _______ _______ _______ _____ _____    ______ ____
ROOT
ATOM      1  C   LIG    1        3.432   2.312  -0.019  0.00  0.00    -0.310 A 
ATOM      2  C   LIG    1        2.774   3.538  -0.006  0.00  0.00    +0.510 A 
ATOM      3  N   LIG    1        1.424   3.353   0.006  0.00  0.00    -0.430 N 
ATOM      4  C   LIG    1        1.116   2.006   0.002  0.00  0.00    +0.300 A 
ATOM      5  N   LIG    1       -0.016   1.335   0.009  0.00  0.00    -0.430 NA
ATOM      6  C   LIG    1        0.002  -0.004   0.002  0.00  0.00    +0.100 A 
ATOM      7  C   LIG    1       -1.203  -0.729   0.010  0.00  0.00    +0.060 A 
ATOM      8  C   LIG    1       -1.175  -2.090   0.003  0.00  0.00    +0.030 A 
ATOM      9  C   LIG    1        0.034  -2.782  -0.012  0.00  0.00    +0.040 A 
ATOM     10  C   LIG    1        1.220  -2.115  -0.021  0.00  0.00    +0.060 A 
ATOM     11  C   LIG    1        1.232  -0.708  -0.013  0.00  0.00    +0.090 A 
ATOM     12  N   LIG    1        2.393  -0.042  -0.021  0.00  0.00    -0.420 NA
ATOM     13  C   LIG    1        2.386   1.276  -0.015  0.00  0.00    +0.180 A 
ENDROOT
BRANCH   3  14
ATOM     14  C   LIG    1        0.477   4.388   0.021  0.00  0.00    +0.060 A 
ATOM     15  C   LIG    1        0.001   4.911  -1.172  0.00  0.00    +0.080 A 
ATOM     16  C   LIG    1       -0.937   5.927  -1.155  0.00  0.00    -0.010 A 
ATOM     17  C   LIG    1       -1.393   6.431   0.049  0.00  0.00    +0.090 A 
ATOM     18  C   LIG    1       -0.918   5.918   1.242  0.00  0.00    -0.060 A 
ATOM     19  C   LIG    1        0.017   4.896   1.234  0.00  0.00    +0.150 A 
BRANCH  19  20
ATOM     20  O   LIG    1        0.484   4.390   2.406  0.00  0.00    -0.310 OA
ATOM     21  C   LIG    1       -0.032   4.960   3.610  0.00  0.00    +0.250 C 
ENDBRANCH  19  20
ENDBRANCH   3  14
BRANCH   2  22
ATOM     22  N   LIG    1        3.395   4.760  -0.006  0.00  0.00    -0.820 N 
ATOM     23  H   LIG    1        2.866   5.573   0.004  0.00  0.00    +0.410 HD
ATOM     24  H   LIG    1        4.363   4.811  -0.015  0.00  0.00    +0.430 HD
ENDBRANCH   2  22
BRANCH   1  25
ATOM     25  C   LIG    1        4.833   2.103  -0.034  0.00  0.00    +0.570 C 
ATOM     26  O   LIG    1        5.424   2.018  -1.094  0.00  0.00    -0.500 OA
BRANCH  25  27
ATOM     27  O   LIG    1        5.511   1.997   1.128  0.00  0.00    -0.350 OA
BRANCH  27  29
ATOM     28  C   LIG    1        7.514   1.692   2.446  0.00  0.00    +0.060 C 
ATOM     29  C   LIG    1        6.922   1.786   1.038  0.00  0.00    +0.200 C 
ENDBRANCH  27  29
ENDBRANCH  25  27
ENDBRANCH   1  25
TORSDOF 6
