REMARK  Name = ZINCtV00000L6jB3.0
REMARK                            x       y       z     vdW  Elec       q    Type
REMARK                         _______ _______ _______ _____ _____    ______ ____
ROOT
ATOM      1  C   LIG    1       -0.848   1.536  -1.212  0.00  0.00    -0.430 C 
ENDROOT
BRANCH   1   2
ATOM      2  S   LIG    1       -0.912   3.241  -0.594  0.00  0.00    +2.510 S 
ATOM      3  O   LIG    1       -1.415   3.271   0.735  0.00  0.00    -0.890 OA
ATOM      4  O   LIG    1       -1.424   4.114  -1.591  0.00  0.00    -0.910 OA
BRANCH   2   5
ATOM      5  C   LIG    1        0.778   3.712  -0.430  0.00  0.00    -0.670 A 
ATOM      6  C   LIG    1        1.459   3.444   0.743  0.00  0.00    +0.150 A 
ATOM      7  C   LIG    1        2.786   3.809   0.870  0.00  0.00    +0.020 A 
ATOM      8  C   LIG    1        3.429   4.454  -0.172  0.00  0.00    +0.020 A 
ATOM      9  C   LIG    1        2.745   4.726  -1.343  0.00  0.00    +0.020 A 
ATOM     10 CL   LIG    1        5.094   4.920  -0.009  0.00  0.00    -0.050 Cl
ATOM     11  C   LIG    1        1.420   4.355  -1.471  0.00  0.00    +0.140 A 
ENDBRANCH   2   5
ENDBRANCH   1   2
BRANCH   1  13
ATOM     12  N   LIG    1        0.639   1.443  -3.352  0.00  0.00    -0.360 NA
ATOM     13  C   LIG    1       -0.009   1.483  -2.420  0.00  0.00    +0.210 C 
ENDBRANCH   1  13
BRANCH   1  14
ATOM     14  C   LIG    1       -2.263   1.064  -1.553  0.00  0.00    +0.160 C 
BRANCH  14  15
ATOM     15  C   LIG    1       -3.191   1.391  -0.411  0.00  0.00    -0.130 A 
ATOM     16  C   LIG    1       -3.237   0.569   0.699  0.00  0.00    +0.050 A 
ATOM     17  C   LIG    1       -4.084   0.871   1.748  0.00  0.00    +0.040 A 
ATOM     18  C   LIG    1       -4.894   1.991   1.683  0.00  0.00    -0.020 A 
ATOM     19  C   LIG    1       -4.851   2.811   0.570  0.00  0.00    +0.050 A 
ATOM     20 CL   LIG    1       -5.964   2.367   2.997  0.00  0.00    -0.060 Cl
ATOM     21  C   LIG    1       -3.999   2.511  -0.477  0.00  0.00    +0.030 A 
ENDBRANCH  14  15
ENDBRANCH   1  14
BRANCH   1  22
ATOM     22  C   LIG    1       -0.252   0.626  -0.136  0.00  0.00    +0.150 C 
BRANCH  22  23
ATOM     23  C   LIG    1       -0.007  -0.743  -0.717  0.00  0.00    -0.080 A 
ATOM     24  C   LIG    1       -1.042  -1.657  -0.793  0.00  0.00    +0.030 A 
ATOM     25  C   LIG    1       -0.818  -2.911  -1.330  0.00  0.00    +0.040 A 
ATOM     26  C   LIG    1        0.444  -3.256  -1.780  0.00  0.00    -0.030 A 
ATOM     27  C   LIG    1        1.480  -2.343  -1.698  0.00  0.00    +0.040 A 
ATOM     28 CL   LIG    1        0.727  -4.833  -2.447  0.00  0.00    -0.060 Cl
ATOM     29  C   LIG    1        1.254  -1.087  -1.167  0.00  0.00    +0.030 A 
ENDBRANCH  22  23
ENDBRANCH   1  22
TORSDOF 7
