REMARK  Name = ZINCkj00000haZ4N.0
REMARK                            x       y       z     vdW  Elec       q    Type
REMARK                         _______ _______ _______ _____ _____    ______ ____
ROOT
ATOM      1  N   LIG    1       -2.637   1.010   3.961  0.00  0.00    -0.380 N 
ATOM      2  C   LIG    1       -3.458   1.507   5.071  0.00  0.00    +0.250 C 
ATOM      3  C   LIG    1       -2.835   1.079   6.402  0.00  0.00    +0.050 C 
ATOM      4  C   LIG    1       -1.423   1.662   6.509  0.00  0.00    +0.040 C 
ATOM      5  C   LIG    1       -0.597   1.197   5.306  0.00  0.00    +0.050 C 
ATOM      6  C   LIG    1       -1.303   1.620   4.016  0.00  0.00    +0.180 C 
ATOM      7  H   LIG    1       -2.550   0.007   4.030  0.00  0.00    +0.430 HD
ENDROOT
BRANCH   1   8
ATOM      8  C   LIG    1       -3.279   1.355   2.686  0.00  0.00    +0.270 C 
BRANCH   8   9
ATOM      9  C   LIG    1       -4.612   0.613   2.569  0.00  0.00    +0.180 C 
BRANCH   9  10
ATOM     10  C   LIG    1       -5.282   0.973   1.241  0.00  0.00    -0.070 C 
ATOM     11  C   LIG    1       -6.489   1.911   1.290  0.00  0.00    +0.040 C 
ATOM     12  C   LIG    1       -6.687   0.424   0.987  0.00  0.00    +0.050 C 
ENDBRANCH   9  10
BRANCH   9  13
ATOM     13  O   LIG    1       -4.379  -0.796   2.618  0.00  0.00    -0.380 OA
BRANCH  13  15
ATOM     14  C   LIG    1       -4.974  -2.997   3.418  0.00  0.00    +0.050 C 
ATOM     15  C   LIG    1       -5.391  -1.529   3.311  0.00  0.00    +0.170 C 
ENDBRANCH  13  15
ENDBRANCH   9  13
ENDBRANCH   8   9
ENDBRANCH   1   8
BRANCH   6  16
ATOM     16  C   LIG    1       -0.481   1.158   2.811  0.00  0.00    +0.080 C 
BRANCH  16  17
ATOM     17  C   LIG    1        0.887   1.843   2.833  0.00  0.00    -0.360 C 
BRANCH  17  18
ATOM     18  S   LIG    1        1.906   1.202   1.476  0.00  0.00    +2.620 S 
ATOM     19  O   LIG    1        2.252  -0.156   1.710  0.00  0.00    -0.940 OA
ATOM     20  O   LIG    1        1.386   1.620   0.221  0.00  0.00    -0.950 OA
BRANCH  18  21
ATOM     21  N   LIG    1        3.340   2.019   1.616  0.00  0.00    -1.240 NA
ATOM     22  H   LIG    1        3.865   1.942   2.428  0.00  0.00    +0.420 HD
ATOM     23  H   LIG    1        3.656   2.573   0.885  0.00  0.00    +0.430 HD
ENDBRANCH  18  21
ENDBRANCH  17  18
ENDBRANCH  16  17
ENDBRANCH   6  16
TORSDOF 9
