REMARK  Name = ZINCkj00000haZ4N.1
REMARK                            x       y       z     vdW  Elec       q    Type
REMARK                         _______ _______ _______ _____ _____    ______ ____
ROOT
ATOM      1  N   LIG    1        0.108   3.626   1.609  0.00  0.00    -0.380 N 
ATOM      2  C   LIG    1       -0.124   4.989   1.118  0.00  0.00    +0.250 C 
ATOM      3  C   LIG    1        1.105   5.474   0.346  0.00  0.00    +0.060 C 
ATOM      4  C   LIG    1        1.357   4.539  -0.840  0.00  0.00    +0.040 C 
ATOM      5  C   LIG    1        1.524   3.107  -0.323  0.00  0.00    +0.060 C 
ATOM      6  C   LIG    1        0.279   2.710   0.474  0.00  0.00    +0.180 C 
ATOM      7  H   LIG    1       -0.682   3.329   2.162  0.00  0.00    +0.410 HD
ENDROOT
BRANCH   1   8
ATOM      8  C   LIG    1        1.319   3.605   2.440  0.00  0.00    +0.270 C 
BRANCH   8   9
ATOM      9  C   LIG    1        1.080   4.425   3.709  0.00  0.00    +0.180 C 
BRANCH   9  10
ATOM     10  C   LIG    1        2.270   4.256   4.657  0.00  0.00    -0.070 C 
ATOM     11  C   LIG    1        2.070   3.375   5.891  0.00  0.00    +0.040 C 
ATOM     12  C   LIG    1        2.165   4.895   6.043  0.00  0.00    +0.050 C 
ENDBRANCH   9  10
BRANCH   9  13
ATOM     13  O   LIG    1        0.937   5.805   3.365  0.00  0.00    -0.380 OA
BRANCH  13  15
ATOM     14  C   LIG    1       -0.121   7.954   3.685  0.00  0.00    +0.050 C 
ATOM     15  C   LIG    1        0.025   6.520   4.200  0.00  0.00    +0.160 C 
ENDBRANCH  13  15
ENDBRANCH   9  13
ENDBRANCH   8   9
ENDBRANCH   1   8
BRANCH   6  16
ATOM     16  C   LIG    1        0.441   1.280   0.993  0.00  0.00    +0.100 C 
BRANCH  16  17
ATOM     17  C   LIG    1       -0.851   0.838   1.682  0.00  0.00    -0.370 C 
BRANCH  17  18
ATOM     18  S   LIG    1       -0.659  -0.857   2.298  0.00  0.00    +2.620 S 
ATOM     19  O   LIG    1        0.276  -0.896   3.368  0.00  0.00    -0.950 OA
ATOM     20  O   LIG    1       -0.572  -1.774   1.215  0.00  0.00    -0.940 OA
BRANCH  18  21
ATOM     21  N   LIG    1       -2.112  -1.205   3.012  0.00  0.00    -1.250 NA
ATOM     22  H   LIG    1       -2.256  -2.072   3.422  0.00  0.00    +0.430 HD
ATOM     23  H   LIG    1       -2.820  -0.541   3.020  0.00  0.00    +0.410 HD
ENDBRANCH  18  21
ENDBRANCH  17  18
ENDBRANCH  16  17
ENDBRANCH   6  16
TORSDOF 9
