REMARK  Name = ZINCpk00000K65I7.0
REMARK                            x       y       z     vdW  Elec       q    Type
REMARK                         _______ _______ _______ _____ _____    ______ ____
ROOT
ATOM      1  C   LIG    1        5.452   5.582  -2.155  0.00  0.00    +0.650 C 
ATOM      2  N   LIG    1        4.263   4.980  -1.958  0.00  0.00    -0.600 N 
ATOM      3  C   LIG    1        3.025   5.770  -1.904  0.00  0.00    +0.300 C 
ATOM      4  C   LIG    1        2.306   5.465  -0.584  0.00  0.00    +0.290 C 
ATOM      5  N   LIG    1        2.224   4.008  -0.419  0.00  0.00    -0.610 N 
ATOM      6  C   LIG    1        3.462   3.218  -0.468  0.00  0.00    +0.270 C 
ATOM      7  C   LIG    1        1.034   3.406  -0.222  0.00  0.00    +0.570 C 
ATOM      8  O   LIG    1        0.024   4.075  -0.117  0.00  0.00    -0.530 OA
ATOM      9  C   LIG    1        4.180   3.522  -1.794  0.00  0.00    +0.290 C 
ATOM     10  O   LIG    1        5.508   6.788  -2.290  0.00  0.00    -0.570 OA
ENDROOT
BRANCH   7  11
ATOM     11  C   LIG    1        0.957   1.934  -0.133  0.00  0.00    -0.140 A 
ATOM     12  C   LIG    1        0.038   1.232  -0.918  0.00  0.00    +0.090 A 
ATOM     13  C   LIG    1       -0.030  -0.140  -0.833  0.00  0.00    +0.020 A 
ATOM     14  C   LIG    1        0.813  -0.828   0.034  0.00  0.00    +0.170 A 
ATOM     15  C   LIG    1        1.729  -0.132   0.817  0.00  0.00    -0.010 A 
ATOM     16  C   LIG    1        1.803   1.240   0.737  0.00  0.00    +0.070 A 
BRANCH  14  17
ATOM     17  N   LIG    1        0.741  -2.218   0.117  0.00  0.00    -0.670 N 
ATOM     18  H   LIG    1        0.914  -2.663   0.962  0.00  0.00    +0.420 HD
ATOM     19  C   LIG    1        0.430  -2.944  -0.975  0.00  0.00    +0.520 C 
ATOM     20  O   LIG    1        0.309  -2.398  -2.051  0.00  0.00    -0.500 OA
BRANCH  19  21
ATOM     21  C   LIG    1        0.234  -4.433  -0.859  0.00  0.00    +0.260 C 
BRANCH  21  22
ATOM     22  C   LIG    1       -0.095  -4.989  -2.182  0.00  0.00    +0.210 C 
ATOM     23  N   LIG    1       -0.349  -5.418  -3.203  0.00  0.00    -0.400 NA
ENDBRANCH  21  22
ENDBRANCH  19  21
ENDBRANCH  14  17
ENDBRANCH   7  11
BRANCH   1  24
ATOM     24  O   LIG    1        6.579   4.846  -2.202  0.00  0.00    -0.370 OA
BRANCH  24  26
ATOM     25  C   LIG    1        8.986   4.566  -2.441  0.00  0.00    +0.070 C 
ATOM     26  C   LIG    1        7.824   5.561  -2.418  0.00  0.00    +0.220 C 
ENDBRANCH  24  26
ENDBRANCH   1  24
TORSDOF 6
