REMARK  Name = ZINCpe000000SyUB.0
REMARK                            x       y       z     vdW  Elec       q    Type
REMARK                         _______ _______ _______ _____ _____    ______ ____
ROOT
ATOM      1  C   LIG    1       -1.054   0.710   2.197  0.00  0.00    +0.530 C 
ATOM      2  N   LIG    1       -1.088   1.517   1.118  0.00  0.00    -0.620 N 
ATOM      3  C   LIG    1       -0.796   0.994  -0.226  0.00  0.00    +0.280 C 
ATOM      4  C   LIG    1       -1.929   1.410  -1.171  0.00  0.00    +0.220 C 
ATOM      5  N   LIG    1       -2.114   2.866  -1.097  0.00  0.00    -0.470 N 
ATOM      6  C   LIG    1       -2.531   3.283   0.248  0.00  0.00    +0.200 C 
ATOM      7  C   LIG    1       -1.423   2.944   1.251  0.00  0.00    +0.300 C 
ATOM      8  O   LIG    1       -1.203   1.175   3.307  0.00  0.00    -0.530 OA
ENDROOT
BRANCH   1  15
ATOM      9  C   LIG    1        1.810  -4.564   0.888  0.00  0.00    +0.100 C 
ATOM     10  C   LIG    1        1.607  -3.071   0.912  0.00  0.00    +0.510 C 
ATOM     11  N   LIG    1        0.882  -2.506   1.898  0.00  0.00    -0.610 N 
ATOM     12  C   LIG    1        0.283  -3.332   2.955  0.00  0.00    +0.260 C 
ATOM     13  C   LIG    1       -1.215  -3.024   3.033  0.00  0.00    +0.010 C 
ATOM     14  C   LIG    1       -1.414  -1.519   3.223  0.00  0.00    +0.050 C 
ATOM     15  C   LIG    1       -0.829  -0.770   2.024  0.00  0.00    -0.020 C 
ATOM     16  C   LIG    1        0.675  -1.052   1.934  0.00  0.00    +0.300 C 
ATOM     17  O   LIG    1        2.095  -2.378   0.045  0.00  0.00    -0.540 OA
ENDBRANCH   1  15
BRANCH   5  18
ATOM     18  C   LIG    1       -3.017   3.300  -2.055  0.00  0.00    +0.340 A 
ATOM     19  C   LIG    1       -3.324   4.656  -2.143  0.00  0.00    -0.040 A 
ATOM     20  C   LIG    1       -4.216   5.083  -3.090  0.00  0.00    +0.150 A 
ATOM     21  C   LIG    1       -4.793   4.130  -3.944  0.00  0.00    -0.110 A 
ATOM     22  C   LIG    1       -4.438   2.787  -3.798  0.00  0.00    +0.360 A 
ATOM     23  N   LIG    1       -3.571   2.421  -2.877  0.00  0.00    -0.520 NA
BRANCH  21  24
ATOM     24  C   LIG    1       -5.731   4.529  -4.950  0.00  0.00    +0.260 C 
ATOM     25  N   LIG    1       -6.475   4.845  -5.748  0.00  0.00    -0.410 NA
ENDBRANCH  21  24
ENDBRANCH   5  18
TORSDOF 3
