REMARK  Name = ZINCrH00000ajYtf.0
REMARK                            x       y       z     vdW  Elec       q    Type
REMARK                         _______ _______ _______ _____ _____    ______ ____
ROOT
ATOM      1  C   LIG    1        2.777  -1.839  -0.777  0.00  0.00    +0.110 C 
ATOM      2  C   LIG    1        1.464  -1.882   0.008  0.00  0.00    +0.280 C 
ENDROOT
BRANCH   2   3
ATOM      3  N   LIG    1        0.875  -0.542   0.049  0.00  0.00    -0.280 N 
ATOM      4  C   LIG    1        1.562   0.622   0.123  0.00  0.00    +0.160 A 
ATOM      5  C   LIG    1        0.624   1.613   0.137  0.00  0.00    +0.040 A 
ATOM      6  N   LIG    1       -0.571   0.999   0.072  0.00  0.00    -0.250 NA
ATOM      7  N   LIG    1       -0.382  -0.272   0.021  0.00  0.00    -0.070 NA
BRANCH   5   8
ATOM      8  C   LIG    1        0.873   3.075   0.210  0.00  0.00    -0.070 A 
ATOM      9  C   LIG    1        2.178   3.557   0.279  0.00  0.00    +0.070 A 
ATOM     10  C   LIG    1        2.407   4.916   0.341  0.00  0.00    -0.080 A 
ATOM     11  C   LIG    1        1.337   5.803   0.346  0.00  0.00    +0.220 A 
ATOM     12  C   LIG    1        0.034   5.323   0.283  0.00  0.00    -0.080 A 
ATOM     13  C   LIG    1       -0.199   3.965   0.215  0.00  0.00    +0.090 A 
BRANCH  11  14
ATOM     14  N   LIG    1        1.571   7.178   0.415  0.00  0.00    -0.880 N 
ATOM     15  H   LIG    1        2.480   7.513   0.459  0.00  0.00    +0.400 HD
ATOM     16  H   LIG    1        0.825   7.797   0.418  0.00  0.00    +0.400 HD
ENDBRANCH  11  14
ENDBRANCH   5   8
ENDBRANCH   2   3
BRANCH   2  17
ATOM     17  C   LIG    1        1.735  -2.355   1.413  0.00  0.00    +0.510 C 
ATOM     18  N   LIG    1        2.280  -3.570   1.622  0.00  0.00    -0.660 N 
ATOM     19  H   LIG    1        2.427  -4.171   0.875  0.00  0.00    +0.420 HD
ATOM     20  O   LIG    1        1.462  -1.643   2.356  0.00  0.00    -0.490 OA
BRANCH  18  21
ATOM     21  C   LIG    1        2.633  -3.966   2.917  0.00  0.00    +0.140 A 
ATOM     22  C   LIG    1        3.091  -3.026   3.830  0.00  0.00    +0.050 A 
ATOM     23  C   LIG    1        3.434  -3.418   5.110  0.00  0.00    +0.040 A 
ATOM     24  C   LIG    1        3.332  -4.747   5.478  0.00  0.00    +0.060 A 
ATOM     25  C   LIG    1        2.881  -5.686   4.568  0.00  0.00    -0.160 A 
ATOM     26  C   LIG    1        2.531  -5.300   3.290  0.00  0.00    +0.050 A 
BRANCH  25  27
ATOM     27  C   LIG    1        2.771  -7.134   4.973  0.00  0.00    +0.510 C 
ATOM     28  F   LIG    1        1.736  -7.742   4.255  0.00  0.00    -0.180 F 
ATOM     29  F   LIG    1        2.499  -7.215   6.343  0.00  0.00    -0.170 F 
ATOM     30  F   LIG    1        3.976  -7.788   4.698  0.00  0.00    -0.170 F 
ENDBRANCH  25  27
ENDBRANCH  18  21
ENDBRANCH   2  17
TORSDOF 6
