REMARK  Name = ZINCkj00000GeS7j.0
REMARK                            x       y       z     vdW  Elec       q    Type
REMARK                         _______ _______ _______ _____ _____    ______ ____
ROOT
ATOM      1  N   LIG    1       -0.723   1.572  -1.182  0.00  0.00    -0.510 N 
ATOM      2  H   LIG    1       -0.737   2.581  -1.177  0.00  0.00    +0.430 HD
ATOM      3  H   LIG    1       -1.670   1.223  -1.175  0.00  0.00    +0.430 HD
ENDROOT
BRANCH   1   4
ATOM      4  C   LIG    1       -0.036   1.099  -2.391  0.00  0.00    +0.370 C 
BRANCH   4  12
ATOM      5  C   LIG    1       -2.380  -0.403  -3.905  0.00  0.00    +0.180 C 
ATOM      6  C   LIG    1       -1.799   0.936  -4.281  0.00  0.00    +0.110 A 
ATOM      7  N   LIG    1       -2.179   1.681  -5.287  0.00  0.00    -0.250 NA
ATOM      8  N   LIG    1       -1.390   2.839  -5.296  0.00  0.00    -0.340 N 
ATOM      9  C   LIG    1       -0.530   2.764  -4.259  0.00  0.00    +0.160 A 
ATOM     10 CL   LIG    1        0.664   3.950  -3.831  0.00  0.00    +0.020 Cl
ATOM     11  C   LIG    1       -1.483   3.937  -6.262  0.00  0.00    +0.390 C 
ATOM     12  C   LIG    1       -0.764   1.598  -3.612  0.00  0.00    -0.300 A 
ENDBRANCH   4  12
ENDBRANCH   1   4
BRANCH   1  13
ATOM     13  C   LIG    1       -0.013   1.086   0.008  0.00  0.00    +0.290 C 
BRANCH  13  14
ATOM     14  C   LIG    1       -0.729   1.579   1.267  0.00  0.00    +0.150 C 
ATOM     15  C   LIG    1        0.012   1.074   2.508  0.00  0.00    +0.190 C 
ATOM     16  N   LIG    1       -0.634   1.615   3.712  0.00  0.00    -0.500 NA
ATOM     17  C   LIG    1       -0.635   3.086   3.688  0.00  0.00    +0.150 C 
ATOM     18  C   LIG    1       -1.371   3.569   2.435  0.00  0.00    +0.250 C 
ATOM     19  O   LIG    1       -0.747   3.009   1.276  0.00  0.00    -0.390 OA
BRANCH  16  20
ATOM     20  C   LIG    1        0.014   1.110   4.930  0.00  0.00    +0.150 C 
ATOM     21  C   LIG    1        0.394   2.130   6.004  0.00  0.00    +0.030 C 
ATOM     22  C   LIG    1        1.483   1.474   5.152  0.00  0.00    -0.020 C 
ENDBRANCH  16  20
ENDBRANCH  13  14
ENDBRANCH   1  13
TORSDOF 5
