REMARK  Name = ZINCpk00000KfLya.0
REMARK                            x       y       z     vdW  Elec       q    Type
REMARK                         _______ _______ _______ _____ _____    ______ ____
ROOT
ATOM      1  C   LIG    1        8.463   2.278   2.826  0.00  0.00    +0.160 C 
ATOM      2  C   LIG    1        7.995   2.210   1.370  0.00  0.00    +0.190 C 
ATOM      3  N   LIG    1        6.536   2.038   1.336  0.00  0.00    -0.530 NA
ATOM      4  C   LIG    1        5.864   3.147   2.030  0.00  0.00    +0.160 C 
ATOM      5  C   LIG    1        6.353   3.206   3.480  0.00  0.00    +0.230 C 
ATOM      6  O   LIG    1        7.777   3.342   3.492  0.00  0.00    -0.360 OA
ENDROOT
BRANCH   1   7
ATOM      7  C   LIG    1        9.970   2.538   2.867  0.00  0.00    +0.370 C 
BRANCH   7  11
ATOM      8  C   LIG    1       11.233   3.862   7.538  0.00  0.00    +0.190 C 
ATOM      9  C   LIG    1       10.982   3.072   6.279  0.00  0.00    +0.220 A 
ATOM     10  N   LIG    1       10.518   3.557   5.157  0.00  0.00    -0.300 NA
ATOM     11  N   LIG    1       10.437   2.484   4.255  0.00  0.00    -0.370 N 
ATOM     12  C   LIG    1       10.878   1.399   4.915  0.00  0.00    +0.270 A 
ATOM     13  C   LIG    1       10.982   0.004   4.355  0.00  0.00    +0.190 C 
ATOM     14  N   LIG    1       11.202   1.766   6.128  0.00  0.00    -0.540 NA
ENDBRANCH   7  11
ENDBRANCH   1   7
BRANCH   3  15
ATOM     15  C   LIG    1        6.052   1.911  -0.045  0.00  0.00    +0.360 C 
BRANCH  15  16
ATOM     16  C   LIG    1        4.604   1.494  -0.034  0.00  0.00    +0.200 A 
ATOM     17  N   LIG    1        3.566   2.292  -0.025  0.00  0.00    -0.460 NA
ATOM     18  C   LIG    1        2.483   1.479  -0.014  0.00  0.00    +0.250 A 
ATOM     19  N   LIG    1        2.927   0.246  -0.025  0.00  0.00    -0.350 NA
ATOM     20  O   LIG    1        4.139   0.240  -0.036  0.00  0.00    +0.100 OA
BRANCH  18  21
ATOM     21  C   LIG    1        1.068   1.902   0.002  0.00  0.00    +0.040 A 
ATOM     22  C   LIG    1       -0.013   1.076   0.008  0.00  0.00    +0.020 A 
ATOM     23  C   LIG    1       -1.154   1.901   0.017  0.00  0.00    -0.060 A 
ATOM     24  C   LIG    1       -0.719   3.177   0.026  0.00  0.00    +0.210 A 
ATOM     25  O   LIG    1        0.623   3.174   0.013  0.00  0.00    -0.150 OA
ENDBRANCH  18  21
ENDBRANCH  15  16
ENDBRANCH   3  15
TORSDOF 5
