REMARK  Name = ZINCpk00000KeTm2.1
REMARK                            x       y       z     vdW  Elec       q    Type
REMARK                         _______ _______ _______ _____ _____    ______ ____
ROOT
ATOM      1  C   LIG    1       -1.090   0.740  -2.170  0.00  0.00    +0.520 C 
ATOM      2  N   LIG    1       -0.734   1.578  -1.176  0.00  0.00    -0.620 N 
ATOM      3  C   LIG    1       -0.013   1.086   0.008  0.00  0.00    +0.250 C 
ATOM      4  C   LIG    1       -0.741   1.585   1.261  0.00  0.00    +0.220 C 
ATOM      5  O   LIG    1       -0.919   3.001   1.169  0.00  0.00    -0.370 OA
ATOM      6  C   LIG    1       -1.734   3.418   0.070  0.00  0.00    +0.270 C 
ATOM      7  C   LIG    1       -1.056   3.013  -1.243  0.00  0.00    +0.280 C 
ATOM      8  O   LIG    1       -1.684   1.165  -3.138  0.00  0.00    -0.520 OA
ENDROOT
BRANCH   6   9
ATOM      9  C   LIG    1       -1.902   4.915   0.109  0.00  0.00    +0.230 A 
ATOM     10  N   LIG    1       -0.947   5.782   0.327  0.00  0.00    -0.280 NA
ATOM     11  N   LIG    1       -1.536   7.056   0.276  0.00  0.00    -0.480 N 
ATOM     12  H   LIG    1       -1.089   7.908   0.399  0.00  0.00    +0.440 HD
ATOM     13  C   LIG    1       -2.842   6.859   0.023  0.00  0.00    +0.300 A 
ATOM     14  N   LIG    1       -3.046   5.571  -0.080  0.00  0.00    -0.530 NA
BRANCH  13  15
ATOM     15  C   LIG    1       -3.886   7.936  -0.122  0.00  0.00    +0.090 C 
ATOM     16  C   LIG    1       -3.889   8.452  -1.563  0.00  0.00    +0.060 C 
ATOM     17  C   LIG    1       -3.568   9.088   0.832  0.00  0.00    +0.040 C 
ENDBRANCH  13  15
ENDBRANCH   6   9
BRANCH   1  18
ATOM     18  C   LIG    1       -0.749  -0.725  -2.078  0.00  0.00    +0.150 C 
BRANCH  18  26
ATOM     19  C   LIG    1        0.861  -1.158  -4.773  0.00  0.00    +0.150 C 
ATOM     20  C   LIG    1       -0.544  -1.628  -4.497  0.00  0.00    +0.090 A 
ATOM     21  N   LIG    1       -1.311  -2.285  -5.329  0.00  0.00    -0.300 NA
ATOM     22  N   LIG    1       -2.534  -2.533  -4.694  0.00  0.00    -0.370 N 
ATOM     23  C   LIG    1       -2.473  -2.007  -3.453  0.00  0.00    +0.100 A 
ATOM     24  C   LIG    1       -3.566  -2.044  -2.416  0.00  0.00    +0.140 C 
ATOM     25  C   LIG    1       -3.678  -3.243  -5.273  0.00  0.00    +0.350 C 
ATOM     26  C   LIG    1       -1.254  -1.436  -3.308  0.00  0.00    -0.230 A 
ENDBRANCH  18  26
ENDBRANCH   1  18
TORSDOF 4
