REMARK  Name = ZINCpk00000KeTm2.2
REMARK                            x       y       z     vdW  Elec       q    Type
REMARK                         _______ _______ _______ _____ _____    ______ ____
ROOT
ATOM      1  C   LIG    1        1.777   2.938  -0.891  0.00  0.00    +0.520 C 
ATOM      2  N   LIG    1        1.371   2.012  -0.000  0.00  0.00    -0.620 N 
ATOM      3  C   LIG    1        2.305   1.454   0.991  0.00  0.00    +0.260 C 
ATOM      4  C   LIG    1        2.213  -0.075   0.934  0.00  0.00    +0.230 C 
ATOM      5  O   LIG    1        0.844  -0.469   1.060  0.00  0.00    -0.350 OA
ATOM      6  C   LIG    1        0.002  -0.004   0.002  0.00  0.00    +0.250 C 
ATOM      7  C   LIG    1       -0.019   1.529   0.010  0.00  0.00    +0.280 C 
ATOM      8  O   LIG    1        0.992   3.385  -1.701  0.00  0.00    -0.520 OA
ENDROOT
BRANCH   6   9
ATOM      9  C   LIG    1       -1.397  -0.528   0.205  0.00  0.00    +0.280 A 
ATOM     10  N   LIG    1       -1.925  -0.885   1.347  0.00  0.00    -0.500 NA
ATOM     11  C   LIG    1       -3.177  -1.298   1.156  0.00  0.00    +0.230 A 
ATOM     12  N   LIG    1       -3.464  -1.209  -0.116  0.00  0.00    -0.300 NA
ATOM     13  N   LIG    1       -2.320  -0.704  -0.756  0.00  0.00    -0.470 N 
ATOM     14  H   LIG    1       -2.217  -0.520  -1.703  0.00  0.00    +0.440 HD
BRANCH  11  15
ATOM     15  C   LIG    1       -4.112  -1.787   2.232  0.00  0.00    +0.100 C 
ATOM     16  C   LIG    1       -4.530  -3.227   1.928  0.00  0.00    +0.050 C 
ATOM     17  C   LIG    1       -5.353  -0.894   2.275  0.00  0.00    +0.050 C 
ENDBRANCH  11  15
ENDBRANCH   6   9
BRANCH   1  18
ATOM     18  C   LIG    1        3.206   3.417  -0.883  0.00  0.00    +0.150 C 
BRANCH  18  26
ATOM     19  C   LIG    1        2.811   6.546  -0.581  0.00  0.00    +0.150 C 
ATOM     20  C   LIG    1        3.224   5.824  -1.837  0.00  0.00    +0.090 A 
ATOM     21  N   LIG    1        3.483   6.381  -2.992  0.00  0.00    -0.300 NA
ATOM     22  N   LIG    1        3.830   5.370  -3.898  0.00  0.00    -0.370 N 
ATOM     23  C   LIG    1        3.776   4.191  -3.244  0.00  0.00    +0.100 A 
ATOM     24  C   LIG    1        4.078   2.836  -3.830  0.00  0.00    +0.140 C 
ATOM     25  C   LIG    1        4.194   5.561  -5.304  0.00  0.00    +0.360 C 
ATOM     26  C   LIG    1        3.398   4.443  -1.969  0.00  0.00    -0.230 A 
ENDBRANCH  18  26
ENDBRANCH   1  18
TORSDOF 4
