REMARK  Name = ZINCpk00000KeTm2.0
REMARK                            x       y       z     vdW  Elec       q    Type
REMARK                         _______ _______ _______ _____ _____    ______ ____
ROOT
ATOM      1  C   LIG    1       -3.639   0.272   0.318  0.00  0.00    +0.520 C 
ATOM      2  N   LIG    1       -4.585  -0.098  -0.568  0.00  0.00    -0.620 N 
ATOM      3  C   LIG    1       -5.086   0.846  -1.579  0.00  0.00    +0.260 C 
ATOM      4  C   LIG    1       -6.614   0.846  -1.532  0.00  0.00    +0.230 C 
ATOM      5  O   LIG    1       -7.090  -0.499  -1.627  0.00  0.00    -0.360 OA
ATOM      6  C   LIG    1       -6.680  -1.343  -0.548  0.00  0.00    +0.250 C 
ATOM      7  C   LIG    1       -5.151  -1.456  -0.548  0.00  0.00    +0.280 C 
ATOM      8  O   LIG    1       -3.243  -0.519   1.148  0.00  0.00    -0.520 OA
ENDROOT
BRANCH   6   9
ATOM      9  C   LIG    1       -7.287  -2.711  -0.720  0.00  0.00    +0.170 A 
ATOM     10  N   LIG    1       -7.038  -3.551  -1.688  0.00  0.00    -0.260 NA
ATOM     11  N   LIG    1       -7.730  -4.622  -1.520  0.00  0.00    -0.290 NA
ATOM     12  C   LIG    1       -8.451  -4.514  -0.438  0.00  0.00    +0.200 A 
ATOM     13  N   LIG    1       -8.186  -3.300   0.104  0.00  0.00    -0.570 N 
ATOM     14  H   LIG    1       -8.566  -2.928   0.915  0.00  0.00    +0.430 HD
BRANCH  12  15
ATOM     15  C   LIG    1       -9.398  -5.550   0.112  0.00  0.00    +0.100 C 
ATOM     16  C   LIG    1      -10.600  -4.853   0.753  0.00  0.00    +0.040 C 
ATOM     17  C   LIG    1       -8.676  -6.394   1.164  0.00  0.00    +0.040 C 
ENDBRANCH  12  15
ENDBRANCH   6   9
BRANCH   1  18
ATOM     18  C   LIG    1       -3.074   1.669   0.278  0.00  0.00    +0.150 C 
BRANCH  18  26
ATOM     19  C   LIG    1       -3.625   2.639   3.244  0.00  0.00    +0.150 C 
ATOM     20  C   LIG    1       -2.284   2.253   2.675  0.00  0.00    +0.090 A 
ATOM     21  N   LIG    1       -1.145   2.265   3.318  0.00  0.00    -0.300 NA
ATOM     22  N   LIG    1       -0.141   1.839   2.438  0.00  0.00    -0.370 N 
ATOM     23  C   LIG    1       -0.718   1.572   1.248  0.00  0.00    +0.100 A 
ATOM     24  C   LIG    1       -0.013   1.086   0.008  0.00  0.00    +0.130 C 
ATOM     25  C   LIG    1        1.283   1.706   2.755  0.00  0.00    +0.360 C 
ATOM     26  C   LIG    1       -2.042   1.824   1.365  0.00  0.00    -0.230 A 
ENDBRANCH  18  26
ENDBRANCH   1  18
TORSDOF 4
