REMARK  Name = ZINCpk00000y6xhe.0
REMARK                            x       y       z     vdW  Elec       q    Type
REMARK                         _______ _______ _______ _____ _____    ______ ____
ROOT
ATOM      1  C   LIG    1        3.585  -0.434  -4.520  0.00  0.00    +0.570 C 
ATOM      2  N   LIG    1        3.729   0.714  -3.829  0.00  0.00    -0.600 N 
ATOM      3  C   LIG    1        4.362   1.874  -4.461  0.00  0.00    +0.300 C 
ATOM      4  O   LIG    1        3.134  -1.421  -3.973  0.00  0.00    -0.510 OA
ENDROOT
BRANCH   1  11
ATOM      5  C   LIG    1        3.110  -1.012  -6.914  0.00  0.00    +0.110 A 
ATOM      6  N   LIG    1        3.486  -1.046  -8.178  0.00  0.00    -0.230 NA
ATOM      7  N   LIG    1        4.636  -0.627  -8.562  0.00  0.00    -0.220 NA
ATOM      8  C   LIG    1        5.524  -0.126  -7.726  0.00  0.00    +0.060 A 
ATOM      9  C   LIG    1        5.230  -0.038  -6.375  0.00  0.00    +0.070 A 
ATOM     10  C   LIG    1        6.859   0.349  -8.239  0.00  0.00    +0.160 C 
ATOM     11  C   LIG    1        3.976  -0.494  -5.948  0.00  0.00    -0.120 A 
BRANCH   5  13
ATOM     12  C   LIG    1        0.759  -0.358  -6.472  0.00  0.00    +0.040 C 
ATOM     13  C   LIG    1        1.749  -1.523  -6.515  0.00  0.00    +0.110 C 
ENDBRANCH   5  13
ENDBRANCH   1  11
BRANCH   2  14
ATOM     14  C   LIG    1        3.253   0.801  -2.446  0.00  0.00    +0.310 C 
BRANCH  14  15
ATOM     15  C   LIG    1        4.376   0.386  -1.494  0.00  0.00    +0.160 C 
ATOM     16  O   LIG    1        5.439   1.352  -1.540  0.00  0.00    -0.370 OA
ATOM     17  C   LIG    1        6.001   1.426  -0.212  0.00  0.00    +0.220 C 
ATOM     18  C   LIG    1        4.757   1.352   0.714  0.00  0.00    +0.020 C 
ATOM     19  C   LIG    1        3.850   0.353  -0.046  0.00  0.00    +0.100 C 
BRANCH  19  20
ATOM     20  C   LIG    1        2.413   0.804   0.003  0.00  0.00    +0.180 A 
ATOM     21  N   LIG    1        1.360   0.032   0.015  0.00  0.00    -0.280 NA
ATOM     22  N   LIG    1        0.295   0.753   0.060  0.00  0.00    -0.290 NA
ATOM     23  C   LIG    1        0.621   2.017   0.078  0.00  0.00    +0.180 A 
ATOM     24  C   LIG    1       -0.332   3.183   0.123  0.00  0.00    +0.200 C 
ATOM     25  N   LIG    1        1.974   2.085   0.042  0.00  0.00    -0.580 N 
ATOM     26  H   LIG    1        2.517   2.888   0.044  0.00  0.00    +0.430 HD
ENDBRANCH  19  20
ENDBRANCH  14  15
ENDBRANCH   2  14
TORSDOF 5
