REMARK  Name = ZINCqH0000034wVb.0
REMARK                            x       y       z     vdW  Elec       q    Type
REMARK                         _______ _______ _______ _____ _____    ______ ____
ROOT
ATOM      1  N   LIG    1       -0.347   1.005  -5.014  0.00  0.00    -0.660 N 
ATOM      2  H   LIG    1        0.491   0.539  -5.159  0.00  0.00    +0.420 HD
ATOM      3  C   LIG    1       -0.822   1.163  -3.762  0.00  0.00    +0.510 C 
ATOM      4  O   LIG    1       -1.817   1.829  -3.571  0.00  0.00    -0.520 OA
ENDROOT
BRANCH   1  11
ATOM      5  C   LIG    1       -0.405   1.815  -7.296  0.00  0.00    +0.060 A 
ATOM      6  C   LIG    1       -1.121   2.319  -8.373  0.00  0.00    -0.050 A 
ATOM      7  C   LIG    1       -2.485   2.520  -8.262  0.00  0.00    +0.020 A 
ATOM      8  C   LIG    1       -3.138   2.222  -7.080  0.00  0.00    +0.050 A 
ATOM      9  C   LIG    1       -2.433   1.715  -6.005  0.00  0.00    +0.040 A 
ATOM     10 CL   LIG    1       -0.306   2.695  -9.859  0.00  0.00    -0.050 Cl
ATOM     11  C   LIG    1       -1.064   1.514  -6.105  0.00  0.00    +0.180 A 
BRANCH   5  13
ATOM     12  C   LIG    1        1.280   0.623  -8.449  0.00  0.00    +0.210 C 
ATOM     13  N   LIG    1        0.976   1.611  -7.405  0.00  0.00    -0.500 N 
ATOM     14  C   LIG    1        1.677   2.876  -7.658  0.00  0.00    +0.210 C 
ENDBRANCH   5  13
ENDBRANCH   1  11
BRANCH   3  15
ATOM     15  C   LIG    1       -0.117   0.511  -2.601  0.00  0.00    +0.070 C 
BRANCH  15  16
ATOM     16  C   LIG    1       -0.855   0.846  -1.303  0.00  0.00    +0.030 C 
BRANCH  16  17
ATOM     17  C   LIG    1       -0.138   0.185  -0.124  0.00  0.00    +0.330 C 
BRANCH  17  18
ATOM     18  N   LIG    1       -0.845   0.505   1.119  0.00  0.00    -0.550 N 
ATOM     19  C   LIG    1       -1.846  -0.207   1.673  0.00  0.00    +0.640 A 
ATOM     20  O   LIG    1       -2.245   0.390   2.806  0.00  0.00    -0.240 OA
ATOM     21  C   LIG    1       -1.504   1.507   3.006  0.00  0.00    +0.030 A 
ATOM     22  C   LIG    1       -1.499   2.472   4.001  0.00  0.00    +0.060 A 
ATOM     23  C   LIG    1       -0.604   3.523   3.936  0.00  0.00    +0.030 A 
ATOM     24  C   LIG    1        0.288   3.617   2.882  0.00  0.00    +0.040 A 
ATOM     25  C   LIG    1        0.290   2.659   1.887  0.00  0.00    +0.030 A 
ATOM     26  O   LIG    1       -2.315  -1.232   1.216  0.00  0.00    -0.480 OA
ATOM     27  C   LIG    1       -0.600   1.599   1.948  0.00  0.00    +0.070 A 
ENDBRANCH  17  18
ENDBRANCH  16  17
ENDBRANCH  15  16
ENDBRANCH   3  15
TORSDOF 6
