REMARK  Name = ZINCAx0000000iwK.0
REMARK                            x       y       z     vdW  Elec       q    Type
REMARK                         _______ _______ _______ _____ _____    ______ ____
ROOT
ATOM      1  N   LIG    1        8.405   6.339  -0.571  0.00  0.00    -0.670 N 
ATOM      2  H   LIG    1        9.150   5.958  -1.063  0.00  0.00    +0.420 HD
ATOM      3  C   LIG    1        8.530   7.550   0.009  0.00  0.00    +0.520 C 
ATOM      4  O   LIG    1        7.574   8.064   0.550  0.00  0.00    -0.490 OA
ENDROOT
BRANCH   1   8
ATOM      5  C   LIG    1        4.826   4.233  -0.248  0.00  0.00    -0.150 A 
ATOM      6  C   LIG    1        6.044   3.547  -0.250  0.00  0.00    +0.070 A 
ATOM      7  C   LIG    1        7.225   4.246  -0.362  0.00  0.00    -0.010 A 
ATOM      8  C   LIG    1        7.207   5.634  -0.463  0.00  0.00    +0.170 A 
ATOM      9  C   LIG    1        5.997   6.319  -0.456  0.00  0.00    +0.020 A 
ATOM     10  C   LIG    1        4.812   5.627  -0.349  0.00  0.00    +0.110 A 
BRANCH   5  13
ATOM     11  N   LIG    1        3.574   2.142  -0.036  0.00  0.00    -0.660 N 
ATOM     12  H   LIG    1        4.418   1.671   0.040  0.00  0.00    +0.410 HD
ATOM     13  C   LIG    1        3.558   3.486  -0.134  0.00  0.00    +0.560 C 
ATOM     14  O   LIG    1        2.499   4.084  -0.127  0.00  0.00    -0.520 OA
BRANCH  11  20
ATOM     15  C   LIG    1        2.302   0.168   0.550  0.00  0.00    +0.100 A 
ATOM     16  C   LIG    1        1.109  -0.536   0.539  0.00  0.00    -0.060 A 
ATOM     17  C   LIG    1       -0.010   0.009  -0.063  0.00  0.00    +0.030 A 
ATOM     18  C   LIG    1        0.057   1.257  -0.653  0.00  0.00    +0.000 A 
ATOM     19  C   LIG    1        1.243   1.967  -0.646  0.00  0.00    +0.050 A 
ATOM     20  C   LIG    1        2.370   1.426  -0.045  0.00  0.00    +0.120 A 
BRANCH  15  22
ATOM     21  C   LIG    1        3.260  -1.661   1.730  0.00  0.00    +0.250 C 
ATOM     22  O   LIG    1        3.404  -0.368   1.141  0.00  0.00    -0.320 OA
ENDBRANCH  15  22
ENDBRANCH  11  20
ENDBRANCH   5  13
ENDBRANCH   1   8
BRANCH   3  23
ATOM     23  C   LIG    1        9.856   8.264  -0.016  0.00  0.00    +0.270 C 
BRANCH  23  24
ATOM     24  O   LIG    1        9.732   9.539   0.669  0.00  0.00    -0.330 OA
BRANCH  24  25
ATOM     25  C   LIG    1       10.832  10.304   0.736  0.00  0.00    +0.450 C 
ATOM     26  O   LIG    1       11.866   9.922   0.239  0.00  0.00    -0.490 OA
BRANCH  25  27
ATOM     27  C   LIG    1       10.780  11.640   1.431  0.00  0.00    +0.420 C 
BRANCH  27  28
ATOM     28  N   LIG    1       12.098  12.275   1.368  0.00  0.00    -0.570 N 
ATOM     29  C   LIG    1       13.061  12.123   2.296  0.00  0.00    +0.580 C 
ATOM     30  C   LIG    1       14.241  12.913   1.883  0.00  0.00    -0.140 A 
ATOM     31  C   LIG    1       15.496  13.132   2.426  0.00  0.00    +0.100 A 
ATOM     32  C   LIG    1       16.394  13.960   1.769  0.00  0.00    +0.060 A 
ATOM     33  C   LIG    1       16.046  14.566   0.578  0.00  0.00    +0.060 A 
ATOM     34  C   LIG    1       14.793  14.355   0.022  0.00  0.00    +0.100 A 
ATOM     35  C   LIG    1       13.885  13.531   0.667  0.00  0.00    -0.140 A 
ATOM     36  O   LIG    1       12.976  11.448   3.301  0.00  0.00    -0.450 OA
ATOM     37  C   LIG    1       12.504  13.092   0.379  0.00  0.00    +0.580 C 
ATOM     38  O   LIG    1       11.845  13.414  -0.589  0.00  0.00    -0.450 OA
ENDBRANCH  27  28
ENDBRANCH  25  27
ENDBRANCH  24  25
ENDBRANCH  23  24
ENDBRANCH   3  23
TORSDOF 9
