REMARK  Name = ZINCrH000004lfFo.0
REMARK                            x       y       z     vdW  Elec       q    Type
REMARK                         _______ _______ _______ _____ _____    ______ ____
ROOT
ATOM      1  C   LIG    1       -1.231   2.313   0.033  0.00  0.00    -0.210 A 
ATOM      2  C   LIG    1       -0.995   3.660   0.031  0.00  0.00    +0.040 A 
ATOM      3  S   LIG    1        0.677   3.978   0.017  0.00  0.00    +0.300 S 
ATOM      4  C   LIG    1        1.087   2.270   0.004  0.00  0.00    -0.240 A 
ATOM      5  C   LIG    1        2.499   1.717  -0.013  0.00  0.00    +0.120 C 
ATOM      6  C   LIG    1        2.454   0.241   0.395  0.00  0.00    +0.020 C 
ATOM      7  C   LIG    1        1.389  -0.475  -0.441  0.00  0.00    +0.020 C 
ATOM      8  C   LIG    1        0.002  -0.004   0.002  0.00  0.00    +0.090 C 
ATOM      9  C   LIG    1       -0.018   1.516   0.010  0.00  0.00    -0.050 A 
ENDROOT
BRANCH   1  12
ATOM     10  N   LIG    1       -3.213   1.471  -1.111  0.00  0.00    -0.720 N 
ATOM     11  H   LIG    1       -2.780   1.668  -1.956  0.00  0.00    +0.400 HD
ATOM     12  C   LIG    1       -2.577   1.732   0.049  0.00  0.00    +0.590 C 
ATOM     13  O   LIG    1       -3.120   1.484   1.109  0.00  0.00    -0.530 OA
BRANCH  10  14
ATOM     14  C   LIG    1       -4.557   0.890  -1.094  0.00  0.00    +0.260 C 
BRANCH  14  15
ATOM     15  C   LIG    1       -5.046   0.696  -2.531  0.00  0.00    +0.030 C 
BRANCH  15  16
ATOM     16  C   LIG    1       -6.451   0.089  -2.514  0.00  0.00    +0.160 C 
BRANCH  16  18
ATOM     17  C   LIG    1       -8.217  -0.657  -3.953  0.00  0.00    +0.200 C 
ATOM     18  O   LIG    1       -6.908  -0.093  -3.856  0.00  0.00    -0.390 OA
ENDBRANCH  16  18
ENDBRANCH  15  16
ENDBRANCH  14  15
ENDBRANCH  10  14
ENDBRANCH   1  12
BRANCH   2  19
ATOM     19  N   LIG    1       -1.981   4.633   0.045  0.00  0.00    -0.630 N 
ATOM     20  H   LIG    1       -2.917   4.375   0.053  0.00  0.00    +0.420 HD
ATOM     21  C   LIG    1       -1.642   5.937   0.049  0.00  0.00    +0.550 C 
ATOM     22  O   LIG    1       -0.470   6.260   0.040  0.00  0.00    -0.480 OA
BRANCH  21  23
ATOM     23  C   LIG    1       -2.693   6.973   0.064  0.00  0.00    -0.180 A 
ATOM     24  C   LIG    1       -4.040   6.607   0.075  0.00  0.00    +0.070 A 
ATOM     25  C   LIG    1       -5.017   7.580   0.089  0.00  0.00    +0.000 A 
ATOM     26  C   LIG    1       -4.666   8.919   0.092  0.00  0.00    +0.090 A 
ATOM     27  C   LIG    1       -3.335   9.292   0.082  0.00  0.00    -0.010 A 
ATOM     28  C   LIG    1       -2.344   8.328   0.074  0.00  0.00    +0.170 A 
ATOM     29  F   LIG    1       -1.043   8.693   0.070  0.00  0.00    -0.110 F 
ENDBRANCH  21  23
ENDBRANCH   2  19
TORSDOF 7
