REMARK  Name = ZINCqH0000051cED.0
REMARK                            x       y       z     vdW  Elec       q    Type
REMARK                         _______ _______ _______ _____ _____    ______ ____
ROOT
ATOM      1  C   LIG    1        3.711  -0.707  -0.037  0.00  0.00    +0.060 C 
ENDROOT
BRANCH   1   2
ATOM      2  C   LIG    1        2.396   0.029  -0.021  0.00  0.00    -0.060 A 
ATOM      3  C   LIG    1        1.208  -0.679  -0.013  0.00  0.00    +0.040 A 
ATOM      4  C   LIG    1        0.002  -0.004   0.002  0.00  0.00    +0.000 A 
ATOM      5  C   LIG    1       -0.017   1.378   0.010  0.00  0.00    +0.000 A 
ATOM      6  C   LIG    1        1.171   2.086   0.002  0.00  0.00    +0.000 A 
ATOM      7  C   LIG    1        2.377   1.411  -0.015  0.00  0.00    +0.000 A 
ENDBRANCH   1   2
BRANCH   1   8
ATOM      8  C   LIG    1        4.520  -0.332   1.207  0.00  0.00    +0.100 C 
BRANCH   8  10
ATOM      9  O   LIG    1        2.750  -1.413   2.333  0.00  0.00    -0.490 OA
ATOM     10  C   LIG    1        3.804  -0.822   2.439  0.00  0.00    +0.530 C 
ATOM     11  N   LIG    1        4.334  -0.604   3.658  0.00  0.00    -0.540 N 
ATOM     12  C   LIG    1        3.728  -1.026   4.925  0.00  0.00    +0.290 C 
ATOM     13  C   LIG    1        4.703  -0.552   6.016  0.00  0.00    +0.120 C 
ATOM     14  C   LIG    1        5.814   0.130   5.256  0.00  0.00    -0.240 A 
ATOM     15  C   LIG    1        6.970   0.758   5.670  0.00  0.00    +0.360 A 
ATOM     16  N   LIG    1        7.780   1.280   4.759  0.00  0.00    -0.530 NA
ATOM     17  C   LIG    1        7.488   1.200   3.476  0.00  0.00    +0.540 A 
ATOM     18  N   LIG    1        6.396   0.609   3.042  0.00  0.00    -0.550 NA
ATOM     19  C   LIG    1        5.529   0.059   3.897  0.00  0.00    +0.400 A 
ENDBRANCH   8  10
ENDBRANCH   1   8
BRANCH   1  20
ATOM     20  C   LIG    1        4.497  -0.321  -1.292  0.00  0.00    +0.090 C 
BRANCH  20  21
ATOM     21  C   LIG    1        3.757  -0.800  -2.514  0.00  0.00    -0.080 A 
ATOM     22  C   LIG    1        4.013  -2.058  -3.028  0.00  0.00    +0.000 A 
ATOM     23  C   LIG    1        3.332  -2.499  -4.147  0.00  0.00    +0.000 A 
ATOM     24  C   LIG    1        2.401  -1.679  -4.758  0.00  0.00    +0.000 A 
ATOM     25  C   LIG    1        2.149  -0.420  -4.247  0.00  0.00    +0.000 A 
ATOM     26  C   LIG    1        2.827   0.020  -3.125  0.00  0.00    +0.010 A 
ENDBRANCH  20  21
ENDBRANCH   1  20
TORSDOF 5
