REMARK  Name = ZINCpk00000l8s8E.0
REMARK                            x       y       z     vdW  Elec       q    Type
REMARK                         _______ _______ _______ _____ _____    ______ ____
ROOT
ATOM      1  N   LIG    1        1.057   3.418   0.010  0.00  0.00    -0.680 N 
ATOM      2  H   LIG    1        1.882   3.929   0.005  0.00  0.00    +0.420 HD
ENDROOT
BRANCH   1   3
ATOM      3  C   LIG    1        1.101   2.033   0.003  0.00  0.00    +0.490 A 
ATOM      4  N   LIG    1       -0.016   1.333   0.009  0.00  0.00    -0.530 NA
ATOM      5  C   LIG    1        0.002  -0.004   0.002  0.00  0.00    +0.290 A 
ATOM      6  C   LIG    1        1.161  -0.691  -0.013  0.00  0.00    +0.100 A 
ATOM      7  N   LIG    1        2.353  -0.017  -0.021  0.00  0.00    -0.350 N 
ATOM      8  C   LIG    1        3.650  -0.383  -0.035  0.00  0.00    +0.200 A 
ATOM      9  N   LIG    1        4.372   0.711  -0.036  0.00  0.00    -0.250 NA
ATOM     10  N   LIG    1        3.606   1.747  -0.023  0.00  0.00    -0.250 NA
ATOM     11  C   LIG    1        2.346   1.358  -0.013  0.00  0.00    +0.110 A 
BRANCH   8  12
ATOM     12  C   LIG    1        4.176  -1.795  -0.047  0.00  0.00    +0.040 C 
ATOM     13  C   LIG    1        5.681  -1.990   0.144  0.00  0.00    +0.080 C 
ATOM     14  C   LIG    1        5.048  -2.215  -1.232  0.00  0.00    +0.060 C 
ENDBRANCH   8  12
ENDBRANCH   1   3
BRANCH   1  19
ATOM     15  C   LIG    1       -0.727   4.273   1.474  0.00  0.00    +0.150 C 
ATOM     16  C   LIG    1       -0.853   5.789   1.728  0.00  0.00    +0.010 C 
ATOM     17  C   LIG    1       -1.027   6.399   0.315  0.00  0.00    -0.010 C 
ATOM     18  C   LIG    1       -0.077   5.533  -0.550  0.00  0.00    +0.050 C 
ATOM     19  C   LIG    1       -0.234   4.110   0.025  0.00  0.00    +0.270 C 
BRANCH  15  20
ATOM     20  O   LIG    1       -2.000   3.643   1.631  0.00  0.00    -0.550 OA
ATOM     21  H   LIG    1       -2.365   3.711   2.524  0.00  0.00    +0.380 HD
ENDBRANCH  15  20
BRANCH  17  22
ATOM     22  C   LIG    1       -0.590   7.865   0.299  0.00  0.00    +0.310 C 
BRANCH  22  23
ATOM     23  N   LIG    1       -1.502   8.656   1.128  0.00  0.00    -0.460 N 
ATOM     24  C   LIG    1       -2.646   9.280   0.709  0.00  0.00    +0.110 A 
ATOM     25  C   LIG    1       -3.177   9.886   1.788  0.00  0.00    +0.140 A 
ATOM     26  N   LIG    1       -2.375   9.646   2.835  0.00  0.00    -0.500 NA
ATOM     27  C   LIG    1       -1.370   8.910   2.448  0.00  0.00    +0.380 A 
ENDBRANCH  22  23
ENDBRANCH  17  22
ENDBRANCH   1  19
TORSDOF 6
