REMARK  Name = ZINCpk00000eb7hN.0
REMARK                            x       y       z     vdW  Elec       q    Type
REMARK                         _______ _______ _______ _____ _____    ______ ____
ROOT
ATOM      1  C   LIG    1       -4.496  -3.582   1.477  0.00  0.00    -0.040 C 
ATOM      2  C   LIG    1       -5.608  -2.533   1.409  0.00  0.00    +0.030 C 
ATOM      3  C   LIG    1       -4.990  -1.133   1.386  0.00  0.00    +0.020 C 
ATOM      4  C   LIG    1       -4.111  -0.987   0.145  0.00  0.00    +0.260 C 
ATOM      5  N   LIG    1       -3.130  -2.080   0.122  0.00  0.00    -0.610 N 
ATOM      6  C   LIG    1       -1.813  -1.819   0.010  0.00  0.00    +0.600 C 
ATOM      7  O   LIG    1       -1.016  -2.734  -0.082  0.00  0.00    -0.530 OA
ATOM      8  C   LIG    1       -3.612  -3.464   0.231  0.00  0.00    +0.290 C 
ENDROOT
BRANCH   6   9
ATOM      9  C   LIG    1       -1.339  -0.429  -0.003  0.00  0.00    -0.270 A 
ATOM     10  C   LIG    1       -0.307   0.110   0.784  0.00  0.00    +0.090 A 
ATOM     11  C   LIG    1        0.549  -0.422   1.758  0.00  0.00    +0.350 A 
ATOM     12  N   LIG    1        1.438   0.353   2.336  0.00  0.00    -0.440 NA
ATOM     13  C   LIG    1        1.542   1.641   2.010  0.00  0.00    +0.220 A 
ATOM     14  C   LIG    1        0.738   2.197   1.075  0.00  0.00    +0.260 A 
ATOM     15  N   LIG    1       -0.201   1.432   0.448  0.00  0.00    -0.250 N 
ATOM     16  N   LIG    1       -1.161   1.706  -0.530  0.00  0.00    -0.300 NA
ATOM     17  C   LIG    1       -1.829   0.614  -0.804  0.00  0.00    +0.320 A 
ENDBRANCH   6   9
BRANCH   1  18
ATOM     18  C   LIG    1       -5.115  -4.980   1.533  0.00  0.00    +0.330 C 
BRANCH  18  22
ATOM     19  C   LIG    1       -1.521  -8.354   0.606  0.00  0.00    +0.190 C 
ATOM     20  C   LIG    1       -2.498  -7.439   1.298  0.00  0.00    +0.230 A 
ATOM     21  N   LIG    1       -3.347  -6.644   0.702  0.00  0.00    -0.320 NA
ATOM     22  N   LIG    1       -4.056  -5.976   1.714  0.00  0.00    -0.380 N 
ATOM     23  C   LIG    1       -3.574  -6.436   2.881  0.00  0.00    +0.280 A 
ATOM     24  C   LIG    1       -4.031  -6.016   4.255  0.00  0.00    +0.190 C 
ATOM     25  N   LIG    1       -2.640  -7.313   2.617  0.00  0.00    -0.540 NA
ENDBRANCH  18  22
ENDBRANCH   1  18
TORSDOF 3
