REMARK  Name = ZINCrg00001JduO0.0
REMARK                            x       y       z     vdW  Elec       q    Type
REMARK                         _______ _______ _______ _____ _____    ______ ____
ROOT
ATOM      1  C   LIG    1        0.784   0.994   9.851  0.00  0.00    +0.100 A 
ATOM      2  N   LIG    1        1.760   0.183   9.569  0.00  0.00    -0.140 NA
ATOM      3  N   LIG    1        2.565  -0.396  10.551  0.00  0.00    -0.430 N 
ATOM      4  C   LIG    1        2.376  -0.145  11.863  0.00  0.00    +0.520 A 
ATOM      5  C   LIG    1        1.292   0.762  12.260  0.00  0.00    -0.130 A 
ATOM      6  C   LIG    1        1.038   1.068  13.596  0.00  0.00    +0.090 A 
ATOM      7  C   LIG    1        0.018   1.939  13.911  0.00  0.00    +0.020 A 
ATOM      8  C   LIG    1       -0.768   2.502  12.914  0.00  0.00    +0.050 A 
ATOM      9  C   LIG    1       -0.538   2.209  11.587  0.00  0.00    +0.040 A 
ATOM     10  O   LIG    1        3.091  -0.663  12.703  0.00  0.00    -0.530 OA
ATOM     11  C   LIG    1        0.496   1.338  11.243  0.00  0.00    -0.050 A 
ENDROOT
BRANCH   1  12
ATOM     12  C   LIG    1       -0.048   1.584   8.741  0.00  0.00    +0.170 C 
BRANCH  12  15
ATOM     13  N   LIG    1       -0.142   1.477   6.272  0.00  0.00    -0.730 N 
ATOM     14  H   LIG    1       -0.894   2.088   6.305  0.00  0.00    +0.400 HD
ATOM     15  C   LIG    1        0.454   1.079   7.413  0.00  0.00    +0.500 C 
ATOM     16  O   LIG    1        1.395   0.315   7.372  0.00  0.00    -0.480 OA
BRANCH  13  17
ATOM     17  C   LIG    1        0.346   0.986   4.981  0.00  0.00    +0.250 C 
BRANCH  17  18
ATOM     18  C   LIG    1       -0.498   1.585   3.855  0.00  0.00    +0.100 C 
BRANCH  18  19
ATOM     19  C   LIG    1        0.011   1.072   2.506  0.00  0.00    +0.030 C 
ATOM     20  N   LIG    1        1.426   0.715   2.381  0.00  0.00    -0.120 NA
ATOM     21  N   LIG    1        0.647  -0.246   2.453  0.00  0.00    -0.120 NA
BRANCH  19  22
ATOM     22  C   LIG    1       -0.729   1.579   1.267  0.00  0.00    +0.120 C 
BRANCH  22  23
ATOM     23  C   LIG    1       -0.013   1.086   0.008  0.00  0.00    +0.160 C 
BRANCH  23  25
ATOM     24  C   LIG    1       -1.292   1.962  -2.136  0.00  0.00    +0.030 C 
ATOM     25  C   LIG    1       -0.725   1.573  -1.185  0.00  0.00    -0.190 C 
ENDBRANCH  23  25
ENDBRANCH  22  23
ENDBRANCH  19  22
ENDBRANCH  18  19
ENDBRANCH  17  18
ENDBRANCH  13  17
ENDBRANCH  12  15
ENDBRANCH   1  12
BRANCH   3  26
ATOM     26  C   LIG    1        3.644  -1.300  10.146  0.00  0.00    +0.340 C 
BRANCH  26  27
ATOM     27  C   LIG    1        3.113  -2.734  10.088  0.00  0.00    +0.170 C 
BRANCH  27  28
ATOM     28  O   LIG    1        2.127  -2.837   9.059  0.00  0.00    -0.550 OA
ATOM     29  H   LIG    1        1.746  -3.720   8.965  0.00  0.00    +0.370 HD
ENDBRANCH  27  28
ENDBRANCH  26  27
ENDBRANCH   3  26
TORSDOF 11
