REMARK  Name = ZINCpe00000bZ6kq.0
REMARK                            x       y       z     vdW  Elec       q    Type
REMARK                         _______ _______ _______ _____ _____    ______ ____
ROOT
ATOM      1  C   LIG    1        0.722   5.954   2.183  0.00  0.00    +0.610 C 
ATOM      2  N   LIG    1        1.184   4.938   1.427  0.00  0.00    -0.630 N 
ATOM      3  C   LIG    1        0.495   3.669   1.093  0.00  0.00    +0.290 C 
ATOM      4  C   LIG    1        0.866   3.398  -0.384  0.00  0.00    +0.010 C 
ATOM      5  C   LIG    1        2.177   4.164  -0.597  0.00  0.00    -0.100 C 
ATOM      6  C   LIG    1        2.224   5.071  -1.827  0.00  0.00    +0.310 C 
ATOM      7  N   LIG    1        3.616   4.601  -1.984  0.00  0.00    -0.640 N 
ATOM      8  C   LIG    1        4.717   5.099  -2.580  0.00  0.00    +0.570 C 
ATOM      9  O   LIG    1        5.757   4.476  -2.551  0.00  0.00    -0.530 OA
ATOM     10  C   LIG    1        3.318   3.367  -1.228  0.00  0.00    +0.310 C 
ATOM     11  C   LIG    1        2.497   4.840   0.742  0.00  0.00    +0.290 C 
ATOM     12  O   LIG    1       -0.426   5.939   2.586  0.00  0.00    -0.520 OA
ENDROOT
BRANCH   1  18
ATOM     13  C   LIG    1        2.455  10.399   3.902  0.00  0.00    +0.100 C 
ATOM     14  C   LIG    1        2.379   9.032   3.273  0.00  0.00    -0.180 A 
ATOM     15  C   LIG    1        3.411   8.347   2.724  0.00  0.00    +0.050 A 
ATOM     16  N   LIG    1        2.953   7.158   2.263  0.00  0.00    -0.540 N 
ATOM     17  H   LIG    1        3.487   6.478   1.824  0.00  0.00    +0.410 HD
ATOM     18  C   LIG    1        1.603   7.077   2.520  0.00  0.00    -0.060 A 
ATOM     19  C   LIG    1        4.836   8.829   2.640  0.00  0.00    +0.150 C 
ATOM     20  C   LIG    1        1.228   8.246   3.147  0.00  0.00    +0.060 A 
ENDBRANCH   1  18
BRANCH   8  21
ATOM     21  C   LIG    1        4.657   6.431  -3.284  0.00  0.00    -0.080 C 
ATOM     22  C   LIG    1        5.423   7.597  -2.656  0.00  0.00    +0.080 C 
ATOM     23  C   LIG    1        5.941   6.942  -3.939  0.00  0.00    +0.210 C 
ATOM     24  F   LIG    1        5.815   7.666  -5.130  0.00  0.00    -0.180 F 
ENDBRANCH   8  21
BRANCH   4  25
ATOM     25  C   LIG    1        1.079   1.901  -0.615  0.00  0.00    +0.190 C 
BRANCH  25  26
ATOM     26  O   LIG    1       -0.161   1.212  -0.446  0.00  0.00    -0.570 OA
ATOM     27  H   LIG    1       -0.101   0.256  -0.578  0.00  0.00    +0.390 HD
ENDBRANCH  25  26
ENDBRANCH   4  25
TORSDOF 4
