REMARK  Name = ZINCrD000000ABJA.0
REMARK                            x       y       z     vdW  Elec       q    Type
REMARK                         _______ _______ _______ _____ _____    ______ ____
ROOT
ATOM      1  O   LIG    1        8.303  -0.633  -1.046  0.00  0.00    -0.530 OA
ATOM      2  C   LIG    1        7.701  -0.799  -0.006  0.00  0.00    +0.510 C 
ATOM      3  N   LIG    1        6.382  -1.077  -0.028  0.00  0.00    -0.620 N 
ATOM      4  C   LIG    1        5.655  -1.184  -1.302  0.00  0.00    +0.300 C 
ATOM      5  C   LIG    1        4.411  -0.291  -1.229  0.00  0.00    +0.170 C 
ATOM      6  N   LIG    1        3.630  -0.643  -0.035  0.00  0.00    -0.490 N 
ATOM      7  C   LIG    1        4.390  -0.384   1.194  0.00  0.00    +0.180 C 
ATOM      8  C   LIG    1        5.633  -1.281   1.221  0.00  0.00    +0.280 C 
ENDROOT
BRANCH   6   9
ATOM      9  C   LIG    1        2.406   0.036  -0.020  0.00  0.00    +0.060 A 
ATOM     10  C   LIG    1        2.379   1.422  -0.013  0.00  0.00    -0.010 A 
ATOM     11  C   LIG    1        1.169   2.090   0.002  0.00  0.00    +0.010 A 
ATOM     12  C   LIG    1       -0.017   1.379   0.010  0.00  0.00    +0.030 A 
ATOM     13  C   LIG    1        0.002  -0.004   0.002  0.00  0.00    -0.010 A 
ATOM     14  C   LIG    1        1.210  -0.680  -0.013  0.00  0.00    +0.130 A 
BRANCH  14  15
ATOM     15  O   LIG    1        1.230  -2.040  -0.020  0.00  0.00    -0.490 OA
ATOM     16  H   LIG    1        1.228  -2.429  -0.906  0.00  0.00    +0.390 HD
ENDBRANCH  14  15
ENDBRANCH   6   9
BRANCH   2  17
ATOM     17  C   LIG    1        8.427  -0.694   1.310  0.00  0.00    +0.150 C 
BRANCH  17  18
ATOM     18  C   LIG    1        9.879  -0.377   1.059  0.00  0.00    -0.160 A 
ATOM     19  C   LIG    1       10.891  -1.252   0.985  0.00  0.00    +0.260 A 
ATOM     20  O   LIG    1       12.046  -0.604   0.746  0.00  0.00    -0.180 OA
ATOM     21  C   LIG    1       11.842   0.726   0.662  0.00  0.00    +0.040 A 
ATOM     22  C   LIG    1       12.685   1.809   0.439  0.00  0.00    +0.080 A 
ATOM     23  C   LIG    1       12.167   3.091   0.407  0.00  0.00    +0.090 A 
ATOM     24  C   LIG    1       10.809   3.309   0.597  0.00  0.00    +0.020 A 
ATOM     25  C   LIG    1        9.959   2.248   0.820  0.00  0.00    +0.090 A 
ATOM     26  F   LIG    1       12.990   4.140   0.191  0.00  0.00    -0.120 F 
ATOM     27  F   LIG    1       14.008   1.609   0.253  0.00  0.00    -0.120 F 
ATOM     28  C   LIG    1       10.469   0.951   0.854  0.00  0.00    -0.090 A 
ENDBRANCH  17  18
ENDBRANCH   2  17
TORSDOF 4
