REMARK  Name = ZINCkj000005iBJL.0
REMARK                            x       y       z     vdW  Elec       q    Type
REMARK                         _______ _______ _______ _____ _____    ______ ____
ROOT
ATOM      1  S   LIG    1        4.417  -0.552   1.023  0.00  0.00    +2.690 S 
ATOM      2  O   LIG    1        4.088  -1.732   1.744  0.00  0.00    -0.940 OA
ATOM      3  O   LIG    1        5.289   0.449   1.528  0.00  0.00    -0.940 OA
ENDROOT
BRANCH   1   7
ATOM      4  C   LIG    1        0.497   1.515   0.095  0.00  0.00    +0.200 A 
ATOM      5  C   LIG    1        0.540   0.135   0.226  0.00  0.00    -0.100 A 
ATOM      6  C   LIG    1        1.737  -0.493   0.509  0.00  0.00    +0.070 A 
ATOM      7  C   LIG    1        2.892   0.252   0.662  0.00  0.00    -0.740 A 
ATOM      8  C   LIG    1        2.851   1.628   0.533  0.00  0.00    +0.050 A 
ATOM      9  C   LIG    1        4.111   2.438   0.700  0.00  0.00    +0.120 C 
ATOM     10  C   LIG    1        1.785  -1.993   0.650  0.00  0.00    +0.120 C 
ATOM     11  C   LIG    1        1.656   2.261   0.249  0.00  0.00    -0.050 A 
BRANCH   4  13
ATOM     12  C   LIG    1       -1.834   1.305  -0.324  0.00  0.00    +0.260 C 
ATOM     13  O   LIG    1       -0.681   2.136  -0.178  0.00  0.00    -0.310 OA
ENDBRANCH   4  13
ENDBRANCH   1   7
BRANCH   1  14
ATOM     14  N   LIG    1        5.062  -1.050  -0.419  0.00  0.00    -1.110 NA
ATOM     15  H   LIG    1        5.161  -1.997  -0.605  0.00  0.00    +0.430 HD
BRANCH  14  16
ATOM     16  C   LIG    1        5.483  -0.060  -1.413  0.00  0.00    +0.250 C 
ATOM     17  C   LIG    1        6.822  -0.485  -2.023  0.00  0.00    +0.060 C 
ATOM     18  C   LIG    1        7.215   0.514  -3.115  0.00  0.00    +0.060 C 
ATOM     19  C   LIG    1        6.098   0.584  -4.159  0.00  0.00    +0.260 C 
ATOM     20  N   LIG    1        4.852   1.022  -3.519  0.00  0.00    -0.500 N 
ATOM     21  H   LIG    1        4.131   1.117  -4.219  0.00  0.00    +0.440 HD
ATOM     22  H   LIG    1        5.001   1.911  -3.068  0.00  0.00    +0.430 HD
ATOM     23  C   LIG    1        4.431   0.032  -2.521  0.00  0.00    +0.240 C 
ENDBRANCH  14  16
ENDBRANCH   1  14
TORSDOF 4
