REMARK  Name = ZINCqH00000028mW.0
REMARK                            x       y       z     vdW  Elec       q    Type
REMARK                         _______ _______ _______ _____ _____    ______ ____
ROOT
ATOM      1  N   LIG    1        3.549  -0.092  -0.032  0.00  0.00    -0.620 N 
ATOM      2  H   LIG    1        3.788  -1.032  -0.039  0.00  0.00    +0.420 HD
ATOM      3  C   LIG    1        4.515   0.848  -0.036  0.00  0.00    +0.570 C 
ATOM      4  O   LIG    1        4.215   2.028  -0.027  0.00  0.00    -0.500 OA
ENDROOT
BRANCH   3   5
ATOM      5  C   LIG    1        5.922   0.451  -0.051  0.00  0.00    -0.250 C 
ATOM      6  C   LIG    1        6.896   1.395  -0.056  0.00  0.00    +0.180 C 
ATOM      7  C   LIG    1        8.294   0.940  -0.091  0.00  0.00    -0.160 A 
ATOM      8  C   LIG    1        9.347   1.795   0.232  0.00  0.00    +0.090 A 
ATOM      9  C   LIG    1       10.643   1.325   0.186  0.00  0.00    -0.020 A 
ATOM     10  C   LIG    1       10.899   0.013  -0.177  0.00  0.00    +0.070 A 
ATOM     11  C   LIG    1        9.863  -0.844  -0.500  0.00  0.00    -0.010 A 
ATOM     12  C   LIG    1        8.557  -0.391  -0.461  0.00  0.00    +0.140 A 
ATOM     13  O   LIG    1        7.519  -1.205  -0.772  0.00  0.00    -0.300 OA
ATOM     14  C   LIG    1        6.296  -1.008  -0.056  0.00  0.00    +0.300 C 
ENDBRANCH   3   5
BRANCH   1  18
ATOM     15  C   LIG    1        0.002  -0.004   0.002  0.00  0.00    +0.110 A 
ATOM     16  C   LIG    1       -0.016   1.330   0.009  0.00  0.00    -0.140 A 
ATOM     17  S   LIG    1        1.651   1.899  -0.004  0.00  0.00    +0.250 S 
ATOM     18  C   LIG    1        2.213   0.285  -0.018  0.00  0.00    +0.240 A 
ATOM     19  N   LIG    1        1.210  -0.536  -0.012  0.00  0.00    -0.490 NA
BRANCH  15  20
ATOM     20  C   LIG    1       -1.255  -0.836   0.010  0.00  0.00    +0.270 C 
BRANCH  20  25
ATOM     21  C   LIG    1       -3.498  -1.897  -5.140  0.00  0.00    +0.010 C 
ATOM     22  C   LIG    1       -3.312  -1.453  -3.688  0.00  0.00    -0.020 C 
ATOM     23  C   LIG    1       -2.927  -2.660  -2.828  0.00  0.00    +0.030 C 
ATOM     24  C   LIG    1       -2.684  -2.199  -1.389  0.00  0.00    +0.170 C 
ATOM     25  N   LIG    1       -1.610  -1.199  -1.369  0.00  0.00    -0.530 NA
ATOM     26  C   LIG    1       -1.976  -0.010  -2.149  0.00  0.00    +0.160 C 
ATOM     27  C   LIG    1       -2.197  -0.406  -3.611  0.00  0.00    +0.030 C 
ENDBRANCH  20  25
ENDBRANCH  15  20
ENDBRANCH   1  18
TORSDOF 4
