REMARK  Name = ZINCvU00000004la.0
REMARK                            x       y       z     vdW  Elec       q    Type
REMARK                         _______ _______ _______ _____ _____    ______ ____
ROOT
ATOM      1  C   LIG    1        0.002  -0.004   0.002  0.00  0.00    +0.270 A 
ATOM      2  N   LIG    1       -0.016   1.297   0.009  0.00  0.00    -0.440 NA
ATOM      3  C   LIG    1        1.257   1.771  -0.000  0.00  0.00    +0.040 A 
ATOM      4  C   LIG    1        1.807   3.055   0.003  0.00  0.00    +0.080 A 
ATOM      5  C   LIG    1        3.164   3.215  -0.010  0.00  0.00    +0.000 A 
ATOM      6  C   LIG    1        4.006   2.112  -0.024  0.00  0.00    +0.040 A 
ATOM      7  C   LIG    1        3.485   0.835  -0.026  0.00  0.00    +0.010 A 
ATOM      8  C   LIG    1        2.110   0.654  -0.015  0.00  0.00    +0.070 A 
ATOM      9  N   LIG    1        1.286  -0.454  -0.013  0.00  0.00    -0.470 N 
ENDROOT
BRANCH   1  10
ATOM     10  C   LIG    1       -1.221  -0.884   0.009  0.00  0.00    +0.210 C 
BRANCH  10  12
ATOM     11  N   LIG    1       -2.625  -0.406   2.154  0.00  0.00    -0.360 NA
ATOM     12  C   LIG    1       -2.014  -0.614   1.220  0.00  0.00    +0.210 C 
ENDBRANCH  10  12
BRANCH  10  13
ATOM     13  C   LIG    1       -2.055  -0.594  -1.212  0.00  0.00    +0.360 C 
ATOM     14  O   LIG    1       -1.980   0.484  -1.753  0.00  0.00    -0.350 OA
BRANCH  13  15
ATOM     15  C   LIG    1       -2.983  -1.648  -1.759  0.00  0.00    +0.230 C 
BRANCH  15  16
ATOM     16  O   LIG    1       -3.659  -1.137  -2.910  0.00  0.00    -0.280 OA
BRANCH  16  17
ATOM     17  C   LIG    1       -4.539  -1.968  -3.529  0.00  0.00    +0.140 A 
ATOM     18  C   LIG    1       -4.744  -3.250  -3.041  0.00  0.00    -0.040 A 
ATOM     19  C   LIG    1       -5.643  -4.092  -3.668  0.00  0.00    +0.090 A 
ATOM     20  C   LIG    1       -6.330  -3.661  -4.788  0.00  0.00    -0.060 A 
ATOM     21  C   LIG    1       -6.124  -2.384  -5.280  0.00  0.00    +0.090 A 
ATOM     22 CL   LIG    1       -7.454  -4.723  -5.578  0.00  0.00    -0.050 Cl
ATOM     23  C   LIG    1       -5.230  -1.537  -4.653  0.00  0.00    -0.060 A 
ATOM     24 CL   LIG    1       -4.971   0.065  -5.271  0.00  0.00    -0.030 Cl
ENDBRANCH  16  17
ENDBRANCH  15  16
ENDBRANCH  13  15
ENDBRANCH  10  13
ENDBRANCH   1  10
BRANCH   9  25
ATOM     25  C   LIG    1        1.714  -1.855  -0.024  0.00  0.00    +0.350 C 
BRANCH  25  26
ATOM     26  C   LIG    1        1.848  -2.328  -1.448  0.00  0.00    -0.120 A 
ATOM     27  C   LIG    1        0.766  -2.901  -2.091  0.00  0.00    +0.010 A 
ATOM     28  C   LIG    1        0.887  -3.330  -3.399  0.00  0.00    +0.010 A 
ATOM     29  C   LIG    1        2.092  -3.197  -4.062  0.00  0.00    +0.030 A 
ATOM     30  C   LIG    1        3.176  -2.629  -3.418  0.00  0.00    +0.020 A 
ATOM     31  C   LIG    1        3.054  -2.195  -2.111  0.00  0.00    +0.030 A 
ENDBRANCH  25  26
ENDBRANCH   9  25
TORSDOF 8
