REMARK  Name = ZINCpk00000e9cEf.0
REMARK                            x       y       z     vdW  Elec       q    Type
REMARK                         _______ _______ _______ _____ _____    ______ ____
ROOT
ATOM      1  C   LIG    1        2.265   4.383  -0.190  0.00  0.00    +0.510 C 
ATOM      2  O   LIG    1        2.164   5.594  -0.183  0.00  0.00    -0.480 OA
ENDROOT
BRANCH   1   3
ATOM      3  C   LIG    1        1.054   3.540  -0.120  0.00  0.00    -0.070 A 
ATOM      4  C   LIG    1        1.167   2.149  -0.127  0.00  0.00    +0.140 A 
ATOM      5  C   LIG    1        0.031   1.367  -0.061  0.00  0.00    +0.150 A 
ATOM      6  C   LIG    1       -1.217   1.960   0.006  0.00  0.00    -0.590 A 
ATOM      7  C   LIG    1       -1.336   3.339   0.019  0.00  0.00    +0.030 A 
ATOM      8  C   LIG    1       -0.209   4.132  -0.046  0.00  0.00    +0.170 A 
BRANCH   6   9
ATOM      9  S   LIG    1       -2.662   0.955   0.083  0.00  0.00    +2.500 S 
ATOM     10  O   LIG    1       -3.400   1.484   1.175  0.00  0.00    -0.900 OA
ATOM     11  O   LIG    1       -2.162  -0.376   0.113  0.00  0.00    -0.930 OA
ATOM     12  C   LIG    1       -3.521   1.277  -1.482  0.00  0.00    -0.220 C 
ENDBRANCH   6   9
BRANCH   7  13
ATOM     13  N   LIG    1       -2.675   3.964   0.097  0.00  0.00    +0.010 N 
ATOM     14  O   LIG    1       -3.675   3.271   0.038  0.00  0.00    -0.140 OA
ATOM     15  O   LIG    1       -2.777   5.171   0.220  0.00  0.00    -0.120 OA
ENDBRANCH   7  13
ENDBRANCH   1   3
BRANCH   1  16
ATOM     16  O   LIG    1        3.482   3.809  -0.260  0.00  0.00    -0.320 OA
BRANCH  16  17
ATOM     17  C   LIG    1        4.627   4.699  -0.326  0.00  0.00    +0.270 C 
BRANCH  17  20
ATOM     18  N   LIG    1        7.089   4.502  -0.469  0.00  0.00    -0.720 N 
ATOM     19  H   LIG    1        7.135   5.471  -0.471  0.00  0.00    +0.400 HD
ATOM     20  C   LIG    1        5.893   3.884  -0.400  0.00  0.00    +0.520 C 
ATOM     21  O   LIG    1        5.835   2.673  -0.397  0.00  0.00    -0.510 OA
BRANCH  18  22
ATOM     22  C   LIG    1        8.319   3.709  -0.541  0.00  0.00    +0.240 C 
BRANCH  22  24
ATOM     23  C   LIG    1        9.029   4.810  -2.668  0.00  0.00    +0.020 C 
ATOM     24  C   LIG    1        9.418   4.534  -1.214  0.00  0.00    +0.020 C 
ENDBRANCH  22  24
BRANCH  22  25
ATOM     25  C   LIG    1        8.763   3.327   0.873  0.00  0.00    -0.010 C 
ATOM     26  C   LIG    1        7.720   2.400   1.501  0.00  0.00    +0.010 C 
ENDBRANCH  22  25
ENDBRANCH  18  22
ENDBRANCH  17  20
ENDBRANCH  16  17
ENDBRANCH   1  16
TORSDOF 9
