REMARK  Name = ZINCrD0000072hi4.0
REMARK                            x       y       z     vdW  Elec       q    Type
REMARK                         _______ _______ _______ _____ _____    ______ ____
ROOT
ATOM      1  C   LIG    1       -2.129   0.953   2.936  0.00  0.00    +0.080 A 
ATOM      2  C   LIG    1       -2.482  -0.162   3.685  0.00  0.00    +0.080 A 
ATOM      3  C   LIG    1       -3.420  -0.044   4.692  0.00  0.00    -0.020 A 
ATOM      4  C   LIG    1       -4.018   1.183   4.947  0.00  0.00    +0.170 A 
ATOM      5  C   LIG    1       -3.670   2.297   4.199  0.00  0.00    -0.100 A 
ATOM      6  C   LIG    1       -4.294   3.644   4.456  0.00  0.00    +0.080 C 
ATOM      7  C   LIG    1       -5.618   3.487   5.204  0.00  0.00    +0.040 C 
ATOM      8  C   LIG    1       -5.389   2.605   6.437  0.00  0.00    +0.290 C 
ATOM      9  N   LIG    1       -4.977   1.275   5.968  0.00  0.00    -0.930 N 
ATOM     10  C   LIG    1       -2.726   2.179   3.194  0.00  0.00    +0.000 A 
ENDROOT
BRANCH   1  16
ATOM     11  C   LIG    1        0.066   1.535   2.278  0.00  0.00    +0.130 C 
ATOM     12  C   LIG    1        1.129   1.268   1.210  0.00  0.00    +0.030 C 
ATOM     13  C   LIG    1        0.620   1.761  -0.147  0.00  0.00    +0.010 C 
ATOM     14  C   LIG    1       -0.699   1.055  -0.475  0.00  0.00    +0.020 C 
ATOM     15  C   LIG    1       -1.710   1.329   0.640  0.00  0.00    +0.180 C 
ATOM     16  N   LIG    1       -1.176   0.838   1.917  0.00  0.00    -0.500 N 
BRANCH  11  18
ATOM     17  C   LIG    1        1.840   1.774   4.020  0.00  0.00    +0.020 C 
ATOM     18  C   LIG    1        0.563   1.026   3.632  0.00  0.00    +0.010 C 
ENDBRANCH  11  18
ENDBRANCH   1  16
BRANCH   9  19
ATOM     19  S   LIG    1       -5.633  -0.093   6.632  0.00  0.00    +2.710 S 
ATOM     20  O   LIG    1       -5.654  -1.070   5.600  0.00  0.00    -0.920 OA
ATOM     21  O   LIG    1       -6.796   0.320   7.335  0.00  0.00    -0.940 OA
BRANCH  19  22
ATOM     22  C   LIG    1       -4.499  -0.678   7.847  0.00  0.00    -0.500 A 
ATOM     23  C   LIG    1       -3.490  -1.556   7.639  0.00  0.00    +0.020 A 
ATOM     24  C   LIG    1       -2.831  -1.750   8.858  0.00  0.00    +0.230 A 
ATOM     25  N   LIG    1       -3.429  -1.022   9.766  0.00  0.00    -0.250 NA
ATOM     26  N   LIG    1       -4.485  -0.336   9.152  0.00  0.00    -0.310 N 
ATOM     27  C   LIG    1       -5.410   0.589   9.811  0.00  0.00    +0.360 C 
ENDBRANCH  19  22
ENDBRANCH   9  19
TORSDOF 4
