REMARK  Name = ZINCc70000002tBP.0
REMARK                            x       y       z     vdW  Elec       q    Type
REMARK                         _______ _______ _______ _____ _____    ______ ____
ROOT
ATOM      1  C   LIG    1       -1.105  -0.842   0.014  0.00  0.00    -0.190 A 
ATOM      2  C   LIG    1        0.002  -0.004   0.002  0.00  0.00    +0.400 A 
ATOM      3  N   LIG    1        1.091  -0.782  -0.012  0.00  0.00    -0.540 NA
ATOM      4  C   LIG    1        0.739  -2.041  -0.015  0.00  0.00    +0.490 A 
ATOM      5  N   LIG    1       -0.603  -2.137  -0.003  0.00  0.00    -0.440 N 
ATOM      6  C   LIG    1       -1.386  -3.375  -0.002  0.00  0.00    +0.340 C 
ENDROOT
BRANCH   2   7
ATOM      7  N   LIG    1       -0.017   1.383   0.010  0.00  0.00    -0.820 N 
ATOM      8  H   LIG    1       -0.863   1.856   0.016  0.00  0.00    +0.420 HD
ATOM      9  H   LIG    1        0.817   1.879   0.004  0.00  0.00    +0.410 HD
ENDBRANCH   2   7
BRANCH   1  10
ATOM     10  C   LIG    1       -2.465  -0.456   0.035  0.00  0.00    +0.550 C 
ATOM     11  O   LIG    1       -2.763   0.724   0.044  0.00  0.00    -0.530 OA
BRANCH  10  12
ATOM     12  O   LIG    1       -3.434  -1.397   0.045  0.00  0.00    -0.360 OA
BRANCH  12  14
ATOM     13  C   LIG    1       -5.734  -2.136   0.074  0.00  0.00    +0.070 C 
ATOM     14  C   LIG    1       -4.786  -0.935   0.066  0.00  0.00    +0.200 C 
ENDBRANCH  12  14
ENDBRANCH  10  12
ENDBRANCH   1  10
TORSDOF 4
