REMARK  Name = ZINCpk000000ozCJ.0
REMARK                            x       y       z     vdW  Elec       q    Type
REMARK                         _______ _______ _______ _____ _____    ______ ____
ROOT
ATOM      1  N   LIG    1        1.184   4.136   4.376  0.00  0.00    -0.520 NA
ATOM      2  C   LIG    1        2.395   3.782   3.623  0.00  0.00    +0.170 C 
ATOM      3  C   LIG    1        2.421   4.566   2.307  0.00  0.00    +0.310 C 
ATOM      4  N   LIG    1        1.155   4.329   1.596  0.00  0.00    -1.000 NA
ATOM      5  C   LIG    1       -0.103   4.537   2.329  0.00  0.00    +0.310 C 
ATOM      6  C   LIG    1       -0.030   3.749   3.646  0.00  0.00    +0.180 C 
ENDROOT
BRANCH   4   7
ATOM      7  S   LIG    1        1.147   3.847   0.012  0.00  0.00    +2.690 S 
ATOM      8  O   LIG    1       -0.113   4.235  -0.518  0.00  0.00    -0.950 OA
ATOM      9  O   LIG    1        2.386   4.269  -0.542  0.00  0.00    -0.950 OA
BRANCH   7  10
ATOM     10  C   LIG    1        1.171   2.086   0.002  0.00  0.00    -0.680 A 
ATOM     11  C   LIG    1       -0.017   1.378   0.010  0.00  0.00    +0.120 A 
ATOM     12  C   LIG    1        0.002  -0.004   0.002  0.00  0.00    -0.010 A 
ATOM     13  C   LIG    1        1.208  -0.679  -0.014  0.00  0.00    -0.030 A 
ATOM     14  C   LIG    1        2.396   0.029  -0.021  0.00  0.00    -0.110 A 
ATOM     15  C   LIG    1        3.711  -0.707  -0.038  0.00  0.00    +0.100 C 
ATOM     16  C   LIG    1        1.229  -2.186  -0.022  0.00  0.00    +0.100 C 
ATOM     17  C   LIG    1        2.377   1.411  -0.014  0.00  0.00    +0.120 A 
ENDBRANCH   7  10
ENDBRANCH   4   7
BRANCH   1  18
ATOM     18  C   LIG    1        1.205   3.539   5.718  0.00  0.00    +0.210 C 
BRANCH  18  20
ATOM     19  N   LIG    1       -0.094   3.712   7.816  0.00  0.00    -0.620 N 
ATOM     20  C   LIG    1        0.083   4.116   6.542  0.00  0.00    +0.520 C 
ATOM     21  O   LIG    1       -0.661   4.943   6.059  0.00  0.00    -0.520 OA
BRANCH  19  23
ATOM     22  C   LIG    1       -2.439   3.416   8.441  0.00  0.00    +0.010 C 
ATOM     23  C   LIG    1       -1.185   4.273   8.617  0.00  0.00    +0.270 C 
ENDBRANCH  19  23
BRANCH  19  24
ATOM     24  C   LIG    1        0.805   2.713   8.399  0.00  0.00    +0.260 C 
ATOM     25  C   LIG    1        1.993   3.418   9.057  0.00  0.00    +0.020 C 
ENDBRANCH  19  24
ENDBRANCH  18  20
ENDBRANCH   1  18
TORSDOF 6
