REMARK  Name = ZINCyk00000008xD.0
REMARK                            x       y       z     vdW  Elec       q    Type
REMARK                         _______ _______ _______ _____ _____    ______ ____
ROOT
ATOM      1  N   LIG    1        0.110  -7.690   4.895  0.00  0.00    -0.670 N 
ATOM      2  H   LIG    1        0.381  -8.195   4.112  0.00  0.00    +0.410 HD
ATOM      3  C   LIG    1       -0.068  -6.357   4.809  0.00  0.00    +0.570 C 
ATOM      4  O   LIG    1       -0.500  -5.739   5.762  0.00  0.00    -0.510 OA
ENDROOT
BRANCH   3   5
ATOM      5  C   LIG    1        0.263  -5.646   3.555  0.00  0.00    -0.150 A 
ATOM      6  C   LIG    1        0.760  -6.357   2.460  0.00  0.00    +0.090 A 
ATOM      7  C   LIG    1        1.069  -5.694   1.288  0.00  0.00    +0.050 A 
ATOM      8  C   LIG    1        0.889  -4.332   1.196  0.00  0.00    -0.050 A 
ATOM      9  C   LIG    1        1.118  -3.335   0.086  0.00  0.00    +0.360 C 
ATOM     10  N   LIG    1        0.731  -2.026   0.623  0.00  0.00    -0.600 N 
ATOM     11  C   LIG    1        0.310  -2.184   1.889  0.00  0.00    +0.570 C 
ATOM     12  O   LIG    1       -0.083  -1.286   2.608  0.00  0.00    -0.510 OA
ATOM     13  C   LIG    1        0.393  -3.604   2.282  0.00  0.00    -0.160 A 
ATOM     14  C   LIG    1        0.079  -4.268   3.467  0.00  0.00    +0.170 A 
BRANCH  10  15
ATOM     15  C   LIG    1        0.789  -0.755  -0.104  0.00  0.00    +0.290 C 
ATOM     16  C   LIG    1        1.713   0.217   0.638  0.00  0.00    +0.060 C 
ATOM     17  C   LIG    1        1.670   1.572  -0.077  0.00  0.00    +0.100 C 
ATOM     18  C   LIG    1        0.241   2.042  -0.161  0.00  0.00    +0.520 C 
ATOM     19  N   LIG    1       -0.776   1.169  -0.214  0.00  0.00    -0.670 N 
ATOM     20  H   LIG    1       -1.681   1.512  -0.280  0.00  0.00    +0.420 HD
ATOM     21  O   LIG    1        0.007   3.231  -0.180  0.00  0.00    -0.490 OA
ATOM     22  C   LIG    1       -0.591  -0.159  -0.187  0.00  0.00    +0.520 C 
ATOM     23  O   LIG    1       -1.554  -0.894  -0.229  0.00  0.00    -0.480 OA
ENDBRANCH  10  15
ENDBRANCH   3   5
BRANCH   1  27
ATOM     24  C   LIG    1       -1.337 -11.699   7.346  0.00  0.00    +0.110 C 
ATOM     25  C   LIG    1       -0.799 -10.292   7.330  0.00  0.00    -0.020 A 
ATOM     26  C   LIG    1       -0.594  -9.644   6.129  0.00  0.00    +0.000 A 
ATOM     27  C   LIG    1       -0.098  -8.347   6.114  0.00  0.00    +0.170 A 
ATOM     28  C   LIG    1        0.198  -7.704   7.309  0.00  0.00    +0.020 A 
ATOM     29  C   LIG    1       -0.012  -8.349   8.511  0.00  0.00    +0.000 A 
ATOM     30  C   LIG    1       -0.508  -9.646   8.525  0.00  0.00    +0.040 A 
BRANCH  30  31
ATOM     31  N   LIG    1       -0.716 -10.302   9.743  0.00  0.00    -0.490 N 
ATOM     32  C   LIG    1       -1.743  -9.618  10.542  0.00  0.00    +0.210 C 
ATOM     33  C   LIG    1       -1.982 -10.399  11.836  0.00  0.00    +0.280 C 
ATOM     34  N   LIG    1       -0.727 -10.487  12.594  0.00  0.00    -0.510 N 
ATOM     35  C   LIG    1        0.281 -11.194  11.794  0.00  0.00    +0.280 C 
ATOM     36  H   LIG    1       -0.396  -9.558  12.806  0.00  0.00    +0.430 HD
ATOM     37  H   LIG    1       -0.888 -10.991  13.453  0.00  0.00    +0.430 HD
ATOM     38  C   LIG    1        0.539 -10.421  10.499  0.00  0.00    +0.210 C 
ENDBRANCH  30  31
ENDBRANCH   1  27
TORSDOF 4
