REMARK  Name = ZINCvU00000009O0.0
REMARK                            x       y       z     vdW  Elec       q    Type
REMARK                         _______ _______ _______ _____ _____    ______ ____
ROOT
ATOM      1  C   LIG    1        1.242   2.093   0.001  0.00  0.00    +0.280 C 
ATOM      2  N   LIG    1       -0.016   1.344   0.009  0.00  0.00    -0.600 N 
ATOM      3  C   LIG    1        0.002  -0.004   0.002  0.00  0.00    +0.550 C 
ATOM      4  O   LIG    1       -1.040  -0.625   0.009  0.00  0.00    -0.520 OA
ENDROOT
BRANCH   3   5
ATOM      5  C   LIG    1        1.317  -0.740  -0.015  0.00  0.00    +0.050 C 
BRANCH   5   6
ATOM      6  C   LIG    1        1.830  -0.884   1.395  0.00  0.00    -0.090 A 
ATOM      7  C   LIG    1        1.077  -1.558   2.339  0.00  0.00    +0.040 A 
ATOM      8  C   LIG    1        1.548  -1.695   3.631  0.00  0.00    +0.010 A 
ATOM      9  C   LIG    1        2.769  -1.150   3.982  0.00  0.00    +0.010 A 
ATOM     10  C   LIG    1        3.520  -0.471   3.040  0.00  0.00    +0.010 A 
ATOM     11  C   LIG    1        3.050  -0.339   1.747  0.00  0.00    +0.010 A 
ENDBRANCH   5   6
BRANCH   5  12
ATOM     12  S   LIG    1        1.081  -2.384  -0.744  0.00  0.00    -0.030 S 
BRANCH  12  13
ATOM     13  C   LIG    1        2.721  -3.025  -0.816  0.00  0.00    -0.100 A 
ATOM     14  C   LIG    1        3.789  -2.258  -0.364  0.00  0.00    -0.010 A 
ATOM     15  C   LIG    1        5.072  -2.765  -0.417  0.00  0.00    +0.020 A 
ATOM     16  C   LIG    1        5.296  -4.031  -0.929  0.00  0.00    +0.000 A 
ATOM     17  C   LIG    1        4.237  -4.795  -1.383  0.00  0.00    +0.030 A 
ATOM     18  C   LIG    1        2.950  -4.295  -1.329  0.00  0.00    +0.030 A 
ENDBRANCH  12  13
ENDBRANCH   5  12
ENDBRANCH   3   5
BRANCH   2  19
ATOM     19  C   LIG    1       -1.295   2.059   0.019  0.00  0.00    +0.380 C 
BRANCH  19  20
ATOM     20  C   LIG    1       -1.726   2.296   1.444  0.00  0.00    -0.260 A 
ATOM     21  C   LIG    1       -2.493   1.469   2.192  0.00  0.00    +0.250 A 
ATOM     22  N   LIG    1       -2.649   2.039   3.405  0.00  0.00    -0.370 N 
ATOM     23  N   LIG    1       -1.963   3.260   3.400  0.00  0.00    -0.290 NA
ATOM     24  C   LIG    1       -1.410   3.413   2.224  0.00  0.00    +0.240 A 
BRANCH  22  25
ATOM     25  C   LIG    1       -3.407   1.481   4.528  0.00  0.00    +0.360 C 
BRANCH  25  26
ATOM     26  C   LIG    1       -2.521   1.404   5.744  0.00  0.00    -0.110 A 
ATOM     27  C   LIG    1       -1.778   0.264   5.987  0.00  0.00    +0.020 A 
ATOM     28  C   LIG    1       -0.961   0.196   7.100  0.00  0.00    +0.000 A 
ATOM     29  C   LIG    1       -0.895   1.264   7.976  0.00  0.00    +0.010 A 
ATOM     30  C   LIG    1       -1.642   2.401   7.735  0.00  0.00    +0.000 A 
ATOM     31  C   LIG    1       -2.455   2.472   6.620  0.00  0.00    +0.040 A 
ENDBRANCH  25  26
ENDBRANCH  22  25
ENDBRANCH  19  20
ENDBRANCH   2  19
TORSDOF 8
