REMARK  Name = ZINCpe00000VVGMW.0
REMARK                            x       y       z     vdW  Elec       q    Type
REMARK                         _______ _______ _______ _____ _____    ______ ____
ROOT
ATOM      1  C   LIG    1        4.875   0.035   0.295  0.00  0.00    +0.340 C 
ENDROOT
BRANCH   1  11
ATOM      2  C   LIG    1        2.413  -4.127  -0.362  0.00  0.00    +0.110 C 
ATOM      3  C   LIG    1        2.333  -2.644  -0.730  0.00  0.00    +0.180 C 
ATOM      4  O   LIG    1        1.248  -2.036  -0.024  0.00  0.00    -0.300 OA
ATOM      5  C   LIG    1        1.211  -0.677  -0.013  0.00  0.00    +0.080 A 
ATOM      6  C   LIG    1        0.002  -0.004   0.002  0.00  0.00    +0.030 A 
ATOM      7  C   LIG    1       -0.017   1.379   0.010  0.00  0.00    +0.020 A 
ATOM      8  C   LIG    1        1.168   2.092   0.002  0.00  0.00    +0.020 A 
ATOM      9  C   LIG    1        2.380   1.427  -0.012  0.00  0.00    +0.000 A 
ATOM     10  C   LIG    1        2.406   0.042  -0.020  0.00  0.00    +0.110 A 
ATOM     11  N   LIG    1        3.624  -0.652  -0.034  0.00  0.00    -0.540 N 
ATOM     12  C   LIG    1        3.626  -1.964  -0.356  0.00  0.00    +0.500 C 
ATOM     13  O   LIG    1        4.663  -2.592  -0.346  0.00  0.00    -0.500 OA
ENDBRANCH   1  11
BRANCH   1  14
ATOM     14  C   LIG    1        5.128  -0.066   1.778  0.00  0.00    +0.480 C 
ATOM     15  O   LIG    1        4.338  -0.656   2.491  0.00  0.00    -0.530 OA
BRANCH  14  16
ATOM     16  N   LIG    1        6.213   0.488   2.305  0.00  0.00    -0.660 NA
ATOM     17  C   LIG    1        6.437   0.398   3.620  0.00  0.00    +0.550 C 
ATOM     18  N   LIG    1        5.628  -0.237   4.532  0.00  0.00    -0.350 NA
ATOM     19  N   LIG    1        6.246  -0.082   5.781  0.00  0.00    -0.260 N 
ATOM     20  C   LIG    1        5.913  -0.490   7.024  0.00  0.00    +0.390 C 
ATOM     21  C   LIG    1        6.733  -0.181   8.066  0.00  0.00    -0.010 C 
ATOM     22  C   LIG    1        7.897   0.551   7.821  0.00  0.00    +0.420 C 
ATOM     23  N   LIG    1        8.192   0.934   6.595  0.00  0.00    -0.470 NA
ATOM     24  C   LIG    1        7.391   0.633   5.571  0.00  0.00    +0.480 C 
ATOM     25  N   LIG    1        7.482   0.903   4.265  0.00  0.00    -0.550 N 
ATOM     26  H   LIG    1        8.206   1.397   3.850  0.00  0.00    +0.460 HD
ENDBRANCH  14  16
ENDBRANCH   1  14
TORSDOF 3
