REMARK  Name = ZINCrg000009DEsv.0
REMARK                            x       y       z     vdW  Elec       q    Type
REMARK                         _______ _______ _______ _____ _____    ______ ____
ROOT
ATOM      1  C   LIG    1        3.220  -0.712  -1.500  0.00  0.00    +0.560 C 
ATOM      2  N   LIG    1        2.162   0.010  -1.918  0.00  0.00    -0.610 N 
ATOM      3  C   LIG    1        0.797  -0.519  -1.791  0.00  0.00    +0.300 C 
ATOM      4  C   LIG    1       -0.061   0.506  -1.043  0.00  0.00    +0.060 C 
ATOM      5  C   LIG    1        0.025   1.856  -1.758  0.00  0.00    +0.220 C 
ATOM      6  C   LIG    1        1.475   2.346  -1.754  0.00  0.00    +0.030 C 
ATOM      7  C   LIG    1        2.351   1.342  -2.510  0.00  0.00    +0.280 C 
ATOM      8  O   LIG    1        3.062  -1.853  -1.111  0.00  0.00    -0.530 OA
ENDROOT
BRANCH   1  12
ATOM      9  C   LIG    1        7.107   0.999  -1.543  0.00  0.00    +0.160 A 
ATOM     10  C   LIG    1        6.944  -0.359  -1.799  0.00  0.00    +0.000 A 
ATOM     11  C   LIG    1        5.685  -0.917  -1.785  0.00  0.00    +0.090 A 
ATOM     12  C   LIG    1        4.571  -0.117  -1.515  0.00  0.00    -0.130 A 
ATOM     13  C   LIG    1        4.739   1.247  -1.263  0.00  0.00    +0.060 A 
ATOM     14  C   LIG    1        6.000   1.798  -1.273  0.00  0.00    +0.020 A 
BRANCH   9  16
ATOM     15  C   LIG    1        8.708   2.470  -2.496  0.00  0.00    +0.550 C 
ATOM     16  N   LIG    1        8.383   1.560  -1.557  0.00  0.00    -0.580 N 
ATOM     17  C   LIG    1        9.370   1.161  -0.550  0.00  0.00    +0.300 C 
ATOM     18  O   LIG    1        7.864   2.869  -3.274  0.00  0.00    -0.530 OA
BRANCH  15  20
ATOM     19  C   LIG    1       10.407   3.878  -3.506  0.00  0.00    +0.160 C 
ATOM     20  C   LIG    1       10.085   2.980  -2.579  0.00  0.00    -0.090 C 
ENDBRANCH  15  20
ENDBRANCH   9  16
ENDBRANCH   1  12
BRANCH   5  21
ATOM     21  C   LIG    1       -0.846   2.858  -1.044  0.00  0.00    +0.240 A 
ATOM     22  N   LIG    1       -0.429   3.926  -0.414  0.00  0.00    -0.530 NA
ATOM     23  C   LIG    1       -1.469   4.584   0.097  0.00  0.00    +0.420 A 
ATOM     24  N   LIG    1       -2.566   3.937  -0.196  0.00  0.00    -0.320 NA
ATOM     25  N   LIG    1       -2.185   2.808  -0.939  0.00  0.00    -0.360 N 
ATOM     26  C   LIG    1       -3.070   1.779  -1.490  0.00  0.00    +0.370 C 
ENDBRANCH   5  21
BRANCH   5  27
ATOM     27  O   LIG    1       -0.425   1.710  -3.106  0.00  0.00    -0.540 OA
ATOM     28  H   LIG    1       -0.398   2.529  -3.620  0.00  0.00    +0.390 HD
ENDBRANCH   5  27
TORSDOF 5
