REMARK  Name = ZINCnE000001Qgzl.1
REMARK                            x       y       z     vdW  Elec       q    Type
REMARK                         _______ _______ _______ _____ _____    ______ ____
ROOT
ATOM      1  N   LIG    1        1.143   1.901   0.001  0.00  0.00    -0.700 NA
ATOM      2  C   LIG    1       -0.014   1.212   0.009  0.00  0.00    +0.650 C 
ATOM      3  N   LIG    1       -1.191   1.870   0.018  0.00  0.00    -0.740 N 
ATOM      4  H   LIG    1       -1.204   2.840   0.023  0.00  0.00    +0.390 HD
ATOM      5  O   LIG    1        0.002  -0.004   0.002  0.00  0.00    -0.620 OA
ENDROOT
BRANCH   1   9
ATOM      6  C   LIG    1        4.673   0.392  -0.040  0.00  0.00    -0.320 A 
ATOM      7  C   LIG    1        3.707  -0.549  -0.035  0.00  0.00    +0.260 A 
ATOM      8  N   LIG    1        2.482  -0.068  -0.016  0.00  0.00    -0.570 NA
ATOM      9  C   LIG    1        2.355   1.224  -0.014  0.00  0.00    +0.360 A 
ATOM     10  S   LIG    1        3.892   1.971  -0.025  0.00  0.00    +0.030 S 
BRANCH   6  17
ATOM     11  C   LIG    1        6.338   1.753  -1.976  0.00  0.00    +0.100 C 
ATOM     12  C   LIG    1        6.943   0.793  -0.984  0.00  0.00    -0.090 A 
ATOM     13  C   LIG    1        8.302   0.556  -0.993  0.00  0.00    +0.000 A 
ATOM     14  C   LIG    1        8.859  -0.325  -0.082  0.00  0.00    -0.030 A 
ATOM     15  C   LIG    1        8.059  -0.973   0.841  0.00  0.00    +0.000 A 
ATOM     16  C   LIG    1        6.699  -0.741   0.864  0.00  0.00    +0.000 A 
ATOM     17  C   LIG    1        6.130   0.142  -0.055  0.00  0.00    +0.040 A 
ENDBRANCH   6  17
ENDBRANCH   1   9
BRANCH   3  18
ATOM     18  C   LIG    1       -2.449   1.120   0.020  0.00  0.00    +0.250 C 
BRANCH  18  19
ATOM     19  C   LIG    1       -3.626   2.098   0.031  0.00  0.00    -0.020 C 
ATOM     20  C   LIG    1       -3.692   2.848   1.377  0.00  0.00    +0.020 C 
ATOM     21  C   LIG    1       -5.184   3.000   1.723  0.00  0.00    -0.030 C 
ATOM     22  C   LIG    1       -5.972   2.338   0.574  0.00  0.00    +0.160 C 
ATOM     23  C   LIG    1       -4.969   1.331  -0.047  0.00  0.00    +0.040 C 
BRANCH  22  24
ATOM     24  O   LIG    1       -7.119   1.655   1.083  0.00  0.00    -0.570 OA
ATOM     25  H   LIG    1       -7.753   2.232   1.532  0.00  0.00    +0.370 HD
ENDBRANCH  22  24
ENDBRANCH  18  19
ENDBRANCH   3  18
TORSDOF 5
