REMARK  Name = ZINCqH0000051eqH.0
REMARK                            x       y       z     vdW  Elec       q    Type
REMARK                         _______ _______ _______ _____ _____    ______ ____
ROOT
ATOM      1  O   LIG    1       -4.620  -1.204  -2.280  0.00  0.00    -0.500 OA
ATOM      2  C   LIG    1       -4.796  -1.971  -1.363  0.00  0.00    +0.470 C 
ENDROOT
BRANCH   2   3
ATOM      3  O   LIG    1       -5.253  -3.210  -1.603  0.00  0.00    -0.350 OA
BRANCH   3   4
ATOM      4  C   LIG    1       -5.515  -3.560  -2.987  0.00  0.00    +0.290 C 
BRANCH   4   5
ATOM      5  C   LIG    1       -6.018  -4.979  -3.060  0.00  0.00    -0.090 A 
ATOM      6  C   LIG    1       -6.156  -5.715  -1.924  0.00  0.00    +0.040 A 
ATOM      7  C   LIG    1       -6.625  -7.027  -1.971  0.00  0.00    +0.010 A 
ATOM      8  C   LIG    1       -6.949  -7.613  -3.156  0.00  0.00    +0.030 A 
ATOM      9  C   LIG    1       -6.815  -6.886  -4.351  0.00  0.00    -0.050 A 
ATOM     10  C   LIG    1       -7.140  -7.457  -5.593  0.00  0.00    +0.030 A 
ATOM     11  C   LIG    1       -6.997  -6.723  -6.730  0.00  0.00    +0.010 A 
ATOM     12  C   LIG    1       -6.533  -5.410  -6.683  0.00  0.00    +0.010 A 
ATOM     13  C   LIG    1       -6.209  -4.823  -5.498  0.00  0.00    +0.010 A 
ATOM     14  C   LIG    1       -6.343  -5.550  -4.303  0.00  0.00    -0.040 A 
ENDBRANCH   4   5
ENDBRANCH   3   4
ENDBRANCH   2   3
BRANCH   2  15
ATOM     15  C   LIG    1       -4.502  -1.536   0.050  0.00  0.00    +0.220 C 
BRANCH  15  16
ATOM     16  C   LIG    1       -4.005  -0.114   0.044  0.00  0.00    +0.110 A 
ATOM     17  C   LIG    1       -4.827   0.938   0.049  0.00  0.00    -0.080 A 
ATOM     18  S   LIG    1       -3.845   2.400   0.039  0.00  0.00    +0.150 S 
ATOM     19  C   LIG    1       -2.420   1.454   0.029  0.00  0.00    +0.280 A 
ATOM     20  N   LIG    1       -2.722   0.194   0.028  0.00  0.00    -0.480 NA
BRANCH  19  21
ATOM     21  N   LIG    1       -1.127   1.964   0.018  0.00  0.00    -0.540 N 
ATOM     22  C   LIG    1       -0.800   3.394   0.017  0.00  0.00    +0.270 C 
ATOM     23  C   LIG    1        0.685   3.479   0.433  0.00  0.00    +0.060 C 
ATOM     24  C   LIG    1        1.214   2.092   0.002  0.00  0.00    +0.070 C 
ATOM     25  C   LIG    1       -0.014   1.209   0.009  0.00  0.00    +0.520 C 
ATOM     26  O   LIG    1        0.002  -0.004   0.002  0.00  0.00    -0.470 OA
ENDBRANCH  19  21
ENDBRANCH  15  16
ENDBRANCH   2  15
TORSDOF 6
