REMARK  Name = ZINCnE000001KQL4.0
REMARK                            x       y       z     vdW  Elec       q    Type
REMARK                         _______ _______ _______ _____ _____    ______ ____
ROOT
ATOM      1  N   LIG    1       -2.460   3.832   0.046  0.00  0.00    -1.070 NA
ENDROOT
BRANCH   1   5
ATOM      2  C   LIG    1        1.179   1.786   0.000  0.00  0.00    +0.070 A 
ATOM      3  C   LIG    1       -0.013   1.076   0.008  0.00  0.00    -0.110 A 
ATOM      4  C   LIG    1       -1.221   1.752   0.017  0.00  0.00    +0.110 A 
ATOM      5  C   LIG    1       -1.238   3.145   0.030  0.00  0.00    +0.250 A 
ATOM      6  C   LIG    1       -0.044   3.851   0.022  0.00  0.00    -0.080 A 
ATOM      7  C   LIG    1        1.161   3.173   0.008  0.00  0.00    -0.030 A 
ATOM      8 CL   LIG    1        2.654   4.059  -0.003  0.00  0.00    -0.090 Cl
BRANCH   2  10
ATOM      9  C   LIG    1        2.309  -0.307  -0.022  0.00  0.00    +0.220 C 
ATOM     10  O   LIG    1        2.365   1.121  -0.015  0.00  0.00    -0.310 OA
ENDBRANCH   2  10
BRANCH   4  11
ATOM     11  O   LIG    1       -2.391   1.057   0.019  0.00  0.00    -0.290 OA
ATOM     12  C   LIG    1       -2.298  -0.369   0.011  0.00  0.00    +0.200 C 
ENDBRANCH   4  11
ENDBRANCH   1   5
BRANCH   1  13
ATOM     13  S   LIG    1       -2.479   5.488   0.054  0.00  0.00    +2.600 S 
ATOM     14  O   LIG    1       -1.951   5.902  -1.198  0.00  0.00    -1.020 OA
ATOM     15  O   LIG    1       -1.927   5.889   1.301  0.00  0.00    -1.020 OA
BRANCH  13  16
ATOM     16  C   LIG    1       -4.168   5.990   0.073  0.00  0.00    -0.600 A 
ATOM     17  C   LIG    1       -4.818   6.181   1.278  0.00  0.00    +0.160 A 
ATOM     18  C   LIG    1       -6.143   6.576   1.296  0.00  0.00    +0.000 A 
ATOM     19  C   LIG    1       -6.819   6.780   0.106  0.00  0.00    +0.100 A 
ATOM     20  C   LIG    1       -6.167   6.588  -1.103  0.00  0.00    +0.040 A 
ATOM     21  F   LIG    1       -6.826   6.787  -2.265  0.00  0.00    -0.130 F 
ATOM     22  F   LIG    1       -8.114   7.165   0.122  0.00  0.00    -0.130 F 
ATOM     23  C   LIG    1       -4.840   6.198  -1.117  0.00  0.00    +0.130 A 
ENDBRANCH  13  16
ENDBRANCH   1  13
TORSDOF 5
