REMARK  Name = ZINCpk00000KfLJp.0
REMARK                            x       y       z     vdW  Elec       q    Type
REMARK                         _______ _______ _______ _____ _____    ______ ____
ROOT
ATOM      1  N   LIG    1       -4.898  -0.309   0.049  0.00  0.00    -0.720 N 
ATOM      2  H   LIG    1       -4.914   0.661   0.055  0.00  0.00    +0.410 HD
ATOM      3  C   LIG    1       -6.054  -1.002   0.057  0.00  0.00    +0.530 C 
ATOM      4  O   LIG    1       -6.034  -2.214   0.050  0.00  0.00    -0.520 OA
ENDROOT
BRANCH   3   5
ATOM      5  C   LIG    1       -7.371  -0.270   0.074  0.00  0.00    +0.000 C 
ATOM      6  C   LIG    1       -7.574   0.472   1.415  0.00  0.00    +0.080 C 
ATOM      7  C   LIG    1       -9.053   0.327   1.699  0.00  0.00    +0.520 C 
ATOM      8  N   LIG    1       -9.577  -0.646   0.935  0.00  0.00    -0.620 N 
ATOM      9  O   LIG    1       -9.675   0.993   2.500  0.00  0.00    -0.520 OA
ATOM     10  C   LIG    1       -8.555  -1.262   0.081  0.00  0.00    +0.300 C 
BRANCH   8  11
ATOM     11  C   LIG    1      -10.988  -1.042   0.953  0.00  0.00    +0.330 C 
BRANCH  11  12
ATOM     12  C   LIG    1      -11.195  -2.144   1.993  0.00  0.00    -0.060 C 
ATOM     13  C   LIG    1      -11.649  -3.516   1.489  0.00  0.00    +0.010 C 
ATOM     14  C   LIG    1      -12.628  -2.616   2.247  0.00  0.00    +0.030 C 
ENDBRANCH  11  12
ENDBRANCH   8  11
ENDBRANCH   3   5
BRANCH   1  15
ATOM     15  C   LIG    1       -3.617  -1.020   0.033  0.00  0.00    +0.270 C 
BRANCH  15  16
ATOM     16  C   LIG    1       -2.471  -0.007   0.027  0.00  0.00    +0.270 C 
BRANCH  16  17
ATOM     17  N   LIG    1       -1.190  -0.719   0.010  0.00  0.00    -0.730 N 
ATOM     18  H   LIG    1       -1.175  -1.689   0.005  0.00  0.00    +0.410 HD
BRANCH  17  25
ATOM     19  C   LIG    1        1.231  -0.683  -0.013  0.00  0.00    -0.150 A 
ATOM     20  C   LIG    1        2.424   0.049  -0.021  0.00  0.00    +0.200 A 
ATOM     21  C   LIG    1        2.383   1.430  -0.013  0.00  0.00    -0.070 A 
ATOM     22  C   LIG    1        1.168   2.093   0.002  0.00  0.00    +0.130 A 
ATOM     23  C   LIG    1       -0.017   1.384   0.010  0.00  0.00    -0.070 A 
ATOM     24  F   LIG    1        3.612  -0.593  -0.036  0.00  0.00    -0.120 F 
ATOM     25  C   LIG    1        0.002  -0.004   0.002  0.00  0.00    +0.290 A 
BRANCH  19  27
ATOM     26  N   LIG    1        1.290  -3.250  -0.027  0.00  0.00    -0.410 NA
ATOM     27  C   LIG    1        1.264  -2.114  -0.021  0.00  0.00    +0.250 C 
ENDBRANCH  19  27
ENDBRANCH  17  25
ENDBRANCH  16  17
ENDBRANCH  15  16
ENDBRANCH   1  15
TORSDOF 8
