REMARK  Name = ZINCrD00000hQ4iN.0
REMARK                            x       y       z     vdW  Elec       q    Type
REMARK                         _______ _______ _______ _____ _____    ______ ____
ROOT
ATOM      1  N   LIG    1        5.317   1.494   0.812  0.00  0.00    -0.610 N 
ATOM      2  C   LIG    1        4.571   2.453   0.230  0.00  0.00    +0.520 C 
ATOM      3  O   LIG    1        5.051   3.152  -0.637  0.00  0.00    -0.530 OA
ENDROOT
BRANCH   2   4
ATOM      4  C   LIG    1        3.140   2.657   0.656  0.00  0.00    +0.000 C 
ATOM      5  C   LIG    1        2.764   4.133   0.492  0.00  0.00    +0.060 C 
ATOM      6  C   LIG    1        1.405   4.392   1.153  0.00  0.00    +0.130 C 
ATOM      7  C   LIG    1        0.428   3.354   0.658  0.00  0.00    +0.010 A 
ATOM      8  C   LIG    1        0.793   2.205   0.049  0.00  0.00    -0.030 A 
ATOM      9  N   LIG    1       -0.351   1.531  -0.253  0.00  0.00    -0.550 N 
ATOM     10  H   LIG    1       -0.414   0.671  -0.696  0.00  0.00    +0.420 HD
ATOM     11  C   LIG    1       -1.384   2.293   0.177  0.00  0.00    +0.220 A 
ATOM     12  N   LIG    1       -0.905   3.379   0.726  0.00  0.00    -0.480 NA
ATOM     13  C   LIG    1        2.218   1.796  -0.218  0.00  0.00    +0.140 C 
BRANCH  11  14
ATOM     14  C   LIG    1       -2.844   1.945   0.048  0.00  0.00    +0.090 C 
ATOM     15  C   LIG    1       -3.024   0.433   0.204  0.00  0.00    +0.030 C 
ATOM     16  C   LIG    1       -3.352   2.380  -1.329  0.00  0.00    +0.030 C 
ENDBRANCH  11  14
ENDBRANCH   2   4
BRANCH   1  17
ATOM     17  C   LIG    1        4.705   0.571   1.772  0.00  0.00    +0.290 C 
BRANCH  17  18
ATOM     18  C   LIG    1        4.315  -0.724   1.056  0.00  0.00    +0.150 C 
BRANCH  18  20
ATOM     19  C   LIG    1        5.241  -2.632  -0.061  0.00  0.00    +0.200 C 
ATOM     20  O   LIG    1        5.495  -1.403   0.623  0.00  0.00    -0.380 OA
ENDBRANCH  18  20
ENDBRANCH  17  18
ENDBRANCH   1  17
BRANCH   1  21
ATOM     21  C   LIG    1        6.740   1.373   0.486  0.00  0.00    +0.290 C 
BRANCH  21  22
ATOM     22  C   LIG    1        7.558   2.236   1.449  0.00  0.00    +0.050 C 
BRANCH  22  23
ATOM     23  C   LIG    1        9.022   2.112   1.113  0.00  0.00    -0.080 A 
ATOM     24  C   LIG    1        9.789   1.132   1.715  0.00  0.00    +0.010 A 
ATOM     25  C   LIG    1       11.131   1.016   1.404  0.00  0.00    +0.000 A 
ATOM     26  C   LIG    1       11.708   1.885   0.498  0.00  0.00    +0.000 A 
ATOM     27  C   LIG    1       10.943   2.869  -0.100  0.00  0.00    +0.000 A 
ATOM     28  C   LIG    1        9.600   2.983   0.208  0.00  0.00    +0.010 A 
ENDBRANCH  22  23
ENDBRANCH  21  22
ENDBRANCH   1  21
TORSDOF 8
