REMARK  Name = ZINCrD00000hQ4iN.1
REMARK                            x       y       z     vdW  Elec       q    Type
REMARK                         _______ _______ _______ _____ _____    ______ ____
ROOT
ATOM      1  N   LIG    1       -0.940   1.717   0.358  0.00  0.00    -0.610 N 
ATOM      2  C   LIG    1        0.266   1.175   0.096  0.00  0.00    +0.520 C 
ATOM      3  O   LIG    1        0.342   0.140  -0.532  0.00  0.00    -0.530 OA
ENDROOT
BRANCH   2   4
ATOM      4  C   LIG    1        1.520   1.857   0.578  0.00  0.00    -0.010 C 
ATOM      5  C   LIG    1        2.593   0.805   0.871  0.00  0.00    +0.070 C 
ATOM      6  C   LIG    1        3.773   1.467   1.593  0.00  0.00    +0.120 C 
ATOM      7  C   LIG    1        4.172   2.699   0.823  0.00  0.00    -0.030 A 
ATOM      8  C   LIG    1        3.401   3.299  -0.109  0.00  0.00    +0.010 A 
ATOM      9  N   LIG    1        4.072   4.353  -0.582  0.00  0.00    -0.480 NA
ATOM     10  C   LIG    1        5.229   4.431   0.022  0.00  0.00    +0.220 A 
ATOM     11  N   LIG    1        5.327   3.413   0.908  0.00  0.00    -0.550 N 
ATOM     12  H   LIG    1        6.079   3.228   1.493  0.00  0.00    +0.420 HD
ATOM     13  C   LIG    1        2.027   2.818  -0.505  0.00  0.00    +0.140 C 
BRANCH  10  14
ATOM     14  C   LIG    1        6.280   5.482  -0.228  0.00  0.00    +0.090 C 
ATOM     15  C   LIG    1        7.669   4.858  -0.086  0.00  0.00    +0.030 C 
ATOM     16  C   LIG    1        6.122   6.613   0.791  0.00  0.00    +0.040 C 
ENDBRANCH  10  14
ENDBRANCH   2   4
BRANCH   1  17
ATOM     17  C   LIG    1       -1.028   3.026   1.009  0.00  0.00    +0.290 C 
BRANCH  17  18
ATOM     18  C   LIG    1       -1.217   4.112  -0.052  0.00  0.00    +0.160 C 
BRANCH  18  20
ATOM     19  C   LIG    1       -2.769   4.918  -1.691  0.00  0.00    +0.200 C 
ATOM     20  O   LIG    1       -2.491   3.949  -0.678  0.00  0.00    -0.390 OA
ENDBRANCH  18  20
ENDBRANCH  17  18
ENDBRANCH   1  17
BRANCH   1  21
ATOM     21  C   LIG    1       -2.162   0.997  -0.008  0.00  0.00    +0.290 C 
BRANCH  21  22
ATOM     22  C   LIG    1       -2.595   0.103   1.156  0.00  0.00    +0.050 C 
BRANCH  22  23
ATOM     23  C   LIG    1       -3.853  -0.637   0.779  0.00  0.00    -0.080 A 
ATOM     24  C   LIG    1       -5.089  -0.084   1.053  0.00  0.00    +0.010 A 
ATOM     25  C   LIG    1       -6.243  -0.761   0.704  0.00  0.00    +0.000 A 
ATOM     26  C   LIG    1       -6.159  -1.997   0.089  0.00  0.00    +0.000 A 
ATOM     27  C   LIG    1       -4.923  -2.552  -0.181  0.00  0.00    +0.000 A 
ATOM     28  C   LIG    1       -3.769  -1.873   0.164  0.00  0.00    +0.010 A 
ENDBRANCH  22  23
ENDBRANCH  21  22
ENDBRANCH   1  21
TORSDOF 8
