REMARK  Name = ZINCpe00000MJKwM.1
REMARK                            x       y       z     vdW  Elec       q    Type
REMARK                         _______ _______ _______ _____ _____    ______ ____
ROOT
ATOM      1  C   LIG    1        3.858   8.880  -1.274  0.00  0.00    +0.160 C 
ATOM      2  C   LIG    1        2.452   8.678  -0.660  0.00  0.00    +0.260 C 
ATOM      3  N   LIG    1        1.740   7.827  -1.642  0.00  0.00    -0.620 N 
ATOM      4  C   LIG    1        2.162   8.357  -2.959  0.00  0.00    +0.300 C 
ATOM      5  C   LIG    1        0.894   6.807  -1.393  0.00  0.00    +0.550 C 
ATOM      6  O   LIG    1        0.382   6.206  -2.313  0.00  0.00    -0.520 OA
ATOM      7  C   LIG    1        3.664   8.671  -2.790  0.00  0.00    +0.100 C 
ENDROOT
BRANCH   7   8
ATOM      8  C   LIG    1        4.025   9.924  -3.544  0.00  0.00    -0.010 A 
ATOM      9  C   LIG    1        3.237  11.006  -3.742  0.00  0.00    +0.160 A 
ATOM     10  N   LIG    1        3.973  11.882  -4.465  0.00  0.00    -0.390 N 
ATOM     11  H   LIG    1        3.681  12.758  -4.765  0.00  0.00    +0.450 HD
ATOM     12  N   LIG    1        5.123  11.352  -4.691  0.00  0.00    -0.070 NA
ATOM     13  N   LIG    1        5.187  10.184  -4.155  0.00  0.00    -0.250 NA
ENDBRANCH   7   8
BRANCH   1  15
ATOM     14  C   LIG    1        5.529   8.380   0.371  0.00  0.00    +0.200 C 
ATOM     15  O   LIG    1        4.777   7.917  -0.753  0.00  0.00    -0.370 OA
ENDBRANCH   1  15
BRANCH   5  16
ATOM     16  C   LIG    1        0.587   6.414   0.029  0.00  0.00    +0.180 C 
BRANCH  16  17
ATOM     17  C   LIG    1       -0.377   5.255   0.032  0.00  0.00    +0.110 A 
ATOM     18  N   LIG    1       -1.677   5.338   0.045  0.00  0.00    -0.240 NA
ATOM     19  N   LIG    1       -2.240   4.058   0.044  0.00  0.00    -0.410 N 
ATOM     20  C   LIG    1       -1.235   3.126   0.030  0.00  0.00    +0.130 A 
ATOM     21  C   LIG    1       -1.210   1.734   0.017  0.00  0.00    -0.020 A 
ATOM     22  C   LIG    1       -0.013   1.076   0.008  0.00  0.00    +0.060 A 
ATOM     23  C   LIG    1        1.186   1.778   0.000  0.00  0.00    -0.030 A 
ATOM     24  C   LIG    1        1.192   3.143   0.007  0.00  0.00    +0.090 A 
ATOM     25  C   LIG    1       -3.674   3.760   0.056  0.00  0.00    +0.350 C 
ATOM     26  C   LIG    1       -0.021   3.840   0.022  0.00  0.00    -0.170 A 
ENDBRANCH  16  17
ENDBRANCH   5  16
TORSDOF 4
