REMARK  Name = ZINCpe00000MJKwM.0
REMARK                            x       y       z     vdW  Elec       q    Type
REMARK                         _______ _______ _______ _____ _____    ______ ____
ROOT
ATOM      1  C   LIG    1       -0.756   1.594   1.262  0.00  0.00    +0.180 C 
ATOM      2  C   LIG    1       -0.013   1.086   0.008  0.00  0.00    +0.240 C 
ATOM      3  N   LIG    1       -0.743   1.582  -1.167  0.00  0.00    -0.620 N 
ATOM      4  C   LIG    1       -1.915   2.349  -0.707  0.00  0.00    +0.290 C 
ATOM      5  C   LIG    1       -0.398   1.373  -2.453  0.00  0.00    +0.540 C 
ATOM      6  O   LIG    1       -1.077   1.833  -3.346  0.00  0.00    -0.520 OA
ATOM      7  C   LIG    1       -1.545   2.819   0.722  0.00  0.00    +0.110 C 
ENDROOT
BRANCH   7   8
ATOM      8  C   LIG    1       -2.782   3.071   1.546  0.00  0.00    +0.010 A 
ATOM      9  N   LIG    1       -2.938   3.978   2.483  0.00  0.00    -0.270 NA
ATOM     10  N   LIG    1       -4.131   3.885   2.953  0.00  0.00    -0.250 N 
ATOM     11  H   LIG    1       -4.492   4.448   3.656  0.00  0.00    +0.470 HD
ATOM     12  N   LIG    1       -4.779   2.940   2.369  0.00  0.00    -0.280 NA
ATOM     13  C   LIG    1       -3.995   2.383   1.473  0.00  0.00    +0.180 A 
ENDBRANCH   7   8
BRANCH   1  15
ATOM     14  C   LIG    1        0.515   0.950   3.189  0.00  0.00    +0.210 C 
ATOM     15  O   LIG    1        0.172   1.992   2.273  0.00  0.00    -0.370 OA
ENDBRANCH   1  15
BRANCH   5  16
ATOM     16  C   LIG    1        0.833   0.567  -2.781  0.00  0.00    +0.180 C 
BRANCH  16  17
ATOM     17  C   LIG    1        0.993   0.481  -4.277  0.00  0.00    +0.110 A 
ATOM     18  N   LIG    1        0.501  -0.444  -5.050  0.00  0.00    -0.240 NA
ATOM     19  N   LIG    1        0.853  -0.195  -6.381  0.00  0.00    -0.410 N 
ATOM     20  C   LIG    1        1.613   0.944  -6.438  0.00  0.00    +0.130 A 
ATOM     21  C   LIG    1        2.227   1.643  -7.474  0.00  0.00    -0.020 A 
ATOM     22  C   LIG    1        2.937   2.778  -7.201  0.00  0.00    +0.060 A 
ATOM     23  C   LIG    1        3.056   3.247  -5.899  0.00  0.00    -0.030 A 
ATOM     24  C   LIG    1        2.466   2.582  -4.864  0.00  0.00    +0.090 A 
ATOM     25  C   LIG    1        0.473  -1.022  -7.529  0.00  0.00    +0.350 C 
ATOM     26  C   LIG    1        1.734   1.417  -5.117  0.00  0.00    -0.170 A 
ENDBRANCH  16  17
ENDBRANCH   5  16
TORSDOF 4
