REMARK  Name = ZINCqH00000097Iu.0
REMARK                            x       y       z     vdW  Elec       q    Type
REMARK                         _______ _______ _______ _____ _____    ______ ____
ROOT
ATOM      1  C   LIG    1       -7.074  -4.327  -0.958  0.00  0.00    +0.510 C 
ATOM      2  N   LIG    1       -6.431  -3.814  -2.026  0.00  0.00    -0.670 N 
ATOM      3  H   LIG    1       -6.798  -3.934  -2.916  0.00  0.00    +0.410 HD
ATOM      4  O   LIG    1       -6.668  -4.097   0.162  0.00  0.00    -0.510 OA
ENDROOT
BRANCH   2   5
ATOM      5  C   LIG    1       -5.234  -3.109  -1.851  0.00  0.00    +0.100 A 
ATOM      6  C   LIG    1       -4.356  -3.470  -0.838  0.00  0.00    +0.060 A 
ATOM      7  C   LIG    1       -3.176  -2.773  -0.665  0.00  0.00    +0.010 A 
ATOM      8  C   LIG    1       -2.868  -1.713  -1.505  0.00  0.00    +0.120 A 
ATOM      9  C   LIG    1       -3.746  -1.348  -2.514  0.00  0.00    -0.060 A 
ATOM     10  C   LIG    1       -4.924  -2.047  -2.691  0.00  0.00    +0.030 A 
BRANCH   8  11
ATOM     11  O   LIG    1       -1.706  -1.028  -1.334  0.00  0.00    -0.310 OA
BRANCH  11  12
ATOM     12  C   LIG    1       -1.452   0.053  -2.235  0.00  0.00    +0.240 C 
BRANCH  12  13
ATOM     13  C   LIG    1       -0.129   0.689  -1.895  0.00  0.00    -0.100 A 
ATOM     14  C   LIG    1        1.032   0.228  -2.487  0.00  0.00    +0.020 A 
ATOM     15  C   LIG    1        2.246   0.812  -2.176  0.00  0.00    +0.010 A 
ATOM     16  C   LIG    1        2.299   1.857  -1.272  0.00  0.00    +0.020 A 
ATOM     17  C   LIG    1        1.138   2.318  -0.681  0.00  0.00    +0.010 A 
ATOM     18  C   LIG    1       -0.076   1.735  -0.992  0.00  0.00    +0.020 A 
ENDBRANCH  12  13
ENDBRANCH  11  12
ENDBRANCH   8  11
ENDBRANCH   2   5
BRANCH   1  20
ATOM     19  C   LIG    1       -9.374  -4.380  -1.882  0.00  0.00    +0.060 C 
ATOM     20  C   LIG    1       -8.296  -5.186  -1.155  0.00  0.00    +0.250 C 
BRANCH  20  21
ATOM     21  N   LIG    1       -8.805  -5.617   0.150  0.00  0.00    -0.710 N 
ATOM     22  H   LIG    1       -8.618  -5.090   0.942  0.00  0.00    +0.410 HD
ATOM     23  C   LIG    1       -9.534  -6.747   0.249  0.00  0.00    +0.530 C 
ATOM     24  O   LIG    1       -9.768  -7.406  -0.741  0.00  0.00    -0.540 OA
BRANCH  23  25
ATOM     25  C   LIG    1      -10.057  -7.190   1.591  0.00  0.00    -0.080 C 
ATOM     26  C   LIG    1      -10.974  -6.107   2.164  0.00  0.00    +0.050 C 
ATOM     27  C   LIG    1       -8.884  -7.421   2.545  0.00  0.00    +0.050 C 
ATOM     28  C   LIG    1      -10.846  -8.491   1.427  0.00  0.00    +0.050 C 
ENDBRANCH  23  25
ENDBRANCH  20  21
ENDBRANCH   1  20
TORSDOF 7
