REMARK  Name = ZINCqH0000033HlP.1
REMARK                            x       y       z     vdW  Elec       q    Type
REMARK                         _______ _______ _______ _____ _____    ______ ____
ROOT
ATOM      1  N   LIG    1        5.784  -1.478   2.762  0.00  0.00    -1.050 N 
ATOM      2  H   LIG    1        5.171  -1.972   3.328  0.00  0.00    +0.430 HD
ENDROOT
BRANCH   1   3
ATOM      3  C   LIG    1        5.349  -0.329   2.098  0.00  0.00    +0.190 A 
ATOM      4  C   LIG    1        6.130   0.821   2.112  0.00  0.00    -0.060 A 
ATOM      5  C   LIG    1        5.700   1.958   1.455  0.00  0.00    +0.070 A 
ATOM      6  C   LIG    1        4.497   1.954   0.776  0.00  0.00    -0.040 A 
ATOM      7  C   LIG    1        3.709   0.809   0.763  0.00  0.00    +0.190 A 
ATOM      8  C   LIG    1        4.137  -0.334   1.422  0.00  0.00    -0.010 A 
BRANCH   7   9
ATOM      9  N   LIG    1        2.487   0.808   0.080  0.00  0.00    -0.560 N 
ATOM     10  C   LIG    1        1.885   1.993  -0.542  0.00  0.00    +0.260 C 
ATOM     11  C   LIG    1        0.402   1.629  -0.773  0.00  0.00    +0.060 C 
ATOM     12  C   LIG    1        0.466   0.087  -0.863  0.00  0.00    +0.070 C 
ATOM     13  C   LIG    1        1.714  -0.278  -0.089  0.00  0.00    +0.510 C 
ATOM     14  O   LIG    1        1.979  -1.389   0.318  0.00  0.00    -0.510 OA
ENDBRANCH   7   9
ENDBRANCH   1   3
BRANCH   1  15
ATOM     15  S   LIG    1        7.346  -1.996   2.583  0.00  0.00    +2.700 S 
ATOM     16  O   LIG    1        7.627  -1.952   1.191  0.00  0.00    -0.940 OA
ATOM     17  O   LIG    1        7.469  -3.177   3.364  0.00  0.00    -0.930 OA
BRANCH  15  24
ATOM     18  C   LIG    1        8.308  -0.565   4.705  0.00  0.00    +0.250 A 
ATOM     19  C   LIG    1        9.127   0.385   5.298  0.00  0.00    -0.070 A 
ATOM     20  C   LIG    1       10.019   1.105   4.526  0.00  0.00    +0.160 A 
ATOM     21  C   LIG    1       10.095   0.878   3.163  0.00  0.00    -0.150 A 
ATOM     22  C   LIG    1        9.283  -0.073   2.571  0.00  0.00    +0.210 A 
ATOM     23 BR   LIG    1       11.317   1.864   2.109  0.00  0.00    -0.030 Br
ATOM     24  C   LIG    1        8.386  -0.790   3.339  0.00  0.00    -0.710 A 
BRANCH  18  25
ATOM     25  O   LIG    1        7.430  -1.274   5.463  0.00  0.00    -0.300 OA
BRANCH  25  27
ATOM     26  C   LIG    1        6.385  -1.889   7.554  0.00  0.00    +0.060 C 
ATOM     27  C   LIG    1        7.325  -0.913   6.842  0.00  0.00    +0.190 C 
ENDBRANCH  25  27
ENDBRANCH  18  25
ENDBRANCH  15  24
ENDBRANCH   1  15
TORSDOF 6
