REMARK  Name = ZINCqH0000033Imx.0
REMARK                            x       y       z     vdW  Elec       q    Type
REMARK                         _______ _______ _______ _____ _____    ______ ____
ROOT
ATOM      1  N   LIG    1        1.132   2.050   0.013  0.00  0.00    -0.740 N 
ATOM      2  H   LIG    1        1.983   1.592  -0.064  0.00  0.00    +0.400 HD
ATOM      3  C   LIG    1       -0.016   1.344   0.009  0.00  0.00    +0.710 C 
ATOM      4  N   LIG    1        0.021  -0.004  -0.000  0.00  0.00    -0.630 N 
ATOM      5  C   LIG    1       -1.215  -0.788   0.123  0.00  0.00    +0.280 C 
ATOM      6  C   LIG    1       -1.287  -1.774  -1.053  0.00  0.00    +0.030 C 
ATOM      7  C   LIG    1       -0.009  -2.616  -1.084  0.00  0.00    +0.000 C 
ATOM      8  C   LIG    1        1.201  -1.703  -1.295  0.00  0.00    +0.020 C 
ATOM      9  C   LIG    1        1.300  -0.716  -0.128  0.00  0.00    +0.260 C 
ATOM     10  O   LIG    1       -1.086   1.922   0.019  0.00  0.00    -0.590 OA
ENDROOT
BRANCH   7  11
ATOM     11  C   LIG    1       -0.092  -3.626  -2.230  0.00  0.00    +0.160 C 
ATOM     12  C   LIG    1       -1.302  -4.540  -2.020  0.00  0.00    +0.000 C 
ATOM     13  C   LIG    1       -1.413  -5.508  -3.201  0.00  0.00    +0.010 C 
ATOM     14  C   LIG    1       -1.512  -4.702  -4.500  0.00  0.00    -0.020 C 
ATOM     15  C   LIG    1       -0.294  -3.782  -4.615  0.00  0.00    +0.200 C 
ATOM     16  O   LIG    1       -0.233  -2.929  -3.470  0.00  0.00    -0.370 OA
ENDBRANCH   7  11
BRANCH   1  17
ATOM     17  C   LIG    1        1.093   3.509   0.134  0.00  0.00    +0.340 C 
BRANCH  17  21
ATOM     18  C   LIG    1        5.081   5.049   0.076  0.00  0.00    +0.110 A 
ATOM     19  C   LIG    1        4.487   4.702   1.280  0.00  0.00    -0.050 A 
ATOM     20  C   LIG    1        3.196   4.209   1.296  0.00  0.00    +0.070 A 
ATOM     21  C   LIG    1        2.499   4.052   0.113  0.00  0.00    -0.120 A 
ATOM     22  C   LIG    1        3.087   4.398  -1.090  0.00  0.00    +0.060 A 
ATOM     23  C   LIG    1        4.377   4.896  -1.112  0.00  0.00    +0.070 A 
ATOM     24  F   LIG    1        4.952   5.234  -2.287  0.00  0.00    -0.130 F 
BRANCH  18  25
ATOM     25  O   LIG    1        6.349   5.539   0.059  0.00  0.00    -0.310 OA
BRANCH  25  27
ATOM     26  C   LIG    1        8.417   6.232   1.099  0.00  0.00    +0.070 C 
ATOM     27  C   LIG    1        7.011   5.669   1.318  0.00  0.00    +0.190 C 
ENDBRANCH  25  27
ENDBRANCH  18  25
ENDBRANCH  17  21
ENDBRANCH   1  17
TORSDOF 5
