REMARK  Name = ZINCnE000001DaZp.0
REMARK                            x       y       z     vdW  Elec       q    Type
REMARK                         _______ _______ _______ _____ _____    ______ ____
ROOT
ATOM      1  N   LIG    1        1.288   1.422   2.691  0.00  0.00    -0.730 N 
ATOM      2  H   LIG    1        1.746   1.990   2.051  0.00  0.00    +0.400 HD
ATOM      3  C   LIG    1        0.000   1.080   2.488  0.00  0.00    +0.520 C 
ATOM      4  O   LIG    1       -0.572   0.370   3.288  0.00  0.00    -0.530 OA
ENDROOT
BRANCH   3   5
ATOM      5  C   LIG    1       -0.729   1.579   1.267  0.00  0.00    -0.020 C 
ATOM      6  C   LIG    1       -0.013   1.086   0.008  0.00  0.00    +0.020 C 
ATOM      7  C   LIG    1       -0.753   1.593  -1.232  0.00  0.00    +0.000 C 
ATOM      8  C   LIG    1       -2.188   1.063  -1.221  0.00  0.00    +0.030 C 
ATOM      9  C   LIG    1       -2.904   1.556   0.038  0.00  0.00    -0.090 C 
ATOM     10  C   LIG    1       -2.164   1.050   1.278  0.00  0.00    +0.060 C 
BRANCH   9  11
ATOM     11  C   LIG    1       -4.318   1.035   0.049  0.00  0.00    +0.500 C 
ATOM     12  O   LIG    1       -5.064   1.314   0.972  0.00  0.00    -0.700 OA
ATOM     13  O   LIG    1       -4.716   0.334  -0.866  0.00  0.00    -0.700 OA
ENDBRANCH   9  11
ENDBRANCH   3   5
BRANCH   1  15
ATOM     14  C   LIG    1        1.280   1.430   5.136  0.00  0.00    +0.020 C 
ATOM     15  C   LIG    1        1.996   0.937   3.877  0.00  0.00    +0.170 C 
ATOM     16  C   LIG    1        2.017  -0.593   3.869  0.00  0.00    +0.020 C 
BRANCH  15  17
ATOM     17  C   LIG    1        3.432   1.466   3.866  0.00  0.00    +0.030 C 
BRANCH  17  18
ATOM     18  C   LIG    1        4.172   0.959   5.106  0.00  0.00    +0.080 C 
BRANCH  18  19
ATOM     19  C   LIG    1        5.585   1.481   5.095  0.00  0.00    -0.080 A 
ATOM     20  C   LIG    1        6.588   0.748   4.488  0.00  0.00    +0.000 A 
ATOM     21  C   LIG    1        7.884   1.229   4.475  0.00  0.00    +0.000 A 
ATOM     22  C   LIG    1        8.179   2.438   5.076  0.00  0.00    -0.010 A 
ATOM     23  C   LIG    1        7.178   3.168   5.688  0.00  0.00    +0.000 A 
ATOM     24  C   LIG    1        5.881   2.690   5.698  0.00  0.00    +0.000 A 
ENDBRANCH  18  19
ENDBRANCH  17  18
ENDBRANCH  15  17
ENDBRANCH   1  15
TORSDOF 6
