REMARK  Name = ZINCqH0000035WP2.0
REMARK                            x       y       z     vdW  Elec       q    Type
REMARK                         _______ _______ _______ _____ _____    ______ ____
ROOT
ATOM      1  C   LIG    1       -4.188  -0.035   1.445  0.00  0.00    +0.320 C 
ENDROOT
BRANCH   1   2
ATOM      2  C   LIG    1       -5.348   0.921   1.345  0.00  0.00    +0.230 A 
ATOM      3  N   LIG    1       -5.469   2.040   2.009  0.00  0.00    -0.280 NA
ATOM      4  N   LIG    1       -6.688   2.616   1.616  0.00  0.00    -0.490 N 
ATOM      5  H   LIG    1       -7.064   3.453   1.929  0.00  0.00    +0.440 HD
ATOM      6  C   LIG    1       -7.234   1.772   0.723  0.00  0.00    +0.480 A 
ATOM      7  N   LIG    1       -6.420   0.759   0.570  0.00  0.00    -0.540 NA
ENDBRANCH   1   2
BRANCH   1   8
ATOM      8  C   LIG    1       -4.275  -0.798   2.741  0.00  0.00    -0.100 A 
ATOM      9  C   LIG    1       -3.849  -0.212   3.918  0.00  0.00    +0.090 A 
ATOM     10  C   LIG    1       -3.929  -0.912   5.108  0.00  0.00    +0.020 A 
ATOM     11  C   LIG    1       -4.437  -2.198   5.120  0.00  0.00    +0.070 A 
ATOM     12  C   LIG    1       -4.864  -2.784   3.943  0.00  0.00    -0.190 A 
ATOM     13  C   LIG    1       -4.788  -2.083   2.755  0.00  0.00    +0.090 A 
BRANCH  12  14
ATOM     14  C   LIG    1       -5.418  -4.185   3.957  0.00  0.00    +0.510 C 
ATOM     15  F   LIG    1       -4.636  -5.004   3.136  0.00  0.00    -0.180 F 
ATOM     16  F   LIG    1       -6.735  -4.171   3.483  0.00  0.00    -0.180 F 
ATOM     17  F   LIG    1       -5.399  -4.681   5.265  0.00  0.00    -0.180 F 
ENDBRANCH  12  14
ENDBRANCH   1   8
BRANCH   1  18
ATOM     18  N   LIG    1       -2.927   0.718   1.404  0.00  0.00    -0.670 NA
ATOM     19  H   LIG    1       -2.202   0.237   1.914  0.00  0.00    +0.350 HD
BRANCH  18  20
ATOM     20  C   LIG    1       -2.513   0.977   0.019  0.00  0.00    +0.240 C 
BRANCH  20  24
ATOM     21  C   LIG    1        1.155   3.169   0.008  0.00  0.00    +0.130 A 
ATOM     22  C   LIG    1        1.175   1.782   0.000  0.00  0.00    -0.020 A 
ATOM     23  C   LIG    1       -0.013   1.076   0.008  0.00  0.00    +0.060 A 
ATOM     24  C   LIG    1       -1.220   1.750   0.017  0.00  0.00    -0.120 A 
ATOM     25  C   LIG    1       -1.242   3.133   0.031  0.00  0.00    +0.070 A 
ATOM     26  C   LIG    1       -0.057   3.844   0.023  0.00  0.00    -0.080 A 
BRANCH  21  28
ATOM     27  C   LIG    1        2.225   5.292   0.009  0.00  0.00    +0.250 C 
ATOM     28  O   LIG    1        2.322   3.866   0.000  0.00  0.00    -0.320 OA
ENDBRANCH  21  28
ENDBRANCH  20  24
ENDBRANCH  18  20
ENDBRANCH   1  18
TORSDOF 7
