REMARK  Name = ZINCqH0000035WP2.1
REMARK                            x       y       z     vdW  Elec       q    Type
REMARK                         _______ _______ _______ _____ _____    ______ ____
ROOT
ATOM      1  C   LIG    1       -0.013   1.086   0.008  0.00  0.00    +0.310 C 
ENDROOT
BRANCH   1   2
ATOM      2  C   LIG    1        1.401   1.607  -0.003  0.00  0.00    +0.190 A 
ATOM      3  N   LIG    1        2.271   1.464  -0.965  0.00  0.00    -0.280 NA
ATOM      4  N   LIG    1        3.376   2.035  -0.638  0.00  0.00    -0.290 NA
ATOM      5  C   LIG    1        3.261   2.569   0.547  0.00  0.00    +0.370 A 
ATOM      6  N   LIG    1        2.002   2.317   0.982  0.00  0.00    -0.570 N 
ATOM      7  H   LIG    1        1.612   2.588   1.828  0.00  0.00    +0.430 HD
ENDBRANCH   1   2
BRANCH   1   8
ATOM      8  C   LIG    1       -0.742   1.585  -1.213  0.00  0.00    -0.090 A 
ATOM      9  C   LIG    1       -1.257   2.867  -1.234  0.00  0.00    +0.080 A 
ATOM     10  C   LIG    1       -1.922   3.327  -2.356  0.00  0.00    +0.020 A 
ATOM     11  C   LIG    1       -2.079   2.501  -3.452  0.00  0.00    +0.080 A 
ATOM     12  C   LIG    1       -1.568   1.216  -3.429  0.00  0.00    -0.180 A 
ATOM     13  C   LIG    1       -0.899   0.758  -2.310  0.00  0.00    +0.100 A 
BRANCH  12  14
ATOM     14  C   LIG    1       -1.741   0.315  -4.625  0.00  0.00    +0.510 C 
ATOM     15  F   LIG    1       -0.663  -0.573  -4.699  0.00  0.00    -0.170 F 
ATOM     16  F   LIG    1       -1.788   1.089  -5.789  0.00  0.00    -0.180 F 
ATOM     17  F   LIG    1       -2.932  -0.407  -4.496  0.00  0.00    -0.180 F 
ENDBRANCH  12  14
ENDBRANCH   1   8
BRANCH   1  18
ATOM     18  N   LIG    1       -0.700   1.560   1.217  0.00  0.00    -0.690 NA
ATOM     19  H   LIG    1       -1.692   1.651   1.056  0.00  0.00    +0.360 HD
BRANCH  18  20
ATOM     20  C   LIG    1       -0.432   0.673   2.357  0.00  0.00    +0.230 C 
BRANCH  20  24
ATOM     21  C   LIG    1       -2.474   2.138   5.813  0.00  0.00    +0.130 A 
ATOM     22  C   LIG    1       -3.102   1.239   4.964  0.00  0.00    -0.020 A 
ATOM     23  C   LIG    1       -2.440   0.767   3.847  0.00  0.00    +0.060 A 
ATOM     24  C   LIG    1       -1.152   1.190   3.575  0.00  0.00    -0.130 A 
ATOM     25  C   LIG    1       -0.521   2.082   4.423  0.00  0.00    +0.060 A 
ATOM     26  C   LIG    1       -1.181   2.561   5.538  0.00  0.00    -0.080 A 
BRANCH  21  28
ATOM     27  C   LIG    1       -2.414   3.527   7.742  0.00  0.00    +0.250 C 
ATOM     28  O   LIG    1       -3.123   2.604   6.912  0.00  0.00    -0.320 OA
ENDBRANCH  21  28
ENDBRANCH  20  24
ENDBRANCH  18  20
ENDBRANCH   1  18
TORSDOF 7
