REMARK  Name = ZINCpk00000eaKFX.0
REMARK                            x       y       z     vdW  Elec       q    Type
REMARK                         _______ _______ _______ _____ _____    ______ ____
ROOT
ATOM      1  N   LIG    1        4.140   0.293   2.329  0.00  0.00    -0.740 N 
ATOM      2  H   LIG    1        4.417   0.912   1.635  0.00  0.00    +0.400 HD
ATOM      3  C   LIG    1        2.923  -0.283   2.272  0.00  0.00    +0.700 C 
ATOM      4  N   LIG    1        2.091  -0.000   1.251  0.00  0.00    -0.740 N 
ATOM      5  H   LIG    1        2.367   0.618   0.556  0.00  0.00    +0.400 HD
ATOM      6  O   LIG    1        2.576  -1.058   3.142  0.00  0.00    -0.590 OA
ENDROOT
BRANCH   1   7
ATOM      7  C   LIG    1        5.045  -0.014   3.439  0.00  0.00    +0.280 C 
BRANCH   7   9
ATOM      8  C   LIG    1        7.341   0.351   4.354  0.00  0.00    +0.040 C 
ATOM      9  C   LIG    1        6.350   0.766   3.265  0.00  0.00    +0.230 C 
BRANCH   9  10
ATOM     10  N   LIG    1        6.921   0.474   1.948  0.00  0.00    -0.630 N 
ATOM     11  C   LIG    1        7.372  -0.883   1.629  0.00  0.00    +0.280 C 
BRANCH  10  12
ATOM     12  C   LIG    1        7.035   1.490   0.995  0.00  0.00    +0.210 A 
ATOM     13  C   LIG    1        7.467   1.192  -0.291  0.00  0.00    -0.080 A 
ATOM     14  C   LIG    1        7.575   2.198  -1.231  0.00  0.00    +0.050 A 
ATOM     15  C   LIG    1        7.263   3.501  -0.891  0.00  0.00    -0.060 A 
ATOM     16  C   LIG    1        6.837   3.802   0.390  0.00  0.00    +0.050 A 
ATOM     17  C   LIG    1        6.723   2.800   1.334  0.00  0.00    -0.080 A 
ENDBRANCH  10  12
ENDBRANCH   9  10
ENDBRANCH   7   9
ENDBRANCH   1   7
BRANCH   4  18
ATOM     18  C   LIG    1        0.768  -0.626   1.189  0.00  0.00    +0.270 C 
BRANCH  18  19
ATOM     19  C   LIG    1        0.030  -0.139  -0.060  0.00  0.00    +0.210 C 
ATOM     20  C   LIG    1       -0.018   1.390  -0.059  0.00  0.00    +0.070 C 
BRANCH  19  21
ATOM     21  C   LIG    1       -1.374  -0.686  -0.060  0.00  0.00    -0.270 A 
ATOM     22  C   LIG    1       -2.118  -0.969  -1.154  0.00  0.00    +0.260 A 
ATOM     23  N   LIG    1       -3.310  -1.440  -0.730  0.00  0.00    -0.370 N 
ATOM     24  N   LIG    1       -3.301  -1.437   0.670  0.00  0.00    -0.290 NA
ATOM     25  C   LIG    1       -4.419  -1.871  -1.585  0.00  0.00    +0.360 C 
ATOM     26  C   LIG    1       -2.140  -0.985   1.071  0.00  0.00    +0.240 A 
ENDBRANCH  19  21
BRANCH  19  27
ATOM     27  O   LIG    1        0.719  -0.593  -1.227  0.00  0.00    -0.550 OA
ATOM     28  H   LIG    1        0.787  -1.555  -1.294  0.00  0.00    +0.380 HD
ENDBRANCH  19  27
ENDBRANCH  18  19
ENDBRANCH   4  18
TORSDOF 8
