REMARK  Name = ZINCrH000004sTgu.0
REMARK                            x       y       z     vdW  Elec       q    Type
REMARK                         _______ _______ _______ _____ _____    ______ ____
ROOT
ATOM      1  C   LIG    1        7.083  -0.129  -0.169  0.00  0.00    +0.610 C 
ATOM      2  N   LIG    1        5.891  -0.750  -0.059  0.00  0.00    -0.640 N 
ATOM      3  H   LIG    1        5.852  -1.716   0.010  0.00  0.00    +0.420 HD
ATOM      4  O   LIG    1        7.139   1.085  -0.162  0.00  0.00    -0.450 OA
ENDROOT
BRANCH   2   5
ATOM      5  C   LIG    1        4.717  -0.003  -0.046  0.00  0.00    +0.390 A 
ATOM      6  N   LIG    1        4.801   1.308  -0.039  0.00  0.00    -0.450 NA
ATOM      7  C   LIG    1        3.719   2.093  -0.027  0.00  0.00    +0.160 A 
ATOM      8  C   LIG    1        3.839   3.494  -0.021  0.00  0.00    +0.050 A 
ATOM      9  C   LIG    1        2.718   4.267  -0.008  0.00  0.00    +0.040 A 
ATOM     10  C   LIG    1        1.449   3.694  -0.002  0.00  0.00    +0.020 A 
ATOM     11  C   LIG    1        1.296   2.339  -0.007  0.00  0.00    +0.030 A 
ATOM     12  C   LIG    1        2.426   1.515  -0.021  0.00  0.00    -0.090 A 
ATOM     13  C   LIG    1        2.310   0.056  -0.028  0.00  0.00    +0.060 A 
ATOM     14  C   LIG    1        3.490  -0.676  -0.040  0.00  0.00    +0.020 A 
BRANCH  13  15
ATOM     15  C   LIG    1        1.032  -0.590  -0.021  0.00  0.00    +0.250 C 
ATOM     16  N   LIG    1        0.018  -1.103  -0.016  0.00  0.00    -0.380 NA
ENDBRANCH  13  15
ENDBRANCH   2   5
BRANCH   1  19
ATOM     17  C   LIG    1        8.957  -1.203   2.182  0.00  0.00    +0.220 C 
ATOM     18  C   LIG    1        9.137  -1.395   0.698  0.00  0.00    +0.030 A 
ATOM     19  C   LIG    1        8.317  -0.923  -0.296  0.00  0.00    -0.230 A 
ATOM     20  C   LIG    1        8.975  -1.414  -1.525  0.00  0.00    +0.100 A 
ATOM     21  N   LIG    1       10.033  -2.061  -1.110  0.00  0.00    -0.330 NA
ATOM     22  O   LIG    1       10.126  -2.057   0.093  0.00  0.00    +0.110 OA
BRANCH  20  23
ATOM     23  C   LIG    1        8.532  -1.213  -2.927  0.00  0.00    +0.180 A 
ATOM     24  C   LIG    1        9.465  -1.261  -3.959  0.00  0.00    +0.000 A 
ATOM     25  C   LIG    1        9.037  -1.072  -5.263  0.00  0.00    +0.070 A 
ATOM     26  C   LIG    1        7.688  -0.840  -5.489  0.00  0.00    -0.020 A 
ATOM     27  C   LIG    1        6.816  -0.806  -4.415  0.00  0.00    +0.270 A 
ATOM     28  N   LIG    1        7.249  -0.994  -3.186  0.00  0.00    -0.460 NA
ENDBRANCH  20  23
ENDBRANCH   1  19
TORSDOF 4
