REMARK  Name = ZINCrH000004sRrb.0
REMARK                            x       y       z     vdW  Elec       q    Type
REMARK                         _______ _______ _______ _____ _____    ______ ____
ROOT
ATOM      1  C   LIG    1       -0.014   1.212   0.009  0.00  0.00    +0.590 C 
ATOM      2  N   LIG    1       -1.191   1.870   0.018  0.00  0.00    -0.720 N 
ATOM      3  H   LIG    1       -1.204   2.840   0.023  0.00  0.00    +0.400 HD
ATOM      4  O   LIG    1        0.002  -0.004   0.002  0.00  0.00    -0.510 OA
ENDROOT
BRANCH   1   7
ATOM      5  C   LIG    1        1.544   2.167  -2.522  0.00  0.00    +0.210 C 
ATOM      6  C   LIG    1        1.946   2.392  -1.087  0.00  0.00    +0.060 A 
ATOM      7  C   LIG    1        1.250   1.966   0.001  0.00  0.00    -0.170 A 
ATOM      8  C   LIG    1        2.027   2.422   1.175  0.00  0.00    -0.110 A 
ATOM      9  C   LIG    1        3.126   3.075   0.654  0.00  0.00    +0.300 A 
ATOM     10  O   LIG    1        3.044   3.041  -0.683  0.00  0.00    -0.160 OA
BRANCH   9  11
ATOM     11  N   LIG    1        4.141   3.671   1.391  0.00  0.00    -0.380 N 
ATOM     12  C   LIG    1        4.220   3.709   2.756  0.00  0.00    +0.160 A 
ATOM     13  C   LIG    1        5.346   4.368   3.094  0.00  0.00    -0.020 A 
ATOM     14  C   LIG    1        5.982   4.761   1.898  0.00  0.00    -0.020 A 
ATOM     15  C   LIG    1        5.226   4.322   0.873  0.00  0.00    +0.170 A 
ENDBRANCH   9  11
BRANCH   8  16
ATOM     16  C   LIG    1        1.707   2.226   2.558  0.00  0.00    +0.270 C 
ATOM     17  N   LIG    1        1.454   2.070   3.654  0.00  0.00    -0.390 NA
ENDBRANCH   8  16
ENDBRANCH   1   7
BRANCH   2  18
ATOM     18  C   LIG    1       -2.449   1.120   0.020  0.00  0.00    +0.260 C 
BRANCH  18  19
ATOM     19  C   LIG    1       -3.626   2.099   0.031  0.00  0.00    +0.110 C 
BRANCH  19  20
ATOM     20  C   LIG    1       -4.920   1.327   0.033  0.00  0.00    -0.170 A 
ATOM     21  C   LIG    1       -5.662   1.011  -1.040  0.00  0.00    +0.230 A 
ATOM     22  N   LIG    1       -6.767   0.303  -0.651  0.00  0.00    -0.590 N 
ATOM     23  H   LIG    1       -7.450  -0.038  -1.249  0.00  0.00    +0.420 HD
ATOM     24  C   LIG    1       -6.768   0.152   0.718  0.00  0.00    +0.090 A 
ATOM     25  C   LIG    1       -7.636  -0.464   1.613  0.00  0.00    -0.010 A 
ATOM     26  C   LIG    1       -7.355  -0.445   2.962  0.00  0.00    +0.030 A 
ATOM     27  C   LIG    1       -6.213   0.184   3.438  0.00  0.00    -0.020 A 
ATOM     28  C   LIG    1       -5.346   0.794   2.577  0.00  0.00    +0.050 A 
ATOM     29  C   LIG    1       -5.611   0.787   1.206  0.00  0.00    -0.100 A 
ENDBRANCH  19  20
ENDBRANCH  18  19
ENDBRANCH   2  18
TORSDOF 6
