REMARK  Name = ZINCtV00000L6jap.0
REMARK                            x       y       z     vdW  Elec       q    Type
REMARK                         _______ _______ _______ _____ _____    ______ ____
ROOT
ATOM      1  C   LIG    1        5.955   0.843   0.227  0.00  0.00    +0.170 C 
ATOM      2  C   LIG    1        4.450   0.805   0.154  0.00  0.00    +0.150 A 
ATOM      3  N   LIG    1        3.716  -0.280   0.111  0.00  0.00    -0.330 NA
ATOM      4  N   LIG    1        2.366   0.080   0.048  0.00  0.00    -0.340 N 
ATOM      5  C   LIG    1        1.215  -0.660  -0.013  0.00  0.00    +0.490 A 
ATOM      6  C   LIG    1        0.003  -0.004  -0.067  0.00  0.00    -0.170 A 
ATOM      7  C   LIG    1       -0.016   1.391  -0.057  0.00  0.00    +0.260 A 
ATOM      8  N   LIG    1        1.110   2.070   0.002  0.00  0.00    -0.510 NA
ATOM      9  C   LIG    1        2.292   1.448   0.055  0.00  0.00    +0.330 A 
ATOM     10  C   LIG    1        3.608   1.923   0.122  0.00  0.00    -0.230 A 
ENDROOT
BRANCH   5  11
ATOM     11  N   LIG    1        1.267  -2.038  -0.021  0.00  0.00    -0.590 N 
ATOM     12  C   LIG    1        0.038  -2.834   0.104  0.00  0.00    +0.290 C 
ATOM     13  C   LIG    1       -0.024  -3.822  -1.070  0.00  0.00    -0.020 C 
ATOM     14  C   LIG    1        1.262  -4.652  -1.100  0.00  0.00    +0.030 C 
ATOM     15  C   LIG    1        2.462  -3.727  -1.312  0.00  0.00    -0.030 C 
ATOM     16  C   LIG    1        3.744  -4.561  -1.375  0.00  0.00    +0.040 C 
ATOM     17  C   LIG    1       -0.165  -3.052  -2.385  0.00  0.00    +0.030 C 
ATOM     18  C   LIG    1        2.552  -2.737  -0.147  0.00  0.00    +0.290 C 
ENDBRANCH   5  11
BRANCH  10  19
ATOM     19  C   LIG    1        4.030   3.342   0.153  0.00  0.00    +0.030 A 
ATOM     20  C   LIG    1        3.799   4.166  -0.948  0.00  0.00    +0.040 A 
ATOM     21  C   LIG    1        4.189   5.489  -0.912  0.00  0.00    +0.020 A 
ATOM     22  C   LIG    1        4.819   5.996   0.212  0.00  0.00    -0.040 A 
ATOM     23  C   LIG    1        5.056   5.182   1.306  0.00  0.00    +0.020 A 
ATOM     24 CL   LIG    1        5.313   7.660   0.249  0.00  0.00    -0.080 Cl
ATOM     25  C   LIG    1        4.665   3.859   1.283  0.00  0.00    +0.030 A 
ENDBRANCH  10  19
BRANCH   7  26
ATOM     26  C   LIG    1       -1.331   2.123  -0.121  0.00  0.00    -0.020 C 
ATOM     27  C   LIG    1       -2.192   1.731   1.081  0.00  0.00    +0.050 C 
ATOM     28  C   LIG    1       -2.060   1.750  -1.414  0.00  0.00    +0.050 C 
ATOM     29  C   LIG    1       -1.077   3.631  -0.096  0.00  0.00    +0.050 C 
ENDBRANCH   7  26
TORSDOF 3
