REMARK  Name = ZINCqH0000000pJi.0
REMARK                            x       y       z     vdW  Elec       q    Type
REMARK                         _______ _______ _______ _____ _____    ______ ____
ROOT
ATOM      1  C   LIG    1       -5.036   7.617   0.090  0.00  0.00    +0.180 A 
ATOM      2  N   LIG    1       -5.669   6.481   0.091  0.00  0.00    -0.370 NA
ATOM      3  O   LIG    1       -4.883   5.557   0.079  0.00  0.00    +0.090 OA
ATOM      4  C   LIG    1       -3.627   6.031   0.069  0.00  0.00    +0.220 A 
ATOM      5  N   LIG    1       -3.721   7.349   0.082  0.00  0.00    -0.440 NA
ENDROOT
BRANCH   4   6
ATOM      6  C   LIG    1       -2.383   5.235   0.052  0.00  0.00    -0.070 A 
ATOM      7  C   LIG    1       -2.441   3.846   0.046  0.00  0.00    +0.150 A 
ATOM      8  C   LIG    1       -1.228   3.136   0.030  0.00  0.00    -0.080 A 
ATOM      9  C   LIG    1       -1.206   1.732   0.017  0.00  0.00    +0.040 A 
ATOM     10  C   LIG    1       -0.013   1.076   0.008  0.00  0.00    +0.050 A 
ATOM     11  C   LIG    1        1.189   1.779   0.000  0.00  0.00    +0.020 A 
ATOM     12  C   LIG    1        1.206   3.143   0.007  0.00  0.00    +0.120 A 
ATOM     13  F   LIG    1        2.383   3.806  -0.001  0.00  0.00    -0.120 F 
ATOM     14  C   LIG    1       -0.006   3.857   0.022  0.00  0.00    +0.110 A 
ATOM     15  N   LIG    1       -0.015   5.194   0.029  0.00  0.00    -0.460 NA
ATOM     16  C   LIG    1       -1.131   5.875   0.043  0.00  0.00    +0.360 A 
ENDBRANCH   4   6
BRANCH   1  17
ATOM     17  C   LIG    1       -5.665   8.986   0.103  0.00  0.00    +0.280 C 
ATOM     18  C   LIG    1       -6.521   9.142   1.361  0.00  0.00    +0.040 C 
ATOM     19  C   LIG    1       -7.160  10.532   1.374  0.00  0.00    +0.020 C 
ATOM     20  C   LIG    1       -8.041  10.701   0.134  0.00  0.00    +0.020 C 
ATOM     21  C   LIG    1       -7.184  10.544  -1.124  0.00  0.00    +0.020 C 
ATOM     22  C   LIG    1       -6.545   9.154  -1.137  0.00  0.00    +0.040 C 
BRANCH  17  25
ATOM     23  C   LIG    1       -2.633  11.103   1.095  0.00  0.00    +0.090 C 
ATOM     24  C   LIG    1       -3.714  10.053   1.100  0.00  0.00    +0.520 C 
ATOM     25  N   LIG    1       -4.614  10.007   0.098  0.00  0.00    -0.720 N 
ATOM     26  H   LIG    1       -4.566  10.649  -0.627  0.00  0.00    +0.400 HD
ATOM     27  O   LIG    1       -3.775   9.249   2.006  0.00  0.00    -0.530 OA
ENDBRANCH  17  25
ENDBRANCH   1  17
TORSDOF 3
