REMARK  Name = ZINCvU000000076O.0
REMARK                            x       y       z     vdW  Elec       q    Type
REMARK                         _______ _______ _______ _____ _____    ______ ____
ROOT
ATOM      1  C   LIG    1        0.014  -0.035  -0.385  0.00  0.00    +0.100 A 
ATOM      2  C   LIG    1        1.228  -0.693  -0.403  0.00  0.00    +0.040 A 
ATOM      3  C   LIG    1        2.412   0.025  -0.211  0.00  0.00    -0.140 A 
ATOM      4  C   LIG    1        2.362   1.405  -0.002  0.00  0.00    +0.050 A 
ATOM      5  C   LIG    1        1.147   2.056   0.014  0.00  0.00    -0.040 A 
ATOM      6  C   LIG    1       -0.028   1.343  -0.176  0.00  0.00    +0.140 A 
ENDROOT
BRANCH   3   7
ATOM      7  C   LIG    1        3.712  -0.674  -0.230  0.00  0.00    +0.570 C 
ATOM      8  N   LIG    1        4.852   0.019  -0.045  0.00  0.00    -0.670 N 
ATOM      9  H   LIG    1        4.826   0.986   0.026  0.00  0.00    +0.410 HD
ATOM     10  O   LIG    1        3.753  -1.876  -0.412  0.00  0.00    -0.520 OA
BRANCH   8  11
ATOM     11  C   LIG    1        6.076  -0.656   0.045  0.00  0.00    +0.140 A 
ATOM     12  C   LIG    1        7.068  -0.185   0.895  0.00  0.00    -0.010 A 
ATOM     13  C   LIG    1        8.273  -0.854   0.988  0.00  0.00    +0.050 A 
ATOM     14  C   LIG    1        8.495  -1.992   0.223  0.00  0.00    +0.070 A 
ATOM     15  C   LIG    1        7.505  -2.460  -0.631  0.00  0.00    -0.010 A 
ATOM     16  C   LIG    1        6.299  -1.794  -0.720  0.00  0.00    +0.030 A 
BRANCH  14  17
ATOM     17  N   LIG    1        9.717  -2.667   0.313  0.00  0.00    -0.480 N 
ATOM     18  C   LIG    1        9.526  -4.051   0.818  0.00  0.00    +0.180 C 
ATOM     19  C   LIG    1       10.816  -4.777   0.360  0.00  0.00    +0.030 C 
ATOM     20  C   LIG    1       11.088  -4.156  -1.029  0.00  0.00    +0.010 C 
ATOM     21  C   LIG    1       10.345  -2.807  -1.019  0.00  0.00    +0.170 C 
ENDBRANCH  14  17
ENDBRANCH   8  11
ENDBRANCH   3   7
BRANCH   1  23
ATOM     22  C   LIG    1       -1.022  -2.139  -0.780  0.00  0.00    +0.240 C 
ATOM     23  O   LIG    1       -1.140  -0.730  -0.571  0.00  0.00    -0.300 OA
ENDBRANCH   1  23
BRANCH   6  24
ATOM     24  O   LIG    1       -1.222   1.990  -0.164  0.00  0.00    -0.290 OA
BRANCH  24  25
ATOM     25  C   LIG    1       -1.193   3.402   0.055  0.00  0.00    +0.260 C 
BRANCH  25  26
ATOM     26  C   LIG    1       -2.599   3.943   0.035  0.00  0.00    -0.090 A 
ATOM     27  C   LIG    1       -3.155   4.378  -1.154  0.00  0.00    +0.060 A 
ATOM     28  C   LIG    1       -4.447   4.870  -1.174  0.00  0.00    +0.030 A 
ATOM     29  C   LIG    1       -5.180   4.936  -0.002  0.00  0.00    -0.020 A 
ATOM     30  C   LIG    1       -4.621   4.506   1.188  0.00  0.00    +0.030 A 
ATOM     31 CL   LIG    1       -6.799   5.561  -0.025  0.00  0.00    -0.060 Cl
ATOM     32  C   LIG    1       -3.331   4.009   1.206  0.00  0.00    +0.060 A 
ENDBRANCH  25  26
ENDBRANCH  24  25
ENDBRANCH   6  24
TORSDOF 7
