REMARK  Name = ZINCbw0000000HcY.0
REMARK                            x       y       z     vdW  Elec       q    Type
REMARK                         _______ _______ _______ _____ _____    ______ ____
ROOT
ATOM      1  C   LIG    1        1.401   1.607  -0.003  0.00  0.00    -0.050 A 
ATOM      2  C   LIG    1        1.632   2.972  -0.003  0.00  0.00    +0.010 A 
ATOM      3  C   LIG    1        2.923   3.456  -0.008  0.00  0.00    +0.060 A 
ATOM      4  C   LIG    1        3.999   2.566  -0.024  0.00  0.00    -0.040 A 
ATOM      5  C   LIG    1        3.759   1.190  -0.028  0.00  0.00    +0.060 A 
ATOM      6  C   LIG    1        2.462   0.720  -0.018  0.00  0.00    +0.010 A 
ENDROOT
BRANCH   1   8
ATOM      7  C   LIG    1       -0.753   1.593  -1.232  0.00  0.00    +0.030 C 
ATOM      8  C   LIG    1       -0.013   1.086   0.008  0.00  0.00    +0.020 C 
ATOM      9  C   LIG    1       -0.729   1.579   1.267  0.00  0.00    +0.030 C 
ENDBRANCH   1   8
BRANCH   4  10
ATOM     10  C   LIG    1        5.343   3.062  -0.035  0.00  0.00    +0.250 C 
ATOM     11  N   LIG    1        6.408   3.455  -0.044  0.00  0.00    -0.420 NA
ENDBRANCH   4  10
TORSDOF 2
