REMARK  Name = ZINCrH000004vJdZ.0
REMARK                            x       y       z     vdW  Elec       q    Type
REMARK                         _______ _______ _______ _____ _____    ______ ____
ROOT
ATOM      1  C   LIG    1       -4.783   0.884   0.035  0.00  0.00    +0.520 C 
ATOM      2  N   LIG    1       -6.035   1.383   0.038  0.00  0.00    -0.650 N 
ATOM      3  H   LIG    1       -6.176   2.340   0.113  0.00  0.00    +0.420 HD
ATOM      4  O   LIG    1       -4.608  -0.316   0.023  0.00  0.00    -0.490 OA
ENDROOT
BRANCH   2   5
ATOM      5  C   LIG    1       -7.131   0.521  -0.067  0.00  0.00    +0.170 A 
ATOM      6  C   LIG    1       -7.088  -0.728   0.511  0.00  0.00    +0.060 A 
ATOM      7  C   LIG    1       -8.175  -1.594   0.421  0.00  0.00    +0.070 A 
ATOM      8  C   LIG    1       -9.303  -1.234  -0.253  0.00  0.00    -0.030 A 
ATOM      9  C   LIG    1       -9.382   0.030  -0.863  0.00  0.00    -0.080 A 
ATOM     10  C   LIG    1      -10.533   0.432  -1.565  0.00  0.00    +0.100 A 
ATOM     11  C   LIG    1      -10.541   1.675  -2.132  0.00  0.00    -0.030 A 
ATOM     12  C   LIG    1       -9.429   2.504  -2.004  0.00  0.00    +0.310 A 
ATOM     13  N   LIG    1       -8.358   2.125  -1.348  0.00  0.00    -0.470 NA
ATOM     14 CL   LIG    1      -10.641  -2.336  -0.359  0.00  0.00    -0.050 Cl
ATOM     15  C   LIG    1       -8.287   0.923  -0.771  0.00  0.00    +0.120 A 
ENDBRANCH   2   5
BRANCH   1  16
ATOM     16  C   LIG    1       -3.600   1.818   0.046  0.00  0.00    +0.240 C 
BRANCH  16  17
ATOM     17  O   LIG    1       -2.392   1.056   0.040  0.00  0.00    -0.290 OA
BRANCH  17  24
ATOM     18  O   LIG    1        4.543   3.914  -0.295  0.00  0.00    -0.530 OA
ATOM     19  C   LIG    1        3.506   3.286  -0.317  0.00  0.00    +0.520 C 
ATOM     20  C   LIG    1        3.515   1.850  -0.767  0.00  0.00    +0.080 C 
ATOM     21  C   LIG    1        2.490   1.047   0.035  0.00  0.00    +0.110 C 
ATOM     22  C   LIG    1        1.173   1.780   0.046  0.00  0.00    -0.080 A 
ATOM     23  C   LIG    1       -0.013   1.073   0.043  0.00  0.00    +0.030 A 
ATOM     24  C   LIG    1       -1.223   1.752   0.049  0.00  0.00    +0.110 A 
ATOM     25  C   LIG    1       -1.242   3.138   0.069  0.00  0.00    -0.040 A 
ATOM     26  C   LIG    1       -0.056   3.846   0.071  0.00  0.00    +0.020 A 
ATOM     27  C   LIG    1        1.155   3.168   0.060  0.00  0.00    +0.120 A 
ATOM     28  N   LIG    1        2.360   3.882   0.062  0.00  0.00    -0.660 N 
ATOM     29  H   LIG    1        2.369   4.811   0.339  0.00  0.00    +0.410 HD
ENDBRANCH  17  24
ENDBRANCH  16  17
ENDBRANCH   1  16
TORSDOF 4
