REMARK  Name = ZINCpe00000VVGtr.0
REMARK                            x       y       z     vdW  Elec       q    Type
REMARK                         _______ _______ _______ _____ _____    ______ ____
ROOT
ATOM      1  N   LIG    1        8.222  -1.944  -2.178  0.00  0.00    -0.540 NA
ATOM      2  C   LIG    1        7.168  -2.732  -2.833  0.00  0.00    +0.180 C 
ATOM      3  C   LIG    1        5.873  -1.918  -2.867  0.00  0.00    +0.180 C 
ATOM      4  N   LIG    1        5.484  -1.563  -1.495  0.00  0.00    -0.530 NA
ATOM      5  C   LIG    1        6.538  -0.775  -0.840  0.00  0.00    +0.180 C 
ATOM      6  C   LIG    1        7.834  -1.589  -0.806  0.00  0.00    +0.180 C 
ENDROOT
BRANCH   1   7
ATOM      7  C   LIG    1        9.503  -2.663  -2.194  0.00  0.00    +0.250 C 
BRANCH   7  10
ATOM      8  N   LIG    1       12.020  -0.654  -0.483  0.00  0.00    -0.370 N 
ATOM      9  C   LIG    1       11.022  -1.562  -0.467  0.00  0.00    +0.230 A 
ATOM     10  C   LIG    1       10.603  -1.738  -1.741  0.00  0.00    -0.230 A 
ATOM     11  C   LIG    1       11.377  -0.914  -2.566  0.00  0.00    +0.250 A 
ATOM     12  N   LIG    1       12.222  -0.259  -1.812  0.00  0.00    -0.300 NA
BRANCH   8  13
ATOM     13  C   LIG    1       12.762  -0.167   0.683  0.00  0.00    +0.330 C 
BRANCH  13  14
ATOM     14  C   LIG    1       14.261  -0.379   0.459  0.00  0.00    +0.180 C 
BRANCH  14  15
ATOM     15  O   LIG    1       14.984   0.096   1.596  0.00  0.00    -0.570 OA
ATOM     16  H   LIG    1       15.943  -0.007   1.524  0.00  0.00    +0.390 HD
ENDBRANCH  14  15
ENDBRANCH  13  14
ENDBRANCH   8  13
ENDBRANCH   7  10
ENDBRANCH   1   7
BRANCH   4  17
ATOM     17  C   LIG    1        4.203  -0.844  -1.479  0.00  0.00    +0.160 C 
BRANCH  17  18
ATOM     18  C   LIG    1        3.711  -0.712  -0.037  0.00  0.00    +0.270 C 
BRANCH  18  19
ATOM     19  C   LIG    1        2.396   0.025  -0.021  0.00  0.00    -0.150 A 
ATOM     20  C   LIG    1        1.208  -0.680  -0.013  0.00  0.00    +0.050 A 
ATOM     21  C   LIG    1        0.002  -0.004   0.002  0.00  0.00    +0.000 A 
ATOM     22  C   LIG    1       -0.017   1.378   0.010  0.00  0.00    +0.040 A 
ATOM     23  C   LIG    1        1.171   2.086   0.002  0.00  0.00    -0.010 A 
ATOM     24  C   LIG    1        2.379   1.410  -0.013  0.00  0.00    +0.110 A 
ATOM     25  F   LIG    1        3.540   2.101  -0.020  0.00  0.00    -0.140 F 
ENDBRANCH  18  19
BRANCH  18  26
ATOM     26  O   LIG    1        3.534  -2.013   0.528  0.00  0.00    -0.540 OA
ATOM     27  H   LIG    1        2.893  -2.562   0.057  0.00  0.00    +0.370 HD
ENDBRANCH  18  26
ENDBRANCH  17  18
ENDBRANCH   4  17
TORSDOF 9
