REMARK  Name = ZINCpe00000VVGtR.2
REMARK                            x       y       z     vdW  Elec       q    Type
REMARK                         _______ _______ _______ _____ _____    ______ ____
ROOT
ATOM      1  C   LIG    1       -3.614   1.594  -0.431  0.00  0.00    +0.020 C 
ATOM      2  C   LIG    1       -3.962   0.147  -0.073  0.00  0.00    +0.030 C 
ATOM      3  C   LIG    1       -3.920  -0.019   1.448  0.00  0.00    +0.030 C 
ATOM      4  C   LIG    1       -4.894   0.971   2.092  0.00  0.00    +0.170 C 
ATOM      5  N   LIG    1       -4.517   2.341   1.720  0.00  0.00    -0.510 NA
ATOM      6  C   LIG    1       -4.596   2.538   0.267  0.00  0.00    +0.190 C 
ENDROOT
BRANCH   1  12
ATOM      7  C   LIG    1       -0.894   0.916  -4.205  0.00  0.00    +0.340 C 
ATOM      8  N   LIG    1       -1.937   1.496  -3.355  0.00  0.00    -0.580 N 
ATOM      9  C   LIG    1       -2.108   2.810  -3.166  0.00  0.00    +0.700 C 
ATOM     10  N   LIG    1       -3.136   3.081  -2.342  0.00  0.00    -0.720 N 
ATOM     11  H   LIG    1       -3.442   3.959  -2.065  0.00  0.00    +0.440 HD
ATOM     12  C   LIG    1       -3.712   1.784  -1.946  0.00  0.00    +0.130 C 
ATOM     13  C   LIG    1       -5.165   1.673  -2.411  0.00  0.00    +0.090 C 
ATOM     14  O   LIG    1       -1.413   3.663  -3.682  0.00  0.00    -0.540 OA
ATOM     15  C   LIG    1       -2.843   0.773  -2.667  0.00  0.00    +0.530 C 
ATOM     16  O   LIG    1       -2.945  -0.435  -2.636  0.00  0.00    -0.460 OA
ENDBRANCH   1  12
BRANCH   5  17
ATOM     17  C   LIG    1       -5.345   3.325   2.430  0.00  0.00    +0.180 C 
BRANCH  17  18
ATOM     18  C   LIG    1       -5.154   3.163   3.916  0.00  0.00    -0.090 A 
ATOM     19  C   LIG    1       -3.881   3.029   4.439  0.00  0.00    +0.050 A 
ATOM     20  C   LIG    1       -3.706   2.885   5.803  0.00  0.00    +0.000 A 
ATOM     21  C   LIG    1       -4.804   2.866   6.642  0.00  0.00    +0.010 A 
ATOM     22  C   LIG    1       -6.077   2.994   6.119  0.00  0.00    +0.000 A 
ATOM     23  C   LIG    1       -6.252   3.143   4.756  0.00  0.00    +0.010 A 
ENDBRANCH  17  18
BRANCH  17  24
ATOM     24  C   LIG    1       -4.934   4.716   2.020  0.00  0.00    +0.520 C 
ATOM     25  O   LIG    1       -3.797   4.931   1.658  0.00  0.00    -0.520 OA
ATOM     26  N   LIG    1       -5.831   5.721   2.055  0.00  0.00    -0.850 N 
ATOM     27  H   LIG    1       -5.567   6.617   1.791  0.00  0.00    +0.410 HD
ATOM     28  H   LIG    1       -6.741   5.550   2.344  0.00  0.00    +0.400 HD
ENDBRANCH  17  24
ENDBRANCH   5  17
TORSDOF 4
