REMARK  Name = ZINCrH000004uEgV.0
REMARK                            x       y       z     vdW  Elec       q    Type
REMARK                         _______ _______ _______ _____ _____    ______ ____
ROOT
ATOM      1  C   LIG    1        0.002  -0.004   0.002  0.00  0.00    -0.110 A 
ATOM      2  C   LIG    1        0.023  -0.702   1.195  0.00  0.00    +0.040 A 
ATOM      3  C   LIG    1        0.041  -2.084   1.188  0.00  0.00    +0.010 A 
ATOM      4  C   LIG    1        0.039  -2.768  -0.013  0.00  0.00    +0.040 A 
ATOM      5  C   LIG    1        0.018  -2.071  -1.207  0.00  0.00    -0.120 A 
ATOM      6  C   LIG    1       -0.006  -0.689  -1.199  0.00  0.00    +0.040 A 
ENDROOT
BRANCH   1   7
ATOM      7  C   LIG    1       -0.018   1.503   0.010  0.00  0.00    +0.320 C 
BRANCH   7  10
ATOM      8  O   LIG    1        0.650   4.116   0.018  0.00  0.00    -0.520 OA
ATOM      9  C   LIG    1        1.584   3.338   0.005  0.00  0.00    +0.560 C 
ATOM     10  N   LIG    1        1.356   2.010  -0.000  0.00  0.00    -0.730 N 
ATOM     11  H   LIG    1        2.102   1.390  -0.011  0.00  0.00    +0.400 HD
BRANCH   9  12
ATOM     12  C   LIG    1        2.968   3.849  -0.006  0.00  0.00    -0.170 A 
ATOM     13  C   LIG    1        4.045   2.959  -0.021  0.00  0.00    +0.060 A 
ATOM     14  C   LIG    1        5.336   3.443  -0.031  0.00  0.00    -0.010 A 
ATOM     15  C   LIG    1        5.571   4.808  -0.026  0.00  0.00    +0.060 A 
ATOM     16  C   LIG    1        4.516   5.698  -0.011  0.00  0.00    -0.020 A 
ATOM     17  C   LIG    1        3.210   5.229  -0.006  0.00  0.00    +0.170 A 
BRANCH  17  18
ATOM     18  O   LIG    1        2.173   6.103   0.003  0.00  0.00    -0.480 OA
ATOM     19  H   LIG    1        1.879   6.356   0.889  0.00  0.00    +0.400 HD
ENDBRANCH  17  18
ENDBRANCH   9  12
ENDBRANCH   7  10
ENDBRANCH   1   7
BRANCH   5  20
ATOM     20  C   LIG    1        0.015  -2.817  -2.516  0.00  0.00    +0.360 C 
BRANCH  20  21
ATOM     21  N   LIG    1       -1.367  -3.077  -2.926  0.00  0.00    -0.490 N 
ATOM     22  C   LIG    1       -2.077  -4.215  -2.696  0.00  0.00    +0.470 A 
ATOM     23  N   LIG    1       -3.274  -4.104  -3.194  0.00  0.00    -0.490 NA
ATOM     24  C   LIG    1       -3.411  -2.891  -3.788  0.00  0.00    +0.040 A 
ATOM     25  C   LIG    1       -4.458  -2.264  -4.467  0.00  0.00    +0.070 A 
ATOM     26  C   LIG    1       -4.287  -1.003  -4.966  0.00  0.00    +0.000 A 
ATOM     27  C   LIG    1       -3.082  -0.335  -4.805  0.00  0.00    +0.030 A 
ATOM     28  C   LIG    1       -2.034  -0.935  -4.138  0.00  0.00    +0.010 A 
ATOM     29  C   LIG    1       -2.189  -2.215  -3.625  0.00  0.00    +0.050 A 
ENDBRANCH  20  21
ENDBRANCH   5  20
TORSDOF 6
