REMARK  Name = ZINCbw0000000HjI.0
REMARK                            x       y       z     vdW  Elec       q    Type
REMARK                         _______ _______ _______ _____ _____    ______ ____
ROOT
ATOM      1  C   LIG    1        1.138   3.595   0.011  0.00  0.00    +0.130 C 
ATOM      2  C   LIG    1        1.170   2.089   0.002  0.00  0.00    -0.010 A 
ATOM      3  C   LIG    1        2.384   1.428  -0.013  0.00  0.00    -0.020 A 
ATOM      4  C   LIG    1        2.423   0.046  -0.021  0.00  0.00    +0.170 A 
ATOM      5  C   LIG    1        1.227  -0.684  -0.013  0.00  0.00    -0.230 A 
ATOM      6  C   LIG    1        0.002  -0.004   0.002  0.00  0.00    +0.040 A 
ATOM      7 CL   LIG    1       -1.488  -0.895   0.012  0.00  0.00    -0.020 Cl
ATOM      8  F   LIG    1        3.611  -0.599  -0.035  0.00  0.00    -0.120 F 
ATOM      9  C   LIG    1       -0.017   1.375   0.010  0.00  0.00    +0.010 A 
ENDROOT
BRANCH   5  10
ATOM     10  C   LIG    1        1.257  -2.152  -0.022  0.00  0.00    +0.490 C 
ATOM     11  O   LIG    1        0.219  -2.780  -0.016  0.00  0.00    -0.430 OA
ENDBRANCH   5  10
TORSDOF 1
