REMARK  Name = ZINCpe00000bDfAi.1
REMARK                            x       y       z     vdW  Elec       q    Type
REMARK                         _______ _______ _______ _____ _____    ______ ____
ROOT
ATOM      1  N   LIG    1       -6.802   6.221   3.335  0.00  0.00    -0.460 N 
ATOM      2  C   LIG    1       -7.327   5.331   2.277  0.00  0.00    +0.190 C 
ATOM      3  C   LIG    1       -6.383   4.116   2.200  0.00  0.00    +0.050 C 
ATOM      4  C   LIG    1       -5.284   4.391   3.252  0.00  0.00    +0.160 C 
ATOM      5  C   LIG    1       -5.347   5.929   3.431  0.00  0.00    +0.200 C 
ENDROOT
BRANCH   1  10
ATOM      6  C   LIG    1       -6.640   9.373   1.660  0.00  0.00    +0.290 A 
ATOM      7  N   LIG    1       -7.438  10.140   2.386  0.00  0.00    -0.500 NA
ATOM      8  C   LIG    1       -8.061   9.660   3.450  0.00  0.00    +0.170 A 
ATOM      9  C   LIG    1       -7.872   8.337   3.805  0.00  0.00    -0.140 A 
ATOM     10  C   LIG    1       -7.023   7.552   3.019  0.00  0.00    +0.330 A 
ATOM     11  C   LIG    1       -8.565   7.755   5.010  0.00  0.00    +0.140 C 
ATOM     12  C   LIG    1       -8.967  10.546   4.267  0.00  0.00    +0.160 C 
ATOM     13  N   LIG    1       -6.426   8.102   1.968  0.00  0.00    -0.490 NA
BRANCH   6  17
ATOM     14  C   LIG    1       -5.491  11.819  -1.023  0.00  0.00    +0.290 C 
ATOM     15  N   LIG    1       -6.161  11.246   0.147  0.00  0.00    -0.710 N 
ATOM     16  H   LIG    1       -6.748  11.797   0.688  0.00  0.00    +0.410 HD
ATOM     17  C   LIG    1       -5.960   9.954   0.473  0.00  0.00    +0.580 C 
ATOM     18  O   LIG    1       -5.225   9.264  -0.203  0.00  0.00    -0.500 OA
ENDBRANCH   6  17
ENDBRANCH   1  10
BRANCH   4  19
ATOM     19  N   LIG    1       -3.967   3.980   2.747  0.00  0.00    -0.670 NA
ATOM     20  H   LIG    1       -3.239   4.579   3.106  0.00  0.00    +0.340 HD
BRANCH  19  21
ATOM     21  C   LIG    1       -3.697   2.572   3.069  0.00  0.00    +0.310 C 
BRANCH  21  22
ATOM     22  C   LIG    1       -2.341   2.187   2.537  0.00  0.00    +0.210 A 
ATOM     23  N   LIG    1       -2.086   1.790   1.320  0.00  0.00    -0.460 NA
ATOM     24  C   LIG    1       -0.775   1.530   1.205  0.00  0.00    +0.000 A 
ATOM     25  C   LIG    1       -0.194   1.784   2.393  0.00  0.00    +0.130 A 
ATOM     26  C   LIG    1       -0.073   1.046  -0.038  0.00  0.00    +0.140 C 
ATOM     27  N   LIG    1       -1.187   2.201   3.238  0.00  0.00    -0.570 N 
ATOM     28  H   LIG    1       -1.081   2.458   4.168  0.00  0.00    +0.420 HD
ENDBRANCH  21  22
ENDBRANCH  19  21
ENDBRANCH   4  19
TORSDOF 5
