REMARK  Name = ZINCqH0000000ugz.0
REMARK                            x       y       z     vdW  Elec       q    Type
REMARK                         _______ _______ _______ _____ _____    ______ ____
ROOT
ATOM      1  N   LIG    1       -4.172   1.628  -0.223  0.00  0.00    -0.730 N 
ATOM      2  H   LIG    1       -4.404   0.704  -0.040  0.00  0.00    +0.400 HD
ENDROOT
BRANCH   1   7
ATOM      3  C   LIG    1       -7.336   2.882  -1.621  0.00  0.00    +0.190 A 
ATOM      4  C   LIG    1       -6.998   4.204  -1.881  0.00  0.00    -0.040 A 
ATOM      5  C   LIG    1       -5.728   4.665  -1.592  0.00  0.00    +0.060 A 
ATOM      6  C   LIG    1       -4.791   3.814  -1.037  0.00  0.00    -0.070 A 
ATOM      7  C   LIG    1       -5.121   2.489  -0.779  0.00  0.00    +0.240 A 
ATOM      8  C   LIG    1       -6.396   2.023  -1.069  0.00  0.00    -0.190 A 
ATOM      9  C   LIG    1       -6.759   0.589  -0.784  0.00  0.00    +0.090 C 
BRANCH   3  12
ATOM     10  C   LIG    1      -10.788   2.607  -3.093  0.00  0.00    +0.110 C 
ATOM     11  C   LIG    1       -9.359   3.027  -2.863  0.00  0.00    +0.510 C 
ATOM     12  N   LIG    1       -8.622   2.417  -1.914  0.00  0.00    -0.670 N 
ATOM     13  H   LIG    1       -8.984   1.655  -1.434  0.00  0.00    +0.410 HD
ATOM     14  O   LIG    1       -8.873   3.914  -3.532  0.00  0.00    -0.520 OA
ENDBRANCH   3  12
ENDBRANCH   1   7
BRANCH   1  15
ATOM     15  C   LIG    1       -2.826   2.120   0.082  0.00  0.00    +0.260 C 
ATOM     16  C   LIG    1       -2.216   1.268   1.198  0.00  0.00    +0.040 C 
ATOM     17  C   LIG    1       -0.731   1.613   1.309  0.00  0.00    +0.050 C 
ATOM     18  C   LIG    1       -0.015   1.131   0.047  0.00  0.00    +0.260 C 
ATOM     19  N   LIG    1       -0.709   1.609  -1.142  0.00  0.00    -0.560 N 
ATOM     20  C   LIG    1       -1.972   2.035  -1.150  0.00  0.00    +0.500 C 
ATOM     21  O   LIG    1       -2.458   2.372  -2.209  0.00  0.00    -0.510 OA
BRANCH  19  22
ATOM     22  C   LIG    1       -0.004   1.621  -2.353  0.00  0.00    +0.100 A 
ATOM     23  C   LIG    1       -0.025   0.508  -3.181  0.00  0.00    +0.050 A 
ATOM     24  C   LIG    1        0.665   0.526  -4.378  0.00  0.00    +0.010 A 
ATOM     25  C   LIG    1        1.388   1.646  -4.746  0.00  0.00    +0.060 A 
ATOM     26  C   LIG    1        1.417   2.756  -3.921  0.00  0.00    -0.010 A 
ATOM     27  C   LIG    1        0.723   2.748  -2.725  0.00  0.00    +0.110 A 
ATOM     28  F   LIG    1        0.751   3.831  -1.919  0.00  0.00    -0.130 F 
ENDBRANCH  19  22
ENDBRANCH   1  15
TORSDOF 4
