REMARK  Name = ZINCqH00000027TT.0
REMARK                            x       y       z     vdW  Elec       q    Type
REMARK                         _______ _______ _______ _____ _____    ______ ____
ROOT
ATOM      1  C   LIG    1        8.105  -5.104  -0.116  0.00  0.00    -0.090 A 
ATOM      2  C   LIG    1        7.554  -6.338   0.230  0.00  0.00    +0.030 A 
ATOM      3  C   LIG    1        6.184  -6.508   0.224  0.00  0.00    +0.060 A 
ATOM      4  C   LIG    1        5.355  -5.457  -0.118  0.00  0.00    -0.040 A 
ATOM      5  C   LIG    1        5.894  -4.227  -0.470  0.00  0.00    +0.130 A 
ATOM      6  C   LIG    1        7.266  -4.045  -0.467  0.00  0.00    +0.020 A 
ENDROOT
BRANCH   1  13
ATOM      7  C   LIG    1       11.863  -1.724   3.665  0.00  0.00    +0.020 C 
ATOM      8  C   LIG    1       11.296  -2.062   2.284  0.00  0.00    -0.020 C 
ATOM      9  C   LIG    1       12.096  -3.215   1.674  0.00  0.00    +0.020 C 
ATOM     10  C   LIG    1       11.549  -3.528   0.278  0.00  0.00    +0.270 C 
ATOM     11  N   LIG    1       10.106  -3.783   0.382  0.00  0.00    -0.610 N 
ATOM     12  C   LIG    1        9.255  -2.775   1.030  0.00  0.00    +0.270 C 
ATOM     13  C   LIG    1        9.572  -4.918  -0.112  0.00  0.00    +0.560 C 
ATOM     14  O   LIG    1       10.296  -5.788  -0.553  0.00  0.00    -0.530 OA
ATOM     15  C   LIG    1        9.829  -2.473   2.422  0.00  0.00    +0.020 C 
ENDBRANCH   1  13
BRANCH   5  16
ATOM     16  O   LIG    1        5.073  -3.198  -0.811  0.00  0.00    -0.310 OA
BRANCH  16  17
ATOM     17  C   LIG    1        3.668  -3.456  -0.792  0.00  0.00    +0.330 C 
BRANCH  17  18
ATOM     18  C   LIG    1        2.923  -2.209  -1.196  0.00  0.00    +0.050 A 
ATOM     19  C   LIG    1        3.487  -1.027  -1.526  0.00  0.00    +0.120 A 
ATOM     20  N   LIG    1        2.468  -0.163  -1.825  0.00  0.00    -0.360 N 
ATOM     21  C   LIG    1        2.451   1.144  -2.216  0.00  0.00    +0.230 A 
ATOM     22  C   LIG    1        1.282   1.776  -2.453  0.00  0.00    +0.010 A 
ATOM     23  C   LIG    1        0.064   1.093  -2.298  0.00  0.00    +0.050 A 
ATOM     24  C   LIG    1        0.067  -0.210  -1.909  0.00  0.00    +0.070 A 
ATOM     25  C   LIG    1        1.296  -0.856  -1.666  0.00  0.00    +0.230 A 
ATOM     26  N   LIG    1        1.596  -2.089  -1.286  0.00  0.00    -0.480 NA
ENDBRANCH  17  18
ENDBRANCH  16  17
ENDBRANCH   5  16
TORSDOF 4
