REMARK  Name = ZINCqH00000079nj.0
REMARK                            x       y       z     vdW  Elec       q    Type
REMARK                         _______ _______ _______ _____ _____    ______ ____
ROOT
ATOM      1  N   LIG    1       -0.453   1.393   3.718  0.00  0.00    -0.730 N 
ATOM      2  H   LIG    1       -1.248   1.939   3.817  0.00  0.00    +0.400 HD
ATOM      3  C   LIG    1        0.000   1.080   2.488  0.00  0.00    +0.510 C 
ATOM      4  O   LIG    1        0.994   0.397   2.363  0.00  0.00    -0.540 OA
ENDROOT
BRANCH   1   5
ATOM      5  C   LIG    1        0.256   0.907   4.905  0.00  0.00    +0.260 C 
BRANCH   5   6
ATOM      6  C   LIG    1       -0.461   1.401   6.164  0.00  0.00    +0.070 C 
BRANCH   6  10
ATOM      7  C   LIG    1        1.604  -0.021   9.629  0.00  0.00    +0.100 A 
ATOM      8  C   LIG    1        0.589  -0.776   9.065  0.00  0.00    -0.030 A 
ATOM      9  C   LIG    1       -0.080  -0.311   7.948  0.00  0.00    +0.020 A 
ATOM     10  C   LIG    1        0.268   0.902   7.385  0.00  0.00    -0.080 A 
ATOM     11  C   LIG    1        1.280   1.661   7.942  0.00  0.00    -0.030 A 
ATOM     12  C   LIG    1        1.951   1.204   9.065  0.00  0.00    +0.100 A 
BRANCH   7  14
ATOM     13  C   LIG    1        1.849  -1.738  11.255  0.00  0.00    +0.250 C 
ATOM     14  O   LIG    1        2.259  -0.473  10.731  0.00  0.00    -0.310 OA
ENDBRANCH   7  14
BRANCH  12  15
ATOM     15  O   LIG    1        2.947   1.949   9.614  0.00  0.00    -0.310 OA
ATOM     16  C   LIG    1        3.250   3.194   8.982  0.00  0.00    +0.250 C 
ENDBRANCH  12  15
ENDBRANCH   6  10
ENDBRANCH   5   6
ENDBRANCH   1   5
BRANCH   3  17
ATOM     17  C   LIG    1       -0.729   1.579   1.267  0.00  0.00    +0.070 C 
BRANCH  17  18
ATOM     18  C   LIG    1       -0.013   1.086   0.008  0.00  0.00    +0.070 C 
BRANCH  18  19
ATOM     19  C   LIG    1       -0.742   1.585  -1.213  0.00  0.00    +0.420 C 
ATOM     20  O   LIG    1       -1.736   2.269  -1.088  0.00  0.00    -0.460 OA
BRANCH  19  21
ATOM     21  C   LIG    1       -0.249   1.245  -2.549  0.00  0.00    -0.210 A 
ATOM     22  C   LIG    1       -0.855   1.654  -3.702  0.00  0.00    -0.140 A 
ATOM     23  S   LIG    1       -0.010   1.078  -5.065  0.00  0.00    +0.180 S 
ATOM     24  C   LIG    1        1.184   0.258  -4.074  0.00  0.00    -0.200 A 
ATOM     25  C   LIG    1        2.344  -0.539  -4.613  0.00  0.00    +0.150 C 
ATOM     26  C   LIG    1       -2.100   2.501  -3.761  0.00  0.00    +0.150 C 
ATOM     27  C   LIG    1        0.926   0.437  -2.785  0.00  0.00    +0.050 A 
ENDBRANCH  19  21
ENDBRANCH  18  19
ENDBRANCH  17  18
ENDBRANCH   3  17
TORSDOF 9
