REMARK  Name = ZINCrH00000No4x8.0
REMARK                            x       y       z     vdW  Elec       q    Type
REMARK                         _______ _______ _______ _____ _____    ______ ____
ROOT
ATOM      1  C   LIG    1       -0.017   1.400   0.010  0.00  0.00    +0.440 C 
ATOM      2  O   LIG    1       -1.078   1.994   0.018  0.00  0.00    -0.470 OA
ENDROOT
BRANCH   1   3
ATOM      3  C   LIG    1        0.002  -0.004   0.002  0.00  0.00    -0.260 C 
ATOM      4  C   LIG    1       -1.207  -0.724   0.010  0.00  0.00    +0.220 A 
ATOM      5  N   LIG    1       -1.342  -2.066   0.004  0.00  0.00    -0.600 N 
ATOM      6  H   LIG    1       -0.564  -2.645  -0.007  0.00  0.00    +0.430 HD
ATOM      7  C   LIG    1       -2.618  -2.592   0.014  0.00  0.00    +0.120 A 
ATOM      8  C   LIG    1       -3.010  -3.938   0.011  0.00  0.00    +0.030 A 
ATOM      9  C   LIG    1       -4.343  -4.279   0.022  0.00  0.00    +0.070 A 
ATOM     10  C   LIG    1       -5.325  -3.303   0.037  0.00  0.00    +0.030 A 
ATOM     11  C   LIG    1       -4.961  -1.971   0.041  0.00  0.00    +0.100 A 
ATOM     12  C   LIG    1       -3.622  -1.622   0.029  0.00  0.00    -0.210 A 
ATOM     13  S   LIG    1       -2.793  -0.060   0.036  0.00  0.00    +0.290 S 
BRANCH   3  14
ATOM     14  C   LIG    1        1.252  -0.703  -0.014  0.00  0.00    +0.260 C 
ATOM     15  N   LIG    1        2.243  -1.258  -0.026  0.00  0.00    -0.420 NA
ENDBRANCH   3  14
ENDBRANCH   1   3
BRANCH   1  17
ATOM     16  C   LIG    1        1.766   2.332  -1.439  0.00  0.00    +0.090 C 
ATOM     17  C   LIG    1        1.278   2.171   0.002  0.00  0.00    +0.000 C 
BRANCH  17  18
ATOM     18  S   LIG    1        1.012   3.805   0.734  0.00  0.00    +0.090 S 
BRANCH  18  19
ATOM     19  C   LIG    1        2.666   4.412   0.737  0.00  0.00    +0.200 A 
ATOM     20  N   LIG    1        3.732   3.776   0.303  0.00  0.00    -0.330 NA
ATOM     21  N   LIG    1        4.780   4.504   0.451  0.00  0.00    -0.030 NA
ATOM     22  N   LIG    1        4.468   5.637   0.979  0.00  0.00    -0.070 NA
ATOM     23  N   LIG    1        3.077   5.623   1.181  0.00  0.00    -0.350 N 
BRANCH  23  24
ATOM     24  C   LIG    1        2.250   6.690   1.751  0.00  0.00    +0.260 C 
ATOM     25  C   LIG    1        2.423   7.987   0.934  0.00  0.00    +0.030 C 
ATOM     26  C   LIG    1        2.385   9.113   1.997  0.00  0.00    +0.040 C 
ATOM     27  C   LIG    1        3.153   8.486   3.187  0.00  0.00    +0.030 C 
ATOM     28  C   LIG    1        2.714   7.007   3.183  0.00  0.00    +0.040 C 
ENDBRANCH  23  24
ENDBRANCH  18  19
ENDBRANCH  17  18
ENDBRANCH   1  17
TORSDOF 6
