REMARK  Name = ZINCpe000000Wv9o.0
REMARK                            x       y       z     vdW  Elec       q    Type
REMARK                         _______ _______ _______ _____ _____    ______ ____
ROOT
ATOM      1  CA  LIG    1       -4.676  -0.636   0.568  0.00  0.00    +0.250 C 
ATOM      2  N   LIG    1       -5.253   0.621   0.112  0.00  0.00    -0.700 N 
ATOM      3  H   LIG    1       -6.125   0.881   0.450  0.00  0.00    +0.410 HD
ATOM      4  C   LIG    1       -4.635   1.431  -0.753  0.00  0.00    +0.520 C 
ATOM      5  CA  LIG    1       -3.289   1.120  -1.334  0.00  0.00    +0.260 C 
ATOM      6  N   LIG    1       -2.981  -0.299  -1.222  0.00  0.00    -0.710 N 
ATOM      7  H   LIG    1       -2.295  -0.672  -1.798  0.00  0.00    +0.410 HD
ATOM      8  O   LIG    1       -5.186   2.461  -1.081  0.00  0.00    -0.530 OA
ATOM      9  C   LIG    1       -3.601  -1.111  -0.362  0.00  0.00    +0.530 C 
ATOM     10  O   LIG    1       -3.283  -2.281  -0.333  0.00  0.00    -0.530 OA
ENDROOT
BRANCH   5  11
ATOM     11  C   LIG    1       -2.223   1.924  -0.587  0.00  0.00    +0.160 C 
ATOM     12  C   LIG    1       -0.833   1.634  -1.185  0.00  0.00    +0.020 C 
ATOM     13  C   LIG    1       -0.013   1.086   0.008  0.00  0.00    +0.010 C 
ATOM     14  C   LIG    1       -0.810   1.621   1.224  0.00  0.00    +0.200 C 
ATOM     15  O   LIG    1       -2.186   1.524   0.793  0.00  0.00    -0.370 OA
ENDBRANCH   5  11
BRANCH   1  16
ATOM     16  C   LIG    1       -5.777  -1.696   0.643  0.00  0.00    +0.140 C 
BRANCH  16  24
ATOM     17  C   LIG    1       -9.561   1.092   0.614  0.00  0.00    +0.110 A 
ATOM     18  C   LIG    1      -10.193   1.150   1.853  0.00  0.00    -0.050 A 
ATOM     19  C   LIG    1       -9.702   0.439   2.925  0.00  0.00    +0.040 A 
ATOM     20  C   LIG    1       -8.564  -0.347   2.776  0.00  0.00    +0.070 A 
ATOM     21  N   LIG    1       -7.851  -1.154   3.637  0.00  0.00    -0.590 N 
ATOM     22  H   LIG    1       -8.067  -1.301   4.571  0.00  0.00    +0.420 HD
ATOM     23  C   LIG    1       -6.795  -1.719   2.976  0.00  0.00    +0.260 A 
ATOM     24  C   LIG    1       -6.779  -1.305   1.699  0.00  0.00    -0.190 A 
ATOM     25  C   LIG    1       -7.923  -0.408   1.525  0.00  0.00    -0.060 A 
ATOM     26  C   LIG    1       -8.430   0.318   0.445  0.00  0.00    +0.010 A 
BRANCH  17  28
ATOM     27  C   LIG    1      -11.231   2.581  -0.191  0.00  0.00    +0.230 C 
ATOM     28  O   LIG    1      -10.059   1.801  -0.434  0.00  0.00    -0.320 OA
ENDBRANCH  17  28
ENDBRANCH  16  24
ENDBRANCH   1  16
TORSDOF 4
