REMARK  Name = ZINCrD0000075fVn.0
REMARK                            x       y       z     vdW  Elec       q    Type
REMARK                         _______ _______ _______ _____ _____    ______ ____
ROOT
ATOM      1  C   LIG    1       -2.114   4.933   3.538  0.00  0.00    +0.220 A 
ATOM      2  N   LIG    1       -1.063   4.956   4.322  0.00  0.00    -0.310 NA
ATOM      3  N   LIG    1       -0.753   3.634   4.668  0.00  0.00    -0.330 NA
ATOM      4  C   LIG    1       -1.627   2.848   4.090  0.00  0.00    +0.390 A 
ATOM      5  N   LIG    1       -2.488   3.629   3.371  0.00  0.00    -0.470 N 
ENDROOT
BRANCH   4   6
ATOM      6  N   LIG    1       -1.669   1.463   4.186  0.00  0.00    -0.450 N 
ATOM      7  C   LIG    1       -0.694   0.835   3.259  0.00  0.00    +0.190 C 
ATOM      8  C   LIG    1       -0.498  -0.582   3.856  0.00  0.00    +0.040 C 
ATOM      9  C   LIG    1       -0.536  -0.323   5.379  0.00  0.00    +0.030 C 
ATOM     10  C   LIG    1       -1.283   1.014   5.542  0.00  0.00    +0.200 C 
ENDBRANCH   4   6
BRANCH   1  11
ATOM     11  S   LIG    1       -2.906   6.337   2.826  0.00  0.00    +0.050 S 
BRANCH  11  12
ATOM     12  C   LIG    1       -1.915   7.723   3.448  0.00  0.00    +0.100 C 
BRANCH  12  13
ATOM     13  C   LIG    1       -2.483   9.038   2.910  0.00  0.00    +0.240 C 
BRANCH  13  14
ATOM     14  O   LIG    1       -1.702  10.130   3.400  0.00  0.00    -0.300 OA
BRANCH  14  19
ATOM     15  F   LIG    1       -3.210  15.160   1.841  0.00  0.00    -0.140 F 
ATOM     16  C   LIG    1       -2.838  13.920   2.226  0.00  0.00    +0.060 A 
ATOM     17  C   LIG    1       -1.744  13.752   3.058  0.00  0.00    +0.030 A 
ATOM     18  C   LIG    1       -1.363  12.484   3.451  0.00  0.00    +0.020 A 
ATOM     19  C   LIG    1       -2.076  11.378   3.013  0.00  0.00    +0.120 A 
ATOM     20  C   LIG    1       -3.169  11.547   2.175  0.00  0.00    -0.040 A 
ATOM     21  C   LIG    1       -3.551  12.817   1.787  0.00  0.00    +0.030 A 
ENDBRANCH  14  19
ENDBRANCH  13  14
ENDBRANCH  12  13
ENDBRANCH  11  12
ENDBRANCH   1  11
BRANCH   5  22
ATOM     22  C   LIG    1       -3.616   3.153   2.568  0.00  0.00    +0.340 C 
BRANCH  22  23
ATOM     23  C   LIG    1       -4.871   3.083   3.442  0.00  0.00    +0.140 C 
ATOM     24  C   LIG    1       -6.060   2.492   2.643  0.00  0.00    +0.030 C 
ATOM     25  C   LIG    1       -7.279   3.072   3.400  0.00  0.00    +0.010 C 
ATOM     26  C   LIG    1       -6.713   4.295   4.147  0.00  0.00    +0.200 C 
ATOM     27  O   LIG    1       -5.324   4.409   3.795  0.00  0.00    -0.360 OA
ENDBRANCH  22  23
ENDBRANCH   5  22
TORSDOF 8
