REMARK  Name = ZINCkj00000GeRHq.0
REMARK                            x       y       z     vdW  Elec       q    Type
REMARK                         _______ _______ _______ _____ _____    ______ ____
ROOT
ATOM      1  C   LIG    1        2.144  -3.770   3.781  0.00  0.00    +0.090 C 
ATOM      2  C   LIG    1        0.717  -3.234   3.645  0.00  0.00    +0.230 C 
ATOM      3  C   LIG    1       -0.285  -4.359   3.901  0.00  0.00    +0.250 C 
ATOM      4  N   LIG    1       -1.665  -3.885   3.720  0.00  0.00    -0.390 N 
ATOM      5  C   LIG    1       -2.528  -5.101   3.774  0.00  0.00    +0.260 C 
ATOM      6  C   LIG    1       -2.604  -5.623   2.301  0.00  0.00    +0.070 C 
ATOM      7  C   LIG    1       -1.827  -4.582   1.456  0.00  0.00    +0.080 C 
ATOM      8  C   LIG    1       -1.870  -3.339   2.365  0.00  0.00    +0.170 C 
ATOM      9  C   LIG    1       -0.867  -2.311   1.936  0.00  0.00    +0.320 C 
ATOM     10  H   LIG    1       -1.923  -3.216   4.430  0.00  0.00    +0.430 HD
ATOM     11  N   LIG    1        0.495  -2.745   2.273  0.00  0.00    -0.620 N 
ATOM     12  C   LIG    1        1.496  -2.693   1.371  0.00  0.00    +0.540 C 
ATOM     13  O   LIG    1        2.611  -3.053   1.682  0.00  0.00    -0.490 OA
ENDROOT
BRANCH  12  14
ATOM     14  C   LIG    1        1.229  -2.186  -0.022  0.00  0.00    +0.230 C 
BRANCH  14  15
ATOM     15  C   LIG    1        1.208  -0.679  -0.014  0.00  0.00    -0.140 A 
ATOM     16  C   LIG    1        0.002  -0.004   0.002  0.00  0.00    +0.000 A 
ATOM     17  C   LIG    1       -0.017   1.378   0.010  0.00  0.00    +0.020 A 
ATOM     18  C   LIG    1        1.171   2.086   0.002  0.00  0.00    +0.020 A 
ATOM     19  C   LIG    1        2.377   1.411  -0.014  0.00  0.00    +0.020 A 
ATOM     20  C   LIG    1        2.396   0.029  -0.022  0.00  0.00    +0.010 A 
ENDBRANCH  14  15
BRANCH  14  21
ATOM     21  N   LIG    1        2.288  -2.656  -0.926  0.00  0.00    -0.820 NA
ATOM     22  H   LIG    1        3.192  -2.322  -0.628  0.00  0.00    +0.360 HD
ATOM     23  H   LIG    1        2.097  -2.383  -1.879  0.00  0.00    +0.360 HD
ENDBRANCH  14  21
ENDBRANCH  12  14
TORSDOF 3
