REMARK  Name = ZINCkj00000GeRHq.1
REMARK                            x       y       z     vdW  Elec       q    Type
REMARK                         _______ _______ _______ _____ _____    ______ ____
ROOT
ATOM      1  C   LIG    1        0.311  -1.688  -4.330  0.00  0.00    +0.050 C 
ATOM      2  C   LIG    1        1.350  -1.515  -3.220  0.00  0.00    +0.250 C 
ATOM      3  C   LIG    1        2.250  -2.757  -3.166  0.00  0.00    +0.260 C 
ATOM      4  N   LIG    1        1.445  -3.879  -2.701  0.00  0.00    -0.400 N 
ATOM      5  C   LIG    1        2.145  -5.173  -2.641  0.00  0.00    +0.260 C 
ATOM      6  C   LIG    1        1.271  -6.015  -1.675  0.00  0.00    +0.070 C 
ATOM      7  C   LIG    1        0.523  -4.973  -0.804  0.00  0.00    +0.080 C 
ATOM      8  C   LIG    1        1.066  -3.624  -1.284  0.00  0.00    +0.170 C 
ATOM      9  C   LIG    1        0.027  -2.508  -1.286  0.00  0.00    +0.310 C 
ATOM     10  H   LIG    1        0.615  -3.965  -3.268  0.00  0.00    +0.420 HD
ATOM     11  N   LIG    1        0.665  -1.342  -1.933  0.00  0.00    -0.630 N 
ATOM     12  C   LIG    1        0.613  -0.129  -1.349  0.00  0.00    +0.490 C 
ATOM     13  O   LIG    1        1.056   0.842  -1.926  0.00  0.00    -0.510 OA
ENDROOT
BRANCH  12  14
ATOM     14  C   LIG    1        0.005   0.022   0.022  0.00  0.00    +0.230 C 
BRANCH  14  15
ATOM     15  C   LIG    1        1.045  -0.284   1.069  0.00  0.00    -0.090 A 
ATOM     16  C   LIG    1        2.068   0.614   1.311  0.00  0.00    +0.020 A 
ATOM     17  C   LIG    1        3.019   0.335   2.275  0.00  0.00    +0.020 A 
ATOM     18  C   LIG    1        2.953  -0.846   2.989  0.00  0.00    +0.020 A 
ATOM     19  C   LIG    1        1.933  -1.746   2.744  0.00  0.00    +0.010 A 
ATOM     20  C   LIG    1        0.980  -1.465   1.784  0.00  0.00    +0.000 A 
ENDBRANCH  14  15
BRANCH  14  21
ATOM     21  N   LIG    1       -0.474   1.400   0.197  0.00  0.00    -0.810 NA
ATOM     22  H   LIG    1       -1.218   1.609  -0.453  0.00  0.00    +0.350 HD
ATOM     23  H   LIG    1        0.283   2.061   0.104  0.00  0.00    +0.360 HD
ENDBRANCH  14  21
ENDBRANCH  12  14
TORSDOF 3
