REMARK  Name = ZINCpk00000KfLh0.0
REMARK                            x       y       z     vdW  Elec       q    Type
REMARK                         _______ _______ _______ _____ _____    ______ ____
ROOT
ATOM      1  O   LIG    1       -3.438  -1.775  -2.168  0.00  0.00    -0.510 OA
ATOM      2  C   LIG    1       -4.064  -1.641  -1.133  0.00  0.00    +0.610 C 
ATOM      3  N   LIG    1       -3.628  -0.784  -0.188  0.00  0.00    -0.710 N 
ATOM      4  H   LIG    1       -4.127  -0.678   0.637  0.00  0.00    +0.410 HD
ENDROOT
BRANCH   3   5
ATOM      5  C   LIG    1       -2.401  -0.015  -0.407  0.00  0.00    +0.250 C 
ATOM      6  C   LIG    1       -2.444   1.265   0.434  0.00  0.00    +0.030 C 
ATOM      7  C   LIG    1       -1.280   2.177   0.032  0.00  0.00    +0.170 C 
ATOM      8  C   LIG    1       -0.016   1.350   0.009  0.00  0.00    +0.200 A 
ATOM      9  N   LIG    1        1.211   1.782   0.000  0.00  0.00    -0.480 NA
ATOM     10  C   LIG    1        2.049   0.733  -0.013  0.00  0.00    +0.140 A 
ATOM     11  C   LIG    1        1.308  -0.394  -0.011  0.00  0.00    +0.130 A 
ATOM     12  N   LIG    1        0.002  -0.004   0.002  0.00  0.00    -0.450 N 
ATOM     13  C   LIG    1       -1.189  -0.857   0.007  0.00  0.00    +0.280 C 
ENDBRANCH   3   5
BRANCH   2  14
ATOM     14  C   LIG    1       -5.292  -2.411  -0.913  0.00  0.00    -0.070 A 
ATOM     15  C   LIG    1       -5.845  -3.304  -1.786  0.00  0.00    +0.060 A 
ATOM     16  C   LIG    1       -7.003  -3.805  -1.170  0.00  0.00    -0.040 A 
ATOM     17  C   LIG    1       -7.109  -3.197   0.032  0.00  0.00    -0.000 A 
ATOM     18  O   LIG    1       -6.077  -2.358   0.183  0.00  0.00    -0.150 OA
BRANCH  17  19
ATOM     19  C   LIG    1       -8.209  -3.426   1.037  0.00  0.00    +0.420 C 
BRANCH  19  20
ATOM     20  N   LIG    1       -7.825  -4.513   1.941  0.00  0.00    -0.500 N 
ATOM     21  C   LIG    1       -8.157  -5.792   1.630  0.00  0.00    +0.290 A 
ATOM     22  C   LIG    1       -7.809  -6.814   2.447  0.00  0.00    -0.070 A 
ATOM     23  C   LIG    1       -7.108  -6.555   3.633  0.00  0.00    +0.120 A 
ATOM     24  C   LIG    1       -6.780  -5.268   3.946  0.00  0.00    -0.090 A 
ATOM     25  C   LIG    1       -7.152  -4.232   3.073  0.00  0.00    +0.510 A 
ATOM     26  O   LIG    1       -6.866  -3.076   3.341  0.00  0.00    -0.540 OA
ENDBRANCH  19  20
ENDBRANCH  17  19
ENDBRANCH   2  14
TORSDOF 4
