REMARK  Name = ZINCvU000000087X.0
REMARK                            x       y       z     vdW  Elec       q    Type
REMARK                         _______ _______ _______ _____ _____    ______ ____
ROOT
ATOM      1  C   LIG    1       -2.432  -2.858  -0.003  0.00  0.00    +0.100 A 
ATOM      2  C   LIG    1       -1.243  -2.157  -0.006  0.00  0.00    -0.010 A 
ATOM      3  C   LIG    1       -1.260  -0.757   0.001  0.00  0.00    -0.080 A 
ATOM      4  C   LIG    1       -2.482  -0.076   0.018  0.00  0.00    +0.040 A 
ATOM      5  C   LIG    1       -3.665  -0.784   0.015  0.00  0.00    -0.040 A 
ATOM      6  C   LIG    1       -3.647  -2.172   0.008  0.00  0.00    +0.120 A 
ENDROOT
BRANCH   1   8
ATOM      7  C   LIG    1       -1.140  -4.855  -0.021  0.00  0.00    +0.240 C 
ATOM      8  O   LIG    1       -2.420  -4.218  -0.010  0.00  0.00    -0.300 OA
ENDBRANCH   1   8
BRANCH   3   9
ATOM      9  C   LIG    1        0.003  -0.004  -0.002  0.00  0.00    +0.130 C 
ATOM     10  C   LIG    1       -0.016   1.345   0.005  0.00  0.00    -0.090 C 
BRANCH  10  11
ATOM     11  C   LIG    1        1.240   2.094   0.002  0.00  0.00    +0.550 C 
ATOM     12  N   LIG    1        1.223   3.438  -0.093  0.00  0.00    -0.600 N 
ATOM     13  C   LIG    1        2.475   4.200  -0.206  0.00  0.00    +0.270 C 
ATOM     14  C   LIG    1        2.513   5.267   0.886  0.00  0.00    +0.010 C 
ATOM     15  C   LIG    1        1.245   6.121   0.812  0.00  0.00    +0.020 C 
ATOM     16  C   LIG    1        0.020   5.231   1.031  0.00  0.00    -0.030 C 
ATOM     17  C   LIG    1       -1.250   6.078   1.032  0.00  0.00    +0.020 C 
ATOM     18  C   LIG    1       -1.416   6.766  -0.324  0.00  0.00    +0.010 C 
ATOM     19  C   LIG    1       -1.510   5.703  -1.421  0.00  0.00    +0.010 C 
ATOM     20  C   LIG    1       -0.226   4.872  -1.432  0.00  0.00    +0.010 C 
ATOM     21  C   LIG    1       -0.049   4.179  -0.079  0.00  0.00    +0.240 C 
ATOM     22  O   LIG    1        2.301   1.503   0.084  0.00  0.00    -0.550 OA
ENDBRANCH  10  11
ENDBRANCH   3   9
BRANCH   6  23
ATOM     23  O   LIG    1       -4.815  -2.865   0.011  0.00  0.00    -0.290 OA
BRANCH  23  24
ATOM     24  C   LIG    1       -6.022  -2.100   0.022  0.00  0.00    +0.300 C 
BRANCH  24  25
ATOM     25  C   LIG    1       -7.207  -3.031   0.024  0.00  0.00    -0.220 A 
ATOM     26  C   LIG    1       -7.856  -3.553   1.093  0.00  0.00    +0.010 A 
ATOM     27  O   LIG    1       -8.840  -4.320   0.602  0.00  0.00    +0.100 OA
ATOM     28  N   LIG    1       -8.848  -4.313  -0.608  0.00  0.00    -0.360 NA
ATOM     29  C   LIG    1       -7.536  -3.317   2.546  0.00  0.00    +0.190 C 
ATOM     30  C   LIG    1       -7.902  -3.558  -1.088  0.00  0.00    +0.040 A 
ATOM     31  C   LIG    1       -7.605  -3.300  -2.543  0.00  0.00    +0.160 C 
ENDBRANCH  24  25
ENDBRANCH  23  24
ENDBRANCH   6  23
TORSDOF 6
