REMARK  Name = ZINCnE000001QGCr.2
REMARK                            x       y       z     vdW  Elec       q    Type
REMARK                         _______ _______ _______ _____ _____    ______ ____
ROOT
ATOM      1  C   LIG    1       -0.010   1.100   0.005  0.00  0.00    +0.160 C 
ATOM      2  C   LIG    1       -0.715   1.591   1.243  0.00  0.00    +0.070 A 
ATOM      3  C   LIG    1       -2.051   1.844   1.372  0.00  0.00    -0.040 A 
ATOM      4  N   LIG    1       -2.274   2.262   2.635  0.00  0.00    -0.440 NA
ATOM      5  C   LIG    1       -1.136   2.287   3.284  0.00  0.00    +0.240 A 
ATOM      6  N   LIG    1       -0.141   1.873   2.443  0.00  0.00    -0.560 N 
ATOM      7  H   LIG    1        0.800   1.794   2.661  0.00  0.00    +0.420 HD
ENDROOT
BRANCH   5   8
ATOM      8  C   LIG    1       -0.957   2.695   4.695  0.00  0.00    -0.010 A 
ATOM      9  C   LIG    1        0.312   2.672   5.276  0.00  0.00    +0.010 A 
ATOM     10  C   LIG    1        0.473   3.059   6.590  0.00  0.00    +0.010 A 
ATOM     11  C   LIG    1       -0.622   3.458   7.336  0.00  0.00    +0.010 A 
ATOM     12  C   LIG    1       -1.883   3.478   6.768  0.00  0.00    +0.010 A 
ATOM     13  C   LIG    1       -2.057   3.099   5.452  0.00  0.00    +0.060 A 
ENDBRANCH   5   8
BRANCH   3  14
ATOM     14  C   LIG    1       -3.069   1.685   0.319  0.00  0.00    +0.580 C 
ATOM     15  N   LIG    1       -4.360   1.971   0.580  0.00  0.00    -0.610 N 
ATOM     16  H   LIG    1       -4.632   2.204   1.482  0.00  0.00    +0.420 HD
ATOM     17  O   LIG    1       -2.745   1.294  -0.787  0.00  0.00    -0.550 OA
BRANCH  15  18
ATOM     18  C   LIG    1       -5.309   1.931  -0.450  0.00  0.00    -0.020 A 
ATOM     19  C   LIG    1       -4.914   2.112  -1.767  0.00  0.00    +0.080 A 
ATOM     20  C   LIG    1       -5.851   2.067  -2.783  0.00  0.00    -0.170 A 
ATOM     21  C   LIG    1       -7.186   1.853  -2.487  0.00  0.00    +0.130 A 
ATOM     22  C   LIG    1       -7.588   1.677  -1.174  0.00  0.00    -0.190 A 
ATOM     23  F   LIG    1       -8.099   1.816  -3.483  0.00  0.00    -0.170 F 
ATOM     24  C   LIG    1       -6.654   1.715  -0.153  0.00  0.00    +0.280 A 
ATOM     25  O   LIG    1       -7.047   1.542   1.137  0.00  0.00    -0.720 OA
ENDBRANCH  15  18
ENDBRANCH   3  14
TORSDOF 3
