REMARK  Name = ZINCtj00001UqOnI.0
REMARK                            x       y       z     vdW  Elec       q    Type
REMARK                         _______ _______ _______ _____ _____    ______ ____
ROOT
ATOM      1  N   LIG    1        1.946  -4.324  -2.325  0.00  0.00    -0.380 N 
ATOM      2  C   LIG    1        2.541  -4.135  -0.997  0.00  0.00    +0.280 C 
ATOM      3  C   LIG    1        1.892  -2.932  -0.310  0.00  0.00    +0.080 C 
ATOM      4  C   LIG    1        2.126  -1.679  -1.158  0.00  0.00    +0.190 C 
ATOM      5  C   LIG    1        1.568  -1.915  -2.565  0.00  0.00    +0.100 C 
ATOM      6  C   LIG    1        2.229  -3.156  -3.168  0.00  0.00    +0.280 C 
ATOM      7  H   LIG    1        0.948  -4.436  -2.232  0.00  0.00    +0.420 HD
ENDROOT
BRANCH   4   8
ATOM      8  C   LIG    1        1.423  -0.504  -0.528  0.00  0.00    +0.210 A 
ATOM      9  N   LIG    1        0.179  -0.150  -0.721  0.00  0.00    -0.310 NA
ATOM     10  N   LIG    1       -0.106   0.896  -0.033  0.00  0.00    -0.020 NA
ATOM     11  N   LIG    1        0.924   1.280   0.641  0.00  0.00    -0.050 NA
ATOM     12  N   LIG    1        1.961   0.378   0.341  0.00  0.00    -0.320 N 
BRANCH  12  13
ATOM     13  C   LIG    1        3.273   0.392   0.840  0.00  0.00    +0.110 A 
ATOM     14  C   LIG    1        3.802  -0.746   1.432  0.00  0.00    +0.030 A 
ATOM     15  C   LIG    1        5.095  -0.735   1.919  0.00  0.00    +0.080 A 
ATOM     16  C   LIG    1        5.864   0.414   1.826  0.00  0.00    +0.070 A 
ATOM     17  O   LIG    1        7.141   0.681   2.226  0.00  0.00    -0.290 OA
ATOM     18  C   LIG    1        7.527   1.869   1.510  0.00  0.00    +0.460 C 
ATOM     19  O   LIG    1        6.279   2.543   1.267  0.00  0.00    -0.290 OA
ATOM     20  C   LIG    1        5.333   1.559   1.236  0.00  0.00    +0.070 A 
ATOM     21  C   LIG    1        4.039   1.546   0.745  0.00  0.00    +0.070 A 
ENDBRANCH  12  13
ENDBRANCH   4   8
BRANCH   1  23
ATOM     22  C   LIG    1        1.809  -5.795  -4.278  0.00  0.00    +0.080 C 
ATOM     23  C   LIG    1        2.517  -5.526  -2.949  0.00  0.00    +0.250 C 
ENDBRANCH   1  23
BRANCH   4  24
ATOM     24  N   LIG    1        3.567  -1.403  -1.240  0.00  0.00    -0.680 NA
ATOM     25  H   LIG    1        3.976  -1.341  -0.320  0.00  0.00    +0.360 HD
BRANCH  24  26
ATOM     26  C   LIG    1        3.826  -0.181  -2.014  0.00  0.00    +0.180 C 
BRANCH  26  27
ATOM     27  C   LIG    1        5.329   0.104  -2.029  0.00  0.00    -0.040 C 
ATOM     28  C   LIG    1        5.626   1.463  -2.708  0.00  0.00    +0.010 C 
ATOM     29  C   LIG    1        6.880   1.192  -3.561  0.00  0.00    +0.200 C 
ATOM     30  O   LIG    1        7.267  -0.173  -3.332  0.00  0.00    -0.370 OA
ATOM     31  C   LIG    1        6.072  -0.891  -2.955  0.00  0.00    +0.210 C 
ENDBRANCH  26  27
ENDBRANCH  24  26
ENDBRANCH   4  24
TORSDOF 6
