REMARK  Name = ZINCtj00001UqOnI.1
REMARK                            x       y       z     vdW  Elec       q    Type
REMARK                         _______ _______ _______ _____ _____    ______ ____
ROOT
ATOM      1  N   LIG    1        5.989   1.909   1.065  0.00  0.00    -0.530 NA
ATOM      2  C   LIG    1        5.806   1.024  -0.093  0.00  0.00    +0.200 C 
ATOM      3  C   LIG    1        4.333   1.025  -0.509  0.00  0.00    +0.090 C 
ATOM      4  C   LIG    1        3.476   0.545   0.665  0.00  0.00    +0.160 C 
ATOM      5  C   LIG    1        3.722   1.454   1.872  0.00  0.00    +0.080 C 
ATOM      6  C   LIG    1        5.212   1.441   2.219  0.00  0.00    +0.190 C 
ENDROOT
BRANCH   4   7
ATOM      7  C   LIG    1        2.019   0.600   0.281  0.00  0.00    +0.200 A 
ATOM      8  N   LIG    1        1.316  -0.374  -0.235  0.00  0.00    -0.320 NA
ATOM      9  N   LIG    1        0.106   0.003  -0.444  0.00  0.00    -0.010 NA
ATOM     10  N   LIG    1       -0.047   1.231  -0.081  0.00  0.00    -0.020 NA
ATOM     11  N   LIG    1        1.199   1.665   0.406  0.00  0.00    -0.290 N 
BRANCH  11  12
ATOM     12  C   LIG    1        1.520   2.934   0.913  0.00  0.00    +0.090 A 
ATOM     13  C   LIG    1        0.840   3.433   2.015  0.00  0.00    +0.090 A 
ATOM     14  C   LIG    1        1.158   4.680   2.519  0.00  0.00    +0.070 A 
ATOM     15  C   LIG    1        2.149   5.439   1.919  0.00  0.00    +0.080 A 
ATOM     16  O   LIG    1        2.641   6.679   2.213  0.00  0.00    -0.290 OA
ATOM     17  C   LIG    1        3.340   7.106   1.029  0.00  0.00    +0.460 C 
ATOM     18  O   LIG    1        3.747   5.872   0.408  0.00  0.00    -0.290 OA
ATOM     19  C   LIG    1        2.830   4.943   0.809  0.00  0.00    +0.060 A 
ATOM     20  C   LIG    1        2.514   3.692   0.309  0.00  0.00    +0.060 A 
ENDBRANCH  11  12
ENDBRANCH   4   7
BRANCH   4  21
ATOM     21  N   LIG    1        3.841  -0.837   1.006  0.00  0.00    -0.500 N 
ATOM     22  H   LIG    1        4.816  -0.873   1.263  0.00  0.00    +0.430 HD
ATOM     23  H   LIG    1        3.681  -1.434   0.209  0.00  0.00    +0.440 HD
BRANCH  21  24
ATOM     24  C   LIG    1        3.020  -1.295   2.135  0.00  0.00    +0.270 C 
BRANCH  24  25
ATOM     25  C   LIG    1        3.400  -2.734   2.490  0.00  0.00    -0.030 C 
ATOM     26  C   LIG    1        2.494  -3.269   3.626  0.00  0.00    +0.050 C 
ATOM     27  C   LIG    1        3.506  -4.055   4.503  0.00  0.00    +0.220 C 
ATOM     28  O   LIG    1        4.705  -3.254   4.436  0.00  0.00    -0.360 OA
ATOM     29  C   LIG    1        4.822  -2.785   3.082  0.00  0.00    +0.190 C 
ENDBRANCH  24  25
ENDBRANCH  21  24
ENDBRANCH   4  21
BRANCH   1  31
ATOM     30  C   LIG    1        7.586   3.152   2.444  0.00  0.00    +0.030 C 
ATOM     31  C   LIG    1        7.412   2.041   1.406  0.00  0.00    +0.180 C 
ENDBRANCH   1  31
TORSDOF 6
