REMARK  Name = ZINCpk000000o5XH.0
REMARK                            x       y       z     vdW  Elec       q    Type
REMARK                         _______ _______ _______ _____ _____    ______ ____
ROOT
ATOM      1  C   LIG    1       -1.913   1.724  -3.041  0.00  0.00    +0.150 A 
ATOM      2  N   LIG    1       -1.665   2.928  -2.579  0.00  0.00    -0.290 NA
ATOM      3  N   LIG    1       -0.990   2.847  -1.488  0.00  0.00    -0.270 NA
ATOM      4  C   LIG    1       -0.768   1.598  -1.191  0.00  0.00    +0.190 A 
ATOM      5  N   LIG    1       -1.344   0.838  -2.171  0.00  0.00    -0.460 N 
ATOM      6  C   LIG    1       -1.351  -0.624  -2.268  0.00  0.00    +0.350 C 
ENDROOT
BRANCH   4   7
ATOM      7  C   LIG    1       -0.013   1.086   0.008  0.00  0.00    +0.110 C 
ATOM      8  C   LIG    1        1.426   1.632  -0.003  0.00  0.00    +0.090 C 
ATOM      9  C   LIG    1        2.060   1.381   1.379  0.00  0.00    -0.300 C 
ATOM     10  S   LIG    1        0.657   1.366   2.552  0.00  0.00    +2.390 S 
ATOM     11  O   LIG    1        0.729   2.513   3.388  0.00  0.00    -0.930 OA
ATOM     12  O   LIG    1        0.539   0.073   3.130  0.00  0.00    -0.930 OA
ATOM     13  C   LIG    1       -0.673   1.601   1.313  0.00  0.00    -0.300 C 
ENDBRANCH   4   7
BRANCH   1  14
ATOM     14  S   LIG    1       -2.805   1.327  -4.507  0.00  0.00    +0.080 S 
BRANCH  14  15
ATOM     15  C   LIG    1       -3.214   2.993  -5.087  0.00  0.00    +0.020 C 
ATOM     16  C   LIG    1       -4.152   3.666  -4.083  0.00  0.00    +0.080 C 
BRANCH  15  23
ATOM     17  C   LIG    1       -5.570   7.577  -8.681  0.00  0.00    +0.030 C 
ATOM     18  C   LIG    1       -4.646   6.371  -8.501  0.00  0.00    -0.020 C 
ATOM     19  C   LIG    1       -5.437   5.083  -8.739  0.00  0.00    +0.020 C 
ATOM     20  C   LIG    1       -4.501   3.879  -8.591  0.00  0.00    +0.280 C 
ATOM     21  N   LIG    1       -3.843   3.950  -7.279  0.00  0.00    -0.600 N 
ATOM     22  C   LIG    1       -3.135   5.183  -6.909  0.00  0.00    +0.270 C 
ATOM     23  C   LIG    1       -3.893   2.905  -6.429  0.00  0.00    +0.540 C 
ATOM     24  O   LIG    1       -4.485   1.895  -6.744  0.00  0.00    -0.520 OA
ATOM     25  C   LIG    1       -4.082   6.370  -7.078  0.00  0.00    +0.020 C 
ENDBRANCH  15  23
ENDBRANCH  14  15
ENDBRANCH   1  14
TORSDOF 4
