REMARK  Name = ZINCpk00000kgXPL.0
REMARK                            x       y       z     vdW  Elec       q    Type
REMARK                         _______ _______ _______ _____ _____    ______ ____
ROOT
ATOM      1  C   LIG    1        0.108   1.097   0.741  0.00  0.00    +0.520 C 
ATOM      2  N   LIG    1        1.254   1.795   0.622  0.00  0.00    -0.720 N 
ATOM      3  H   LIG    1        1.307   2.704   0.958  0.00  0.00    +0.400 HD
ATOM      4  O   LIG    1        0.043  -0.039   0.321  0.00  0.00    -0.530 OA
ENDROOT
BRANCH   1   5
ATOM      5  C   LIG    1       -1.095   1.730   1.392  0.00  0.00    +0.120 C 
BRANCH   5   8
ATOM      6  C   LIG    1       -3.487  -1.013   2.420  0.00  0.00    +0.320 A 
ATOM      7  C   LIG    1       -2.421  -0.124   2.453  0.00  0.00    -0.040 A 
ATOM      8  C   LIG    1       -2.239   0.749   1.394  0.00  0.00    +0.010 A 
ATOM      9  C   LIG    1       -3.138   0.704   0.337  0.00  0.00    -0.060 A 
ATOM     10  C   LIG    1       -4.172  -0.211   0.368  0.00  0.00    +0.300 A 
ATOM     11  N   LIG    1       -4.319  -1.030   1.392  0.00  0.00    -0.540 NA
BRANCH   6  13
ATOM     12  C   LIG    1       -4.791  -2.764   3.358  0.00  0.00    +0.260 C 
ATOM     13  O   LIG    1       -3.676  -1.874   3.452  0.00  0.00    -0.310 OA
ENDBRANCH   6  13
ENDBRANCH   5   8
ENDBRANCH   1   5
BRANCH   2  14
ATOM     14  C   LIG    1        2.422   1.182  -0.016  0.00  0.00    +0.270 C 
BRANCH  14  15
ATOM     15  C   LIG    1        3.540   2.220  -0.139  0.00  0.00    +0.230 C 
ATOM     16  C   LIG    1        4.796   1.697  -0.860  0.00  0.00    +0.060 C 
ATOM     17  C   LIG    1        4.827   3.057  -1.580  0.00  0.00    +0.290 C 
ATOM     18  N   LIG    1        3.381   3.130  -1.290  0.00  0.00    -0.640 N 
ATOM     19  C   LIG    1        2.337   3.772  -1.851  0.00  0.00    +0.520 C 
ATOM     20  O   LIG    1        1.242   3.717  -1.331  0.00  0.00    -0.510 OA
BRANCH  19  21
ATOM     21  C   LIG    1        2.529   4.557  -3.123  0.00  0.00    +0.190 C 
ATOM     22  F   LIG    1        1.986   3.844  -4.197  0.00  0.00    -0.190 F 
BRANCH  21  23
ATOM     23  C   LIG    1        1.824   5.909  -2.999  0.00  0.00    +0.070 C 
BRANCH  23  24
ATOM     24  C   LIG    1        2.123   6.755  -4.238  0.00  0.00    -0.050 C 
ATOM     25  C   LIG    1        2.905   8.054  -4.034  0.00  0.00    +0.020 C 
ATOM     26  C   LIG    1        1.411   8.104  -4.360  0.00  0.00    +0.030 C 
ENDBRANCH  23  24
ENDBRANCH  21  23
ENDBRANCH  19  21
ENDBRANCH  14  15
ENDBRANCH   2  14
TORSDOF 8
