REMARK  Name = ZINCpk00000ebOOB.0
REMARK                            x       y       z     vdW  Elec       q    Type
REMARK                         _______ _______ _______ _____ _____    ______ ____
ROOT
ATOM      1  C   LIG    1        2.403   2.750   0.167  0.00  0.00    +0.300 C 
ENDROOT
BRANCH   1   2
ATOM      2  N   LIG    1        2.617   3.140   1.567  0.00  0.00    -0.530 NA
ATOM      3  C   LIG    1        3.421   2.135   2.277  0.00  0.00    +0.170 C 
ATOM      4  C   LIG    1        3.569   2.550   3.743  0.00  0.00    +0.230 C 
ATOM      5  O   LIG    1        4.153   3.854   3.807  0.00  0.00    -0.380 OA
ATOM      6  C   LIG    1        3.396   4.858   3.127  0.00  0.00    +0.160 C 
ATOM      7  C   LIG    1        3.246   4.466   1.654  0.00  0.00    +0.170 C 
BRANCH   6   8
ATOM      8  C   LIG    1        4.122   6.201   3.227  0.00  0.00    +0.360 C 
BRANCH   8   9
ATOM      9  N   LIG    1        4.163   6.630   4.627  0.00  0.00    -0.370 N 
ATOM     10  C   LIG    1        5.257   6.955   5.338  0.00  0.00    +0.480 A 
ATOM     11  N   LIG    1        4.874   7.284   6.545  0.00  0.00    -0.550 NA
ATOM     12  C   LIG    1        3.549   7.183   6.642  0.00  0.00    +0.420 A 
ATOM     13  N   LIG    1        3.068   6.790   5.491  0.00  0.00    -0.320 NA
ENDBRANCH   8   9
ENDBRANCH   6   8
ENDBRANCH   1   2
BRANCH   1  18
ATOM     14  N   LIG    1        0.118   1.636   0.134  0.00  0.00    -0.440 N 
ATOM     15  C   LIG    1       -0.350   0.351   0.066  0.00  0.00    +0.120 A 
ATOM     16  C   LIG    1        0.728  -0.453   0.004  0.00  0.00    +0.140 A 
ATOM     17  N   LIG    1        1.824   0.319   0.034  0.00  0.00    -0.490 NA
ATOM     18  C   LIG    1        1.466   1.571   0.111  0.00  0.00    +0.220 A 
BRANCH  14  19
ATOM     19  C   LIG    1       -0.693   2.853   0.216  0.00  0.00    +0.360 C 
BRANCH  19  23
ATOM     20  C   LIG    1       -1.239   4.468  -3.701  0.00  0.00    +0.020 A 
ATOM     21  C   LIG    1       -2.075   3.466  -3.244  0.00  0.00    +0.010 A 
ATOM     22  C   LIG    1       -1.898   2.944  -1.976  0.00  0.00    +0.020 A 
ATOM     23  C   LIG    1       -0.885   3.423  -1.166  0.00  0.00    -0.120 A 
ATOM     24  C   LIG    1       -0.053   4.428  -1.622  0.00  0.00    +0.020 A 
ATOM     25  C   LIG    1       -0.226   4.946  -2.892  0.00  0.00    +0.010 A 
ENDBRANCH  19  23
ENDBRANCH  14  19
ENDBRANCH   1  18
TORSDOF 6
