REMARK  Name = ZINC5f0000002Cry.0
REMARK                            x       y       z     vdW  Elec       q    Type
REMARK                         _______ _______ _______ _____ _____    ______ ____
ROOT
ATOM      1  C   LIG    1       -0.018   1.468   0.010  0.00  0.00    +0.070 C 
ATOM      2  C   LIG    1        0.455   2.188  -1.254  0.00  0.00    +0.070 C 
ATOM      3  C   LIG    1        1.329   2.193   0.001  0.00  0.00    +0.070 C 
ENDROOT
BRANCH   1   5
ATOM      4  N   LIG    1        0.018  -1.140  -0.004  0.00  0.00    -0.430 NA
ATOM      5  C   LIG    1        0.002  -0.004   0.002  0.00  0.00    +0.230 C 
ENDBRANCH   1   5
TORSDOF 1
