REMARK  Name = ZINCrD00000476dp.0
REMARK                            x       y       z     vdW  Elec       q    Type
REMARK                         _______ _______ _______ _____ _____    ______ ____
ROOT
ATOM      1  C   LIG    1        4.943   7.158  -2.639  0.00  0.00    +0.240 C 
ATOM      2  C   LIG    1        6.160   6.733  -3.475  0.00  0.00    +0.020 C 
ATOM      3  C   LIG    1        5.689   6.283  -4.860  0.00  0.00    +0.020 C 
ATOM      4  C   LIG    1        4.758   5.077  -4.717  0.00  0.00    +0.010 C 
ATOM      5  C   LIG    1        3.529   5.480  -3.895  0.00  0.00    +0.270 C 
ATOM      6  N   LIG    1        3.980   6.048  -2.618  0.00  0.00    -0.610 N 
ATOM      7  C   LIG    1        3.515   5.565  -1.449  0.00  0.00    +0.510 C 
ATOM      8  O   LIG    1        3.925   6.017  -0.400  0.00  0.00    -0.520 OA
ENDROOT
BRANCH   1  14
ATOM      9  O   LIG    1        7.476   5.170   1.629  0.00  0.00    -0.520 OA
ATOM     10  C   LIG    1        7.641   6.364   1.466  0.00  0.00    +0.650 C 
ATOM     11  N   LIG    1        7.085   6.983   0.406  0.00  0.00    -0.600 N 
ATOM     12  C   LIG    1        7.202   8.414   0.090  0.00  0.00    +0.240 C 
ATOM     13  C   LIG    1        6.383   8.670  -1.192  0.00  0.00    +0.020 C 
ATOM     14  C   LIG    1        5.387   7.480  -1.211  0.00  0.00    +0.020 C 
ATOM     15  C   LIG    1        6.256   6.337  -0.629  0.00  0.00    +0.280 C 
BRANCH  10  16
ATOM     16  C   LIG    1        8.427   7.113   2.401  0.00  0.00    -0.210 C 
ATOM     17  C   LIG    1        9.071   7.726   3.167  0.00  0.00    -0.050 C 
BRANCH  17  18
ATOM     18  C   LIG    1        9.879   8.495   4.128  0.00  0.00    +0.070 C 
ATOM     19  C   LIG    1       11.382   8.216   4.169  0.00  0.00    +0.050 C 
ATOM     20  C   LIG    1       10.483   7.735   5.310  0.00  0.00    +0.050 C 
ENDBRANCH  17  18
ENDBRANCH  10  16
ENDBRANCH   1  14
BRANCH   7  21
ATOM     21  C   LIG    1        2.487   4.463  -1.445  0.00  0.00    +0.050 C 
BRANCH  21  22
ATOM     22  C   LIG    1        2.133   4.102  -0.001  0.00  0.00    +0.140 C 
BRANCH  22  23
ATOM     23  C   LIG    1        1.105   3.000   0.003  0.00  0.00    -0.170 A 
ATOM     24  C   LIG    1        1.377   1.694   0.015  0.00  0.00    +0.000 A 
ATOM     25  C   LIG    1        0.267   0.867   0.016  0.00  0.00    +0.010 A 
ATOM     26  C   LIG    1       -0.907   1.502  -0.000  0.00  0.00    -0.050 A 
ATOM     27  S   LIG    1       -0.638   3.240  -0.007  0.00  0.00    +0.090 S 
ENDBRANCH  22  23
ENDBRANCH  21  22
ENDBRANCH   7  21
TORSDOF 6
