REMARK  Name = ZINCqH0000008Wg2.0
REMARK                            x       y       z     vdW  Elec       q    Type
REMARK                         _______ _______ _______ _____ _____    ______ ____
ROOT
ATOM      1  C   LIG    1        5.802  -1.248  -0.119  0.00  0.00    +0.440 A 
ATOM      2  N   LIG    1        5.190  -2.404  -0.005  0.00  0.00    -0.280 NA
ATOM      3  N   LIG    1        3.813  -2.134   0.056  0.00  0.00    -0.470 N 
ATOM      4  H   LIG    1        3.097  -2.783   0.145  0.00  0.00    +0.450 HD
ATOM      5  C   LIG    1        3.683  -0.790  -0.037  0.00  0.00    +0.360 A 
ATOM      6  N   LIG    1        4.892  -0.273  -0.138  0.00  0.00    -0.540 NA
ENDROOT
BRANCH   5   7
ATOM      7  C   LIG    1        2.413  -0.037  -0.021  0.00  0.00    -0.030 A 
ATOM      8  C   LIG    1        1.201  -0.707  -0.038  0.00  0.00    +0.050 A 
ATOM      9  C   LIG    1        0.002  -0.004  -0.023  0.00  0.00    +0.010 A 
ATOM     10  C   LIG    1       -0.016   1.358   0.009  0.00  0.00    +0.060 A 
ATOM     11  C   LIG    1        1.190   2.079   0.027  0.00  0.00    -0.050 A 
ATOM     12  C   LIG    1        1.197   3.484   0.060  0.00  0.00    +0.020 A 
ATOM     13  C   LIG    1        2.384   4.152   0.077  0.00  0.00    +0.010 A 
ATOM     14  C   LIG    1        3.594   3.462   0.062  0.00  0.00    +0.020 A 
ATOM     15  C   LIG    1        3.624   2.100   0.030  0.00  0.00    +0.060 A 
ATOM     16  C   LIG    1        2.422   1.380   0.012  0.00  0.00    -0.020 A 
ENDBRANCH   5   7
BRANCH   1  18
ATOM     17  C   LIG    1        8.007  -2.135  -0.176  0.00  0.00    +0.520 C 
ATOM     18  N   LIG    1        7.186  -1.068  -0.206  0.00  0.00    -0.620 N 
ATOM     19  H   LIG    1        7.554  -0.174  -0.289  0.00  0.00    +0.430 HD
ATOM     20  O   LIG    1        7.546  -3.252  -0.073  0.00  0.00    -0.470 OA
BRANCH  17  22
ATOM     21  C   LIG    1        9.975  -1.075   0.897  0.00  0.00    +0.070 C 
ATOM     22  C   LIG    1        9.499  -1.942  -0.270  0.00  0.00    +0.060 C 
BRANCH  22  23
ATOM     23  C   LIG    1       10.184  -3.282  -0.213  0.00  0.00    -0.130 A 
ATOM     24  C   LIG    1       10.975  -3.712  -1.268  0.00  0.00    +0.080 A 
ATOM     25  C   LIG    1       11.590  -4.951  -1.170  0.00  0.00    -0.030 A 
ATOM     26  C   LIG    1       11.388  -5.715  -0.037  0.00  0.00    +0.260 A 
ATOM     27  N   LIG    1       10.625  -5.276   0.946  0.00  0.00    -0.480 NA
ATOM     28  C   LIG    1       10.029  -4.102   0.889  0.00  0.00    +0.290 A 
ENDBRANCH  22  23
ENDBRANCH  17  22
ENDBRANCH   1  18
TORSDOF 4
