REMARK  Name = ZINCqH0000008Wg2.1
REMARK                            x       y       z     vdW  Elec       q    Type
REMARK                         _______ _______ _______ _____ _____    ______ ____
ROOT
ATOM      1  C   LIG    1        5.072  -2.464   0.003  0.00  0.00    +0.500 A 
ATOM      2  N   LIG    1        3.803  -2.128   0.049  0.00  0.00    -0.540 NA
ATOM      3  C   LIG    1        3.686  -0.794  -0.038  0.00  0.00    +0.290 A 
ATOM      4  N   LIG    1        4.887  -0.269  -0.146  0.00  0.00    -0.290 NA
ATOM      5  N   LIG    1        5.802  -1.334  -0.116  0.00  0.00    -0.470 N 
ATOM      6  H   LIG    1        6.768  -1.271  -0.174  0.00  0.00    +0.450 HD
ENDROOT
BRANCH   3   7
ATOM      7  C   LIG    1        2.412  -0.038  -0.022  0.00  0.00    -0.000 A 
ATOM      8  C   LIG    1        1.447  -0.315   0.929  0.00  0.00    +0.060 A 
ATOM      9  C   LIG    1        0.249   0.391   0.952  0.00  0.00    +0.010 A 
ATOM     10  C   LIG    1       -0.008   1.371   0.042  0.00  0.00    +0.040 A 
ATOM     11  C   LIG    1        0.945   1.686  -0.943  0.00  0.00    -0.050 A 
ATOM     12  C   LIG    1        0.705   2.692  -1.893  0.00  0.00    +0.030 A 
ATOM     13  C   LIG    1        1.649   2.971  -2.833  0.00  0.00    +0.020 A 
ATOM     14  C   LIG    1        2.854   2.273  -2.868  0.00  0.00    +0.010 A 
ATOM     15  C   LIG    1        3.120   1.291  -1.962  0.00  0.00    +0.030 A 
ATOM     16  C   LIG    1        2.171   0.977  -0.979  0.00  0.00    -0.020 A 
ENDBRANCH   3   7
BRANCH   1  18
ATOM     17  C   LIG    1        6.905  -3.965   0.008  0.00  0.00    +0.530 C 
ATOM     18  N   LIG    1        5.574  -3.756   0.066  0.00  0.00    -0.620 N 
ATOM     19  H   LIG    1        4.969  -4.509   0.152  0.00  0.00    +0.440 HD
ATOM     20  O   LIG    1        7.662  -3.024  -0.100  0.00  0.00    -0.510 OA
BRANCH  17  22
ATOM     21  C   LIG    1        6.897  -6.188  -1.090  0.00  0.00    +0.070 C 
ATOM     22  C   LIG    1        7.451  -5.368   0.076  0.00  0.00    +0.070 C 
BRANCH  22  23
ATOM     23  C   LIG    1        8.955  -5.326  -0.009  0.00  0.00    -0.130 A 
ATOM     24  C   LIG    1        9.731  -5.825   1.026  0.00  0.00    +0.080 A 
ATOM     25  C   LIG    1       11.111  -5.770   0.902  0.00  0.00    -0.030 A 
ATOM     26  C   LIG    1       11.663  -5.214  -0.236  0.00  0.00    +0.260 A 
ATOM     27  N   LIG    1       10.894  -4.744  -1.198  0.00  0.00    -0.480 NA
ATOM     28  C   LIG    1        9.579  -4.784  -1.117  0.00  0.00    +0.280 A 
ENDBRANCH  22  23
ENDBRANCH  17  22
ENDBRANCH   1  18
TORSDOF 4
