REMARK  Name = ZINCpk00000y6yZi.0
REMARK                            x       y       z     vdW  Elec       q    Type
REMARK                         _______ _______ _______ _____ _____    ______ ____
ROOT
ATOM      1  C   LIG    1       -0.248  -0.024   0.090  0.00  0.00    +0.250 C 
ATOM      2  C   LIG    1       -0.322  -0.387  -1.395  0.00  0.00    +0.010 C 
ATOM      3  C   LIG    1       -0.025  -1.880  -1.566  0.00  0.00    +0.290 C 
ATOM      4  N   LIG    1       -0.943  -2.646  -0.712  0.00  0.00    -0.570 N 
ATOM      5  C   LIG    1       -1.017  -2.316   0.718  0.00  0.00    +0.310 C 
ATOM      6  C   LIG    1       -1.303  -0.818   0.864  0.00  0.00    +0.010 C 
ENDROOT
BRANCH   4   7
ATOM      7  C   LIG    1       -1.725  -3.662  -1.245  0.00  0.00    +0.350 A 
ATOM      8  N   LIG    1       -2.641  -4.254  -0.510  0.00  0.00    -0.510 NA
ATOM      9  C   LIG    1       -3.399  -5.226  -1.018  0.00  0.00    +0.190 A 
ATOM     10  C   LIG    1       -3.253  -5.648  -2.292  0.00  0.00    +0.150 A 
ATOM     11  N   LIG    1       -2.321  -5.086  -3.112  0.00  0.00    -0.480 N 
ATOM     12  C   LIG    1       -2.171  -5.551  -4.494  0.00  0.00    +0.330 C 
ATOM     13  C   LIG    1       -1.537  -4.093  -2.635  0.00  0.00    +0.480 A 
ATOM     14  O   LIG    1       -0.693  -3.569  -3.343  0.00  0.00    -0.520 OA
ENDBRANCH   4   7
BRANCH   1  18
ATOM     15  N   LIG    1        0.283   3.610   0.273  0.00  0.00    -0.670 N 
ATOM     16  H   LIG    1       -0.599   3.922   0.529  0.00  0.00    +0.410 HD
ATOM     17  C   LIG    1        0.513   2.291   0.121  0.00  0.00    +0.690 C 
ATOM     18  N   LIG    1       -0.498   1.410   0.255  0.00  0.00    -0.740 N 
ATOM     19  H   LIG    1       -1.393   1.726   0.457  0.00  0.00    +0.390 HD
ATOM     20  O   LIG    1        1.633   1.895  -0.137  0.00  0.00    -0.520 OA
BRANCH  15  25
ATOM     21  C   LIG    1        4.493   7.231  -0.605  0.00  0.00    +0.100 C 
ATOM     22  C   LIG    1        3.342   6.290  -0.360  0.00  0.00    -0.170 A 
ATOM     23  C   LIG    1        2.118   6.777   0.075  0.00  0.00    +0.090 A 
ATOM     24  C   LIG    1        1.087   5.879   0.289  0.00  0.00    -0.070 A 
ATOM     25  C   LIG    1        1.312   4.526   0.061  0.00  0.00    +0.370 A 
ATOM     26  N   LIG    1        2.496   4.099  -0.349  0.00  0.00    -0.470 NA
ATOM     27  C   LIG    1        3.495   4.933  -0.566  0.00  0.00    +0.290 A 
ENDBRANCH  15  25
ENDBRANCH   1  18
TORSDOF 3
