REMARK  Name = ZINCfA000000bnuo.0
REMARK                            x       y       z     vdW  Elec       q    Type
REMARK                         _______ _______ _______ _____ _____    ______ ____
ROOT
ATOM      1  N   LIG    1       -0.706   1.976   1.219  0.00  0.00    -0.500 N 
ATOM      2  H   LIG    1       -0.218   1.642   2.036  0.00  0.00    +0.430 HD
ATOM      3  H   LIG    1       -1.653   1.627   1.226  0.00  0.00    +0.430 HD
ENDROOT
BRANCH   1   4
ATOM      4  C   LIG    1       -0.726   3.445   1.227  0.00  0.00    +0.050 C 
ATOM      5  C   LIG    1        0.708   3.979   1.216  0.00  0.00    +0.100 C 
ATOM      6  C   LIG    1        0.712   5.455   1.490  0.00  0.00    -0.030 C 
ATOM      7  C   LIG    1       -0.283   6.099   2.008  0.00  0.00    -0.020 C 
ATOM      8  C   LIG    1       -1.585   5.463   2.398  0.00  0.00    +0.100 C 
ATOM      9  C   LIG    1       -1.474   3.956  -0.006  0.00  0.00    +0.090 C 
ATOM     10  C   LIG    1       -1.420   3.945   2.501  0.00  0.00    +0.050 C 
ENDBRANCH   1   4
BRANCH   1  11
ATOM     11  C   LIG    1       -0.018   1.503   0.010  0.00  0.00    +0.380 C 
BRANCH  11  16
ATOM     12  C   LIG    1       -1.575  -3.232  -0.929  0.00  0.00    +0.170 C 
ATOM     13  C   LIG    1       -0.646  -2.174  -0.391  0.00  0.00    +0.120 A 
ATOM     14  N   LIG    1        0.455  -2.486   0.227  0.00  0.00    -0.420 NA
ATOM     15  S   LIG    1        1.208  -1.033   0.670  0.00  0.00    +0.310 S 
ATOM     16  C   LIG    1        0.002  -0.004   0.002  0.00  0.00    -0.280 A 
ATOM     17  C   LIG    1       -0.926  -0.832  -0.527  0.00  0.00    +0.030 A 
ENDBRANCH  11  16
ENDBRANCH   1  11
TORSDOF 3
