REMARK  Name = ZINCrD000000C949.0
REMARK                            x       y       z     vdW  Elec       q    Type
REMARK                         _______ _______ _______ _____ _____    ______ ____
ROOT
ATOM      1  C   LIG    1       -3.428   4.646  -3.241  0.00  0.00    +0.260 C 
ATOM      2  C   LIG    1       -4.492   3.966  -4.133  0.00  0.00    +0.170 C 
ATOM      3  S   LIG    1       -3.750   2.298  -4.373  0.00  0.00    -0.240 S 
ATOM      4  C   LIG    1       -2.017   2.925  -4.321  0.00  0.00    +0.400 C 
ATOM      5  N   LIG    1       -2.110   4.042  -3.361  0.00  0.00    -0.990 NA
ENDROOT
BRANCH   1   7
ATOM      6  O   LIG    1       -3.152   4.041  -0.977  0.00  0.00    -0.500 OA
ATOM      7  C   LIG    1       -3.873   4.558  -1.804  0.00  0.00    +0.490 C 
ATOM      8  N   LIG    1       -5.072   5.054  -1.438  0.00  0.00    -0.670 N 
ATOM      9  H   LIG    1       -5.615   5.535  -2.082  0.00  0.00    +0.410 HD
BRANCH   8  10
ATOM     10  C   LIG    1       -5.533   4.875  -0.129  0.00  0.00    +0.140 A 
ATOM     11  C   LIG    1       -5.215   3.716   0.568  0.00  0.00    +0.020 A 
ATOM     12  C   LIG    1       -5.667   3.545   1.861  0.00  0.00    +0.020 A 
ATOM     13  C   LIG    1       -6.445   4.520   2.459  0.00  0.00    -0.010 A 
ATOM     14  C   LIG    1       -6.768   5.671   1.765  0.00  0.00    +0.030 A 
ATOM     15  C   LIG    1       -6.314   5.852   0.473  0.00  0.00    -0.010 A 
ENDBRANCH   8  10
ENDBRANCH   1   7
BRANCH   5  16
ATOM     16  S   LIG    1       -0.807   4.574  -2.488  0.00  0.00    +2.700 S 
ATOM     17  O   LIG    1        0.350   4.182  -3.215  0.00  0.00    -0.950 OA
ATOM     18  O   LIG    1       -1.084   5.922  -2.135  0.00  0.00    -0.960 OA
BRANCH  16  19
ATOM     19  C   LIG    1       -0.780   3.660  -0.982  0.00  0.00    -0.680 C 
ATOM     20  C   LIG    1       -1.164   4.246   0.141  0.00  0.00    +0.230 C 
ATOM     21  C   LIG    1       -1.108   3.497   1.413  0.00  0.00    -0.080 A 
ATOM     22  C   LIG    1       -1.820   3.930   2.530  0.00  0.00    +0.040 A 
ATOM     23  C   LIG    1       -1.767   3.201   3.698  0.00  0.00    -0.010 A 
ATOM     24  C   LIG    1       -1.006   2.048   3.764  0.00  0.00    +0.020 A 
ATOM     25  C   LIG    1       -0.290   1.617   2.660  0.00  0.00    +0.000 A 
ATOM     26  C   LIG    1       -0.335   2.338   1.487  0.00  0.00    -0.050 A 
ATOM     27  C   LIG    1        0.450   1.893   0.281  0.00  0.00    +0.080 C 
ATOM     28  C   LIG    1       -0.322   2.228  -0.994  0.00  0.00    +0.110 C 
ENDBRANCH  16  19
ENDBRANCH   5  16
TORSDOF 4
