REMARK  Name = ZINCnE000001RjgO.0
REMARK                            x       y       z     vdW  Elec       q    Type
REMARK                         _______ _______ _______ _____ _____    ______ ____
ROOT
ATOM      1  C   LIG    1        2.215   7.373   0.020  0.00  0.00    +0.120 A 
ATOM      2  N   LIG    1        3.504   7.560   0.008  0.00  0.00    -0.250 NA
ATOM      3  N   LIG    1        3.740   8.943   0.012  0.00  0.00    -0.520 NA
ATOM      4  C   LIG    1        2.511   9.550   0.027  0.00  0.00    +0.440 A 
ATOM      5  N   LIG    1        2.281  10.836   0.035  0.00  0.00    -0.670 NA
ATOM      6  O   LIG    1        1.585   8.569   0.027  0.00  0.00    -0.290 OA
ENDROOT
BRANCH   1  17
ATOM      7  C   LIG    1       -0.823   6.928   0.046  0.00  0.00    +0.330 C 
ATOM      8  N   LIG    1        0.183   5.863   0.032  0.00  0.00    -0.480 N 
ATOM      9  C   LIG    1       -0.092   4.513   0.027  0.00  0.00    +0.100 A 
ATOM     10  C   LIG    1       -1.276   3.783   0.035  0.00  0.00    +0.020 A 
ATOM     11  C   LIG    1       -1.236   2.406   0.021  0.00  0.00    +0.030 A 
ATOM     12  C   LIG    1       -0.021   1.732   0.012  0.00  0.00    -0.070 A 
ATOM     13  C   LIG    1        1.164   2.433   0.004  0.00  0.00    +0.070 A 
ATOM     14 CL   LIG    1        0.002  -0.004   0.002  0.00  0.00    -0.080 Cl
ATOM     15  C   LIG    1        1.141   3.831   0.012  0.00  0.00    -0.090 A 
ATOM     16  C   LIG    1        2.179   4.858   0.007  0.00  0.00    -0.010 A 
ATOM     17  C   LIG    1        1.547   6.061   0.020  0.00  0.00    +0.210 A 
ENDBRANCH   1  17
BRANCH   5  18
ATOM     18  C   LIG    1        3.400  11.781   0.028  0.00  0.00    +0.180 C 
ATOM     19  C   LIG    1        3.337  12.660   1.281  0.00  0.00    -0.010 C 
ATOM     20  C   LIG    1        4.462  13.697   1.224  0.00  0.00    +0.200 C 
ATOM     21  O   LIG    1        4.338  14.471   0.029  0.00  0.00    -0.390 OA
ATOM     22  C   LIG    1        4.439  13.706  -1.174  0.00  0.00    +0.200 C 
ATOM     23  C   LIG    1        3.311  12.671  -1.215  0.00  0.00    -0.010 C 
ENDBRANCH   5  18
TORSDOF 2
