REMARK  Name = ZINCvU00000008Uf.0
REMARK                            x       y       z     vdW  Elec       q    Type
REMARK                         _______ _______ _______ _____ _____    ______ ____
ROOT
ATOM      1  O   LIG    1       -5.787  -2.252   0.535  0.00  0.00    -0.510 OA
ATOM      2  C   LIG    1       -5.835  -1.044   0.413  0.00  0.00    +0.560 C 
ATOM      3  N   LIG    1       -4.698  -0.320   0.414  0.00  0.00    -0.660 N 
ATOM      4  H   LIG    1       -4.731   0.635   0.246  0.00  0.00    +0.410 HD
ENDROOT
BRANCH   2   5
ATOM      5  C   LIG    1       -7.141  -0.368   0.263  0.00  0.00    -0.120 A 
ATOM      6  C   LIG    1       -7.200   1.020   0.128  0.00  0.00    +0.030 A 
ATOM      7  C   LIG    1       -8.421   1.648  -0.017  0.00  0.00    +0.030 A 
ATOM      8  C   LIG    1       -9.588   0.908  -0.019  0.00  0.00    +0.020 A 
ATOM      9  C   LIG    1       -9.540  -0.474   0.120  0.00  0.00    +0.140 A 
ATOM     10  C   LIG    1       -8.320  -1.115   0.261  0.00  0.00    +0.090 A 
BRANCH   9  11
ATOM     11  N   LIG    1      -10.725  -1.218   0.117  0.00  0.00    -0.670 N 
ATOM     12  H   LIG    1      -11.522  -0.864   0.542  0.00  0.00    +0.410 HD
ATOM     13  C   LIG    1      -10.759  -2.429  -0.475  0.00  0.00    +0.510 C 
ATOM     14  O   LIG    1       -9.744  -2.909  -0.933  0.00  0.00    -0.490 OA
BRANCH  13  15
ATOM     15  C   LIG    1      -12.059  -3.185  -0.569  0.00  0.00    +0.170 C 
ATOM     16  C   LIG    1      -13.037  -2.459  -1.527  0.00  0.00    +0.030 C 
ATOM     17  C   LIG    1      -13.943  -3.639  -1.973  0.00  0.00    +0.020 C 
ATOM     18  C   LIG    1      -12.952  -4.822  -1.998  0.00  0.00    +0.200 C 
ATOM     19  O   LIG    1      -11.843  -4.476  -1.161  0.00  0.00    -0.350 OA
ENDBRANCH  13  15
ENDBRANCH   9  11
ENDBRANCH   2   5
BRANCH   3  20
ATOM     20  C   LIG    1       -3.470  -0.946   0.659  0.00  0.00    +0.130 A 
ATOM     21  C   LIG    1       -3.287  -2.277   0.313  0.00  0.00    +0.060 A 
ATOM     22  C   LIG    1       -2.075  -2.894   0.560  0.00  0.00    +0.000 A 
ATOM     23  C   LIG    1       -1.042  -2.188   1.147  0.00  0.00    +0.030 A 
ATOM     24  C   LIG    1       -1.215  -0.859   1.490  0.00  0.00    -0.040 A 
ATOM     25  C   LIG    1       -2.426  -0.233   1.246  0.00  0.00    +0.100 A 
BRANCH  25  26
ATOM     26  O   LIG    1       -2.598   1.073   1.582  0.00  0.00    -0.250 OA
BRANCH  26  27
ATOM     27  C   LIG    1       -1.544   1.735   2.129  0.00  0.00    +0.090 A 
ATOM     28  C   LIG    1       -1.430   1.841   3.507  0.00  0.00    +0.030 A 
ATOM     29  C   LIG    1       -0.355   2.510   4.061  0.00  0.00    +0.040 A 
ATOM     30  C   LIG    1        0.603   3.079   3.242  0.00  0.00    +0.040 A 
ATOM     31  C   LIG    1        0.489   2.979   1.868  0.00  0.00    +0.040 A 
ATOM     32  C   LIG    1       -0.583   2.311   1.308  0.00  0.00    -0.050 A 
ATOM     33 CL   LIG    1       -0.725   2.186  -0.417  0.00  0.00    -0.050 Cl
ENDBRANCH  26  27
ENDBRANCH  25  26
ENDBRANCH   3  20
TORSDOF 6
