REMARK  Name = ZINCrD00000760VL.0
REMARK                            x       y       z     vdW  Elec       q    Type
REMARK                         _______ _______ _______ _____ _____    ______ ____
ROOT
ATOM      1  O   LIG    1        0.002  -0.004   0.002  0.00  0.00    -0.530 OA
ATOM      2  C   LIG    1       -0.015   1.216   0.009  0.00  0.00    +0.480 A 
ATOM      3  C   LIG    1       -1.244   1.911   0.018  0.00  0.00    -0.010 A 
ATOM      4  C   LIG    1       -1.207   3.274   0.031  0.00  0.00    +0.100 A 
ATOM      5  C   LIG    1        0.057   3.910   0.022  0.00  0.00    +0.100 A 
ATOM      6  N   LIG    1        1.156   3.194   0.008  0.00  0.00    -0.200 NA
ATOM      7  N   LIG    1        1.139   1.910   0.001  0.00  0.00    -0.330 N 
ENDROOT
BRANCH   5   8
ATOM      8  C   LIG    1        0.139   5.391   0.029  0.00  0.00    -0.040 A 
ATOM      9  C   LIG    1       -1.026   6.155   0.038  0.00  0.00    +0.070 A 
ATOM     10  C   LIG    1       -0.945   7.533   0.051  0.00  0.00    -0.010 A 
ATOM     11  C   LIG    1        0.293   8.156   0.042  0.00  0.00    +0.110 A 
ATOM     12  C   LIG    1        1.454   7.399   0.026  0.00  0.00    -0.010 A 
ATOM     13  F   LIG    1        0.368   9.505   0.048  0.00  0.00    -0.140 F 
ATOM     14  C   LIG    1        1.382   6.022   0.020  0.00  0.00    +0.080 A 
ENDBRANCH   5   8
BRANCH   7  15
ATOM     15  C   LIG    1        2.409   1.181  -0.015  0.00  0.00    +0.310 C 
BRANCH  15  16
ATOM     16  C   LIG    1        2.838   0.934  -1.463  0.00  0.00    +0.250 C 
BRANCH  16  17
ATOM     17  C   LIG    1        4.079   0.079  -1.481  0.00  0.00    -0.150 A 
ATOM     18  C   LIG    1        5.316   0.653  -1.254  0.00  0.00    +0.060 A 
ATOM     19  C   LIG    1        6.454  -0.130  -1.264  0.00  0.00    -0.050 A 
ATOM     20  C   LIG    1        6.356  -1.491  -1.514  0.00  0.00    +0.110 A 
ATOM     21  C   LIG    1        5.114  -2.063  -1.748  0.00  0.00    +0.010 A 
ATOM     22  C   LIG    1        3.978  -1.277  -1.730  0.00  0.00    +0.070 A 
BRANCH  20  23
ATOM     23  O   LIG    1        7.475  -2.263  -1.531  0.00  0.00    -0.320 OA
BRANCH  23  24
ATOM     24  C   LIG    1        8.719  -1.606  -1.282  0.00  0.00    +0.590 C 
ATOM     25  F   LIG    1        8.689  -1.013  -0.015  0.00  0.00    -0.200 F 
ATOM     26  F   LIG    1        8.928  -0.620  -2.253  0.00  0.00    -0.200 F 
ENDBRANCH  23  24
ENDBRANCH  20  23
ENDBRANCH  16  17
BRANCH  16  27
ATOM     27  O   LIG    1        3.112   2.185  -2.098  0.00  0.00    -0.540 OA
ATOM     28  H   LIG    1        3.816   2.695  -1.674  0.00  0.00    +0.380 HD
ENDBRANCH  16  27
ENDBRANCH  15  16
ENDBRANCH   7  15
TORSDOF 7
