REMARK  Name = ZINCpk00000eb0vv.0
REMARK                            x       y       z     vdW  Elec       q    Type
REMARK                         _______ _______ _______ _____ _____    ______ ____
ROOT
ATOM      1  C   LIG    1        1.173  -0.667   0.157  0.00  0.00    +0.630 A 
ATOM      2  N   LIG    1        0.020  -0.002   0.162  0.00  0.00    -0.610 NA
ATOM      3  C   LIG    1        0.012   1.309   0.331  0.00  0.00    +0.430 A 
ATOM      4  N   LIG    1        1.148   1.964   0.495  0.00  0.00    -0.610 NA
ATOM      5  C   LIG    1        2.305   1.306   0.491  0.00  0.00    +0.630 A 
ATOM      6  N   LIG    1        2.317  -0.011   0.322  0.00  0.00    -0.630 NA
ENDROOT
BRANCH   5   7
ATOM      7  N   LIG    1        3.491   1.992   0.663  0.00  0.00    -0.800 N 
ATOM      8  H   LIG    1        3.481   2.954   0.787  0.00  0.00    +0.420 HD
ATOM      9  H   LIG    1        4.333   1.511   0.660  0.00  0.00    +0.420 HD
ENDBRANCH   5   7
BRANCH   1  10
ATOM     10  N   LIG    1        1.180  -2.037  -0.020  0.00  0.00    -0.620 N 
ATOM     11  H   LIG    1        0.343  -2.525  -0.060  0.00  0.00    +0.430 HD
BRANCH  10  16
ATOM     12  C   LIG    1        6.105  -4.808  -0.510  0.00  0.00    +0.100 C 
ATOM     13  C   LIG    1        4.797  -4.072  -0.380  0.00  0.00    -0.100 A 
ATOM     14  C   LIG    1        3.718  -4.684   0.232  0.00  0.00    +0.030 A 
ATOM     15  C   LIG    1        2.518  -4.012   0.353  0.00  0.00    -0.010 A 
ATOM     16  C   LIG    1        2.394  -2.720  -0.141  0.00  0.00    +0.150 A 
ATOM     17  C   LIG    1        3.478  -2.109  -0.759  0.00  0.00    +0.020 A 
ATOM     18  C   LIG    1        4.677  -2.785  -0.873  0.00  0.00    +0.020 A 
ENDBRANCH  10  16
ENDBRANCH   1  10
BRANCH   3  19
ATOM     19  C   LIG    1       -1.295   2.059   0.330  0.00  0.00    +0.360 C 
BRANCH  19  20
ATOM     20  O   LIG    1       -1.808   2.124   1.662  0.00  0.00    -0.340 OA
BRANCH  20  21
ATOM     21  C   LIG    1       -2.981   2.767   1.836  0.00  0.00    +0.530 C 
ATOM     22  O   LIG    1       -3.553   3.259   0.881  0.00  0.00    -0.480 OA
BRANCH  21  23
ATOM     23  C   LIG    1       -3.566   2.872   3.172  0.00  0.00    -0.070 C 
ATOM     24  C   LIG    1       -2.923   2.324   4.213  0.00  0.00    +0.250 C 
ATOM     25  O   LIG    1       -3.421   2.386   5.466  0.00  0.00    -0.300 OA
ATOM     26  C   LIG    1       -4.442   3.362   5.707  0.00  0.00    +0.230 C 
ATOM     27  C   LIG    1       -5.455   3.287   4.555  0.00  0.00    +0.230 C 
ATOM     28  O   LIG    1       -4.748   3.530   3.331  0.00  0.00    -0.290 OA
ENDBRANCH  21  23
ENDBRANCH  20  21
ENDBRANCH  19  20
ENDBRANCH   3  19
TORSDOF 7
