REMARK  Name = ZINCpk00000FeNC0.0
REMARK                            x       y       z     vdW  Elec       q    Type
REMARK                         _______ _______ _______ _____ _____    ______ ____
ROOT
ATOM      1  C   LIG    1       -3.555   2.146   0.038  0.00  0.00    -0.090 A 
ATOM      2  C   LIG    1       -3.614   3.168   0.969  0.00  0.00    +0.040 A 
ATOM      3  C   LIG    1       -4.686   4.035   0.978  0.00  0.00    +0.030 A 
ATOM      4  C   LIG    1       -5.718   3.874   0.053  0.00  0.00    -0.120 A 
ATOM      5  C   LIG    1       -5.655   2.837  -0.880  0.00  0.00    +0.080 A 
ATOM      6  C   LIG    1       -4.575   1.980  -0.882  0.00  0.00    +0.030 A 
ENDROOT
BRANCH   4   7
ATOM      7  C   LIG    1       -6.874   4.796   0.061  0.00  0.00    +0.570 C 
ATOM      8  N   LIG    1       -7.451   5.143   1.228  0.00  0.00    -0.620 N 
ATOM      9  C   LIG    1       -8.649   5.999   1.266  0.00  0.00    +0.300 C 
ATOM     10  C   LIG    1       -9.784   5.196   1.914  0.00  0.00    +0.260 C 
ATOM     11  N   LIG    1       -9.323   4.538   3.128  0.00  0.00    -0.720 N 
ATOM     12  H   LIG    1       -9.991   4.283   3.785  0.00  0.00    +0.400 HD
ATOM     13  C   LIG    1       -8.047   4.261   3.402  0.00  0.00    +0.510 C 
ATOM     14  O   LIG    1       -7.794   3.638   4.411  0.00  0.00    -0.540 OA
ATOM     15  C   LIG    1       -6.908   4.685   2.516  0.00  0.00    +0.330 C 
ATOM     16  O   LIG    1       -7.303   5.242  -0.986  0.00  0.00    -0.520 OA
ENDBRANCH   4   7
BRANCH   1  17
ATOM     17  C   LIG    1       -2.377   1.205   0.030  0.00  0.00    +0.320 C 
BRANCH  17  19
ATOM     18  C   LIG    1       -0.183   1.056  -1.018  0.00  0.00    +0.550 C 
ATOM     19  N   LIG    1       -1.336   1.734  -0.854  0.00  0.00    -0.720 N 
ATOM     20  H   LIG    1       -1.476   2.572  -1.322  0.00  0.00    +0.400 HD
ATOM     21  O   LIG    1       -0.007   0.008  -0.434  0.00  0.00    -0.500 OA
BRANCH  18  23
ATOM     22  C   LIG    1        1.014   3.121  -1.969  0.00  0.00    +0.110 C 
ATOM     23  C   LIG    1        0.886   1.597  -1.933  0.00  0.00    -0.130 C 
ATOM     24  C   LIG    1        1.157   0.834  -3.231  0.00  0.00    +0.140 C 
ATOM     25  C   LIG    1        2.168   0.776  -2.084  0.00  0.00    +0.020 C 
ATOM     26 CL   LIG    1        2.286  -0.764  -1.153  0.00  0.00    -0.050 Cl
ATOM     27 CL   LIG    1        3.715   1.679  -2.291  0.00  0.00    -0.080 Cl
ENDBRANCH  18  23
ENDBRANCH  17  19
ENDBRANCH   1  17
TORSDOF 4
