REMARK  Name = ZINCvU00000005QD.0
REMARK                            x       y       z     vdW  Elec       q    Type
REMARK                         _______ _______ _______ _____ _____    ______ ____
ROOT
ATOM      1  C   LIG    1       14.228   0.426  -1.063  0.00  0.00    +0.180 C 
ATOM      2  C   LIG    1       13.188   1.512  -0.957  0.00  0.00    +0.150 A 
ATOM      3  N   LIG    1       13.422   2.790  -0.974  0.00  0.00    -0.250 NA
ATOM      4  N   LIG    1       12.216   3.485  -0.854  0.00  0.00    -0.300 N 
ATOM      5  C   LIG    1       11.204   2.567  -0.759  0.00  0.00    +0.020 A 
ATOM      6  S   LIG    1        9.459   2.417  -0.590  0.00  0.00    +0.260 S 
ATOM      7  C   LIG    1        9.563   0.664  -0.608  0.00  0.00    -0.270 A 
ATOM      8  C   LIG    1       10.841   0.272  -0.728  0.00  0.00    +0.200 A 
ATOM      9  C   LIG    1       11.779   1.308  -0.821  0.00  0.00    -0.220 A 
ENDROOT
BRANCH   4  10
ATOM     10  C   LIG    1       12.067   4.879  -0.833  0.00  0.00    +0.140 A 
ATOM     11  C   LIG    1       10.955   5.469  -1.418  0.00  0.00    +0.040 A 
ATOM     12  C   LIG    1       10.809   6.842  -1.392  0.00  0.00    +0.020 A 
ATOM     13  C   LIG    1       11.775   7.631  -0.792  0.00  0.00    +0.100 A 
ATOM     14  C   LIG    1       12.888   7.045  -0.211  0.00  0.00    +0.020 A 
ATOM     15  F   LIG    1       11.633   8.974  -0.772  0.00  0.00    -0.130 F 
ATOM     16  C   LIG    1       13.036   5.672  -0.231  0.00  0.00    +0.070 A 
ENDBRANCH   4  10
BRANCH   7  17
ATOM     17  C   LIG    1        8.418  -0.242  -0.500  0.00  0.00    +0.550 C 
ATOM     18  O   LIG    1        8.591  -1.446  -0.522  0.00  0.00    -0.490 OA
BRANCH  17  19
ATOM     19  O   LIG    1        7.172   0.259  -0.377  0.00  0.00    -0.330 OA
BRANCH  19  20
ATOM     20  C   LIG    1        6.084  -0.699  -0.276  0.00  0.00    +0.270 C 
BRANCH  20  21
ATOM     21  C   LIG    1        4.777   0.039  -0.146  0.00  0.00    +0.520 C 
ATOM     22  N   LIG    1        3.623  -0.649  -0.037  0.00  0.00    -0.670 N 
ATOM     23  H   LIG    1        3.640  -1.617   0.035  0.00  0.00    +0.420 HD
ATOM     24  O   LIG    1        4.762   1.252  -0.139  0.00  0.00    -0.490 OA
BRANCH  22  25
ATOM     25  C   LIG    1        2.400   0.032  -0.027  0.00  0.00    +0.160 A 
ATOM     26  C   LIG    1        1.339  -0.455   0.724  0.00  0.00    +0.020 A 
ATOM     27  C   LIG    1        0.133   0.218   0.733  0.00  0.00    +0.070 A 
ATOM     28  C   LIG    1       -0.019   1.377  -0.007  0.00  0.00    -0.050 A 
ATOM     29  C   LIG    1        1.038   1.865  -0.758  0.00  0.00    -0.010 A 
ATOM     30 CL   LIG    1        0.844   3.320  -1.686  0.00  0.00    -0.040 Cl
ATOM     31 CL   LIG    1       -1.534   2.225   0.011  0.00  0.00    -0.040 Cl
ATOM     32  C   LIG    1        2.246   1.195  -0.769  0.00  0.00    +0.050 A 
ENDBRANCH  22  25
ENDBRANCH  20  21
ENDBRANCH  19  20
ENDBRANCH  17  19
ENDBRANCH   7  17
TORSDOF 6
