REMARK  Name = ZINCpk00000y6wjt.1
REMARK                            x       y       z     vdW  Elec       q    Type
REMARK                         _______ _______ _______ _____ _____    ______ ____
ROOT
ATOM      1  O   LIG    1        0.141   4.083   0.275  0.00  0.00    -0.510 OA
ATOM      2  C   LIG    1        1.218   3.533   0.400  0.00  0.00    +0.560 C 
ATOM      3  N   LIG    1        2.355   4.252   0.326  0.00  0.00    -0.600 N 
ATOM      4  C   LIG    1        3.671   3.593   0.352  0.00  0.00    +0.240 C 
ATOM      5  C   LIG    1        4.539   4.279   1.408  0.00  0.00    +0.220 C 
ATOM      6  O   LIG    1        4.539   5.690   1.175  0.00  0.00    -0.380 OA
ATOM      7  C   LIG    1        3.252   6.302   1.291  0.00  0.00    +0.220 C 
ATOM      8  C   LIG    1        2.318   5.719   0.224  0.00  0.00    +0.210 C 
ENDROOT
BRANCH   2   9
ATOM      9  C   LIG    1        1.280   2.075   0.631  0.00  0.00    -0.120 A 
ATOM     10  C   LIG    1        0.303   1.449   1.410  0.00  0.00    +0.080 A 
ATOM     11  C   LIG    1        0.361   0.091   1.625  0.00  0.00    +0.070 A 
ATOM     12  C   LIG    1        1.395  -0.662   1.065  0.00  0.00    +0.000 A 
ATOM     13  C   LIG    1        2.371  -0.036   0.285  0.00  0.00    +0.020 A 
ATOM     14  C   LIG    1        2.314   1.321   0.070  0.00  0.00    +0.050 A 
BRANCH  12  15
ATOM     15  C   LIG    1        1.457  -2.120   1.296  0.00  0.00    +0.210 A 
ATOM     16  N   LIG    1        0.615  -2.836   2.009  0.00  0.00    -0.270 NA
ATOM     17  N   LIG    1        0.975  -4.070   1.989  0.00  0.00    -0.290 NA
ATOM     18  C   LIG    1        2.062  -4.208   1.278  0.00  0.00    +0.400 A 
ATOM     19  N   LIG    1        2.405  -2.982   0.815  0.00  0.00    -0.580 N 
ATOM     20  H   LIG    1        3.167  -2.761   0.257  0.00  0.00    +0.430 HD
ENDBRANCH  12  15
ENDBRANCH   2   9
BRANCH   8  21
ATOM     21  C   LIG    1        0.891   6.216   0.461  0.00  0.00    +0.050 C 
ATOM     22  C   LIG    1        0.452   5.931   1.919  0.00  0.00    +0.020 C 
ATOM     23  C   LIG    1       -0.665   6.978   2.151  0.00  0.00    +0.010 C 
ATOM     24  C   LIG    1       -0.162   8.237   1.415  0.00  0.00    -0.020 C 
ATOM     25  C   LIG    1        0.827   7.753   0.341  0.00  0.00    +0.150 C 
BRANCH  25  26
ATOM     26  O   LIG    1        0.361   8.124  -0.958  0.00  0.00    -0.560 OA
ATOM     27  H   LIG    1        0.299   9.079  -1.096  0.00  0.00    +0.380 HD
ENDBRANCH  25  26
ENDBRANCH   8  21
TORSDOF 4
