REMARK  Name = ZINCpk00000y6wjt.0
REMARK                            x       y       z     vdW  Elec       q    Type
REMARK                         _______ _______ _______ _____ _____    ______ ____
ROOT
ATOM      1  O   LIG    1        1.030  -0.528   0.243  0.00  0.00    -0.510 OA
ATOM      2  C   LIG    1       -0.044   0.022   0.393  0.00  0.00    +0.560 C 
ATOM      3  N   LIG    1       -1.182  -0.697   0.333  0.00  0.00    -0.600 N 
ATOM      4  C   LIG    1       -2.497  -0.038   0.385  0.00  0.00    +0.240 C 
ATOM      5  C   LIG    1       -3.346  -0.736   1.454  0.00  0.00    +0.220 C 
ATOM      6  O   LIG    1       -3.350  -2.144   1.207  0.00  0.00    -0.380 OA
ATOM      7  C   LIG    1       -2.062  -2.757   1.292  0.00  0.00    +0.220 C 
ATOM      8  C   LIG    1       -1.148  -2.163   0.209  0.00  0.00    +0.210 C 
ENDROOT
BRANCH   2   9
ATOM      9  C   LIG    1       -0.100   1.477   0.639  0.00  0.00    -0.120 A 
ATOM     10  C   LIG    1       -1.144   2.236   0.103  0.00  0.00    +0.040 A 
ATOM     11  C   LIG    1       -1.199   3.592   0.339  0.00  0.00    +0.050 A 
ATOM     12  C   LIG    1       -0.207   4.209   1.101  0.00  0.00    +0.010 A 
ATOM     13  C   LIG    1        0.838   3.453   1.632  0.00  0.00    +0.060 A 
ATOM     14  C   LIG    1        0.892   2.096   1.403  0.00  0.00    +0.070 A 
BRANCH  12  15
ATOM     15  C   LIG    1       -0.264   5.670   1.349  0.00  0.00    +0.260 A 
ATOM     16  N   LIG    1       -1.194   6.487   0.904  0.00  0.00    -0.300 NA
ATOM     17  N   LIG    1       -0.861   7.769   1.370  0.00  0.00    -0.480 N 
ATOM     18  H   LIG    1       -1.353   8.590   1.211  0.00  0.00    +0.450 HD
ATOM     19  C   LIG    1        0.274   7.635   2.080  0.00  0.00    +0.500 A 
ATOM     20  N   LIG    1        0.621   6.376   2.066  0.00  0.00    -0.530 NA
ENDBRANCH  12  15
ENDBRANCH   2   9
BRANCH   8  21
ATOM     21  C   LIG    1        0.284  -2.663   0.409  0.00  0.00    +0.050 C 
ATOM     22  C   LIG    1        0.752  -2.399   1.862  0.00  0.00    +0.030 C 
ATOM     23  C   LIG    1        1.874  -3.450   2.056  0.00  0.00    +0.010 C 
ATOM     24  C   LIG    1        1.356  -4.698   1.312  0.00  0.00    -0.020 C 
ATOM     25  C   LIG    1        0.345  -4.198   0.265  0.00  0.00    +0.150 C 
BRANCH  25  26
ATOM     26  O   LIG    1        0.786  -4.549  -1.048  0.00  0.00    -0.560 OA
ATOM     27  H   LIG    1        0.845  -5.502  -1.201  0.00  0.00    +0.380 HD
ENDBRANCH  25  26
ENDBRANCH   8  21
TORSDOF 4
