REMARK  Name = ZINCpe000000XFEx.0
REMARK                            x       y       z     vdW  Elec       q    Type
REMARK                         _______ _______ _______ _____ _____    ______ ____
ROOT
ATOM      1  N   LIG    1        3.998   0.206   1.345  0.00  0.00    -0.540 NA
ATOM      2  C   LIG    1        3.777   1.421   2.142  0.00  0.00    +0.190 C 
ATOM      3  C   LIG    1        4.225   1.171   3.584  0.00  0.00    +0.180 C 
ATOM      4  N   LIG    1        5.644   0.789   3.594  0.00  0.00    -0.540 NA
ATOM      5  C   LIG    1        5.865  -0.426   2.797  0.00  0.00    +0.190 C 
ATOM      6  C   LIG    1        5.417  -0.176   1.355  0.00  0.00    +0.190 C 
ENDROOT
BRANCH   1   7
ATOM      7  C   LIG    1        3.510   0.381  -0.029  0.00  0.00    +0.280 C 
BRANCH   7  11
ATOM      8  C   LIG    1       -1.235   2.222   0.020  0.00  0.00    +0.180 C 
ATOM      9  C   LIG    1       -0.016   1.336   0.009  0.00  0.00    -0.030 A 
ATOM     10  C   LIG    1        1.278   1.737  -0.001  0.00  0.00    -0.070 A 
ATOM     11  C   LIG    1        2.010   0.528  -0.014  0.00  0.00    +0.030 A 
ATOM     12  N   LIG    1        1.133  -0.433  -0.011  0.00  0.00    -0.350 NA
ATOM     13  O   LIG    1        0.002  -0.004   0.002  0.00  0.00    +0.100 OA
ENDBRANCH   7  11
ENDBRANCH   1   7
BRANCH   4  14
ATOM     14  C   LIG    1        6.132   0.614   4.968  0.00  0.00    +0.180 C 
BRANCH  14  15
ATOM     15  C   LIG    1        6.116   1.962   5.691  0.00  0.00    +0.020 C 
BRANCH  15  16
ATOM     16  C   LIG    1        6.625   1.779   7.123  0.00  0.00    +0.320 C 
BRANCH  16  17
ATOM     17  N   LIG    1        6.609   3.070   7.815  0.00  0.00    -0.580 N 
ATOM     18  C   LIG    1        5.567   3.536   8.513  0.00  0.00    +0.700 C 
ATOM     19  N   LIG    1        5.809   4.745   9.052  0.00  0.00    -0.720 N 
ATOM     20  H   LIG    1        5.200   5.270   9.594  0.00  0.00    +0.440 HD
ATOM     21  C   LIG    1        7.179   5.116   8.657  0.00  0.00    +0.120 C 
ATOM     22  C   LIG    1        8.066   5.293   9.891  0.00  0.00    +0.090 C 
ATOM     23  C   LIG    1        7.170   6.394   7.815  0.00  0.00    +0.090 C 
ATOM     24  O   LIG    1        4.520   2.935   8.646  0.00  0.00    -0.540 OA
ATOM     25  C   LIG    1        7.645   3.932   7.832  0.00  0.00    +0.530 C 
ATOM     26  O   LIG    1        8.724   3.791   7.298  0.00  0.00    -0.460 OA
ENDBRANCH  16  17
ENDBRANCH  15  16
ENDBRANCH  14  15
ENDBRANCH   4  14
TORSDOF 6
