REMARK  Name = ZINCqH0000007UwR.1
REMARK                            x       y       z     vdW  Elec       q    Type
REMARK                         _______ _______ _______ _____ _____    ______ ____
ROOT
ATOM      1  C   LIG    1        3.533  -0.182   3.266  0.00  0.00    -0.050 A 
ATOM      2  C   LIG    1        3.514  -0.825   2.043  0.00  0.00    +0.040 A 
ATOM      3  C   LIG    1        2.813  -0.277   0.985  0.00  0.00    +0.040 A 
ATOM      4  C   LIG    1        2.131   0.914   1.151  0.00  0.00    -0.170 A 
ATOM      5  C   LIG    1        2.154   1.560   2.373  0.00  0.00    +0.030 A 
ATOM      6  C   LIG    1        2.851   1.009   3.432  0.00  0.00    +0.040 A 
ENDROOT
BRANCH   1   7
ATOM      7  C   LIG    1        4.297  -0.780   4.420  0.00  0.00    +0.310 C 
BRANCH   7  10
ATOM      8  N   LIG    1        7.810  -0.210   5.344  0.00  0.00    -0.710 NA
ATOM      9  C   LIG    1        6.545  -0.675   5.354  0.00  0.00    +0.650 C 
ATOM     10  N   LIG    1        5.672  -0.274   4.409  0.00  0.00    -0.740 N 
ATOM     11  H   LIG    1        5.954   0.349   3.721  0.00  0.00    +0.390 HD
ATOM     12  O   LIG    1        6.191  -1.456   6.216  0.00  0.00    -0.620 OA
BRANCH   8  16
ATOM     13  C   LIG    1       10.595  -1.119   7.872  0.00  0.00    -0.110 A 
ATOM     14  C   LIG    1        9.431  -1.728   8.122  0.00  0.00    +0.200 A 
ATOM     15  N   LIG    1        8.446  -1.446   7.288  0.00  0.00    -0.540 NA
ATOM     16  C   LIG    1        8.711  -0.624   6.320  0.00  0.00    +0.380 A 
ATOM     17  S   LIG    1       10.392  -0.109   6.442  0.00  0.00    -0.050 S 
BRANCH  13  19
ATOM     18  C   LIG    1       12.876  -0.511   8.157  0.00  0.00    +0.220 C 
ATOM     19  O   LIG    1       11.738  -1.254   8.597  0.00  0.00    -0.290 OA
ENDBRANCH  13  19
ENDBRANCH   8  16
ENDBRANCH   7  10
ENDBRANCH   1   7
BRANCH   4  20
ATOM     20  C   LIG    1        1.367   1.512  -0.003  0.00  0.00    +0.310 C 
BRANCH  20  21
ATOM     21  N   LIG    1       -0.012   1.005   0.008  0.00  0.00    -0.380 N 
ATOM     22  C   LIG    1       -0.696   1.477   1.217  0.00  0.00    +0.250 C 
ATOM     23  C   LIG    1       -2.107   0.887   1.273  0.00  0.00    +0.060 C 
ATOM     24  C   LIG    1       -2.890   1.333   0.035  0.00  0.00    +0.040 C 
ATOM     25  C   LIG    1       -2.129   0.900  -1.222  0.00  0.00    -0.020 C 
ATOM     26  C   LIG    1       -2.863   1.409  -2.464  0.00  0.00    +0.070 C 
ATOM     27  C   LIG    1       -0.719   1.490  -1.184  0.00  0.00    +0.260 C 
ATOM     28  H   LIG    1        0.002  -0.004   0.002  0.00  0.00    +0.420 HD
ENDBRANCH  20  21
ENDBRANCH   4  20
TORSDOF 6
