REMARK  Name = ZINCqH0000007UwR.2
REMARK                            x       y       z     vdW  Elec       q    Type
REMARK                         _______ _______ _______ _____ _____    ______ ____
ROOT
ATOM      1  C   LIG    1        1.156   3.165   0.008  0.00  0.00    -0.050 A 
ATOM      2  C   LIG    1        1.175   1.783   0.000  0.00  0.00    +0.040 A 
ATOM      3  C   LIG    1       -0.013   1.076   0.008  0.00  0.00    +0.030 A 
ATOM      4  C   LIG    1       -1.219   1.751   0.017  0.00  0.00    -0.170 A 
ATOM      5  C   LIG    1       -1.238   3.133   0.030  0.00  0.00    +0.030 A 
ATOM      6  C   LIG    1       -0.050   3.840   0.022  0.00  0.00    +0.040 A 
ENDROOT
BRANCH   1   7
ATOM      7  C   LIG    1        2.451   3.937  -0.001  0.00  0.00    +0.310 C 
BRANCH   7  10
ATOM      8  N   LIG    1        4.367   5.109  -2.912  0.00  0.00    -0.710 NA
ATOM      9  C   LIG    1        3.993   4.873  -1.639  0.00  0.00    +0.650 C 
ATOM     10  N   LIG    1        2.857   4.194  -1.385  0.00  0.00    -0.740 N 
ATOM     11  H   LIG    1        2.308   3.875  -2.119  0.00  0.00    +0.390 HD
ATOM     12  O   LIG    1        4.681   5.272  -0.720  0.00  0.00    -0.620 OA
BRANCH   8  16
ATOM     13  C   LIG    1        7.540   7.013  -4.042  0.00  0.00    -0.110 A 
ATOM     14  C   LIG    1        7.419   6.926  -2.714  0.00  0.00    +0.200 A 
ATOM     15  N   LIG    1        6.346   6.288  -2.278  0.00  0.00    -0.540 NA
ATOM     16  C   LIG    1        5.540   5.811  -3.175  0.00  0.00    +0.380 A 
ATOM     17  S   LIG    1        6.161   6.198  -4.777  0.00  0.00    -0.050 S 
BRANCH  13  19
ATOM     18  C   LIG    1        8.495   7.603  -6.139  0.00  0.00    +0.220 C 
ATOM     19  O   LIG    1        8.554   7.624  -4.712  0.00  0.00    -0.290 OA
ENDBRANCH  13  19
ENDBRANCH   8  16
ENDBRANCH   7  10
ENDBRANCH   1   7
BRANCH   4  20
ATOM     20  C   LIG    1       -2.514   0.980   0.019  0.00  0.00    +0.310 C 
BRANCH  20  21
ATOM     21  N   LIG    1       -2.928   0.721   1.405  0.00  0.00    -0.380 N 
ATOM     22  C   LIG    1       -1.944  -0.154   2.053  0.00  0.00    +0.250 C 
ATOM     23  C   LIG    1       -2.327  -0.360   3.520  0.00  0.00    +0.050 C 
ATOM     24  C   LIG    1       -3.714  -1.006   3.593  0.00  0.00    +0.040 C 
ATOM     25  C   LIG    1       -4.718  -0.121   2.850  0.00  0.00    +0.010 C 
ATOM     26  C   LIG    1       -4.816   1.238   3.546  0.00  0.00    +0.030 C 
ATOM     27  C   LIG    1       -4.246   0.076   1.408  0.00  0.00    +0.260 C 
ATOM     28  H   LIG    1       -2.981   1.595   1.907  0.00  0.00    +0.420 HD
ENDBRANCH  20  21
ENDBRANCH   4  20
TORSDOF 6
