REMARK  Name = ZINCpe000000V6xD.0
REMARK                            x       y       z     vdW  Elec       q    Type
REMARK                         _______ _______ _______ _____ _____    ______ ____
ROOT
ATOM      1  N   LIG    1        5.259   1.493   3.159  0.00  0.00    -0.490 N 
ATOM      2  C   LIG    1        4.365   0.695   3.792  0.00  0.00    +0.340 A 
ATOM      3  C   LIG    1        3.936  -0.463   3.230  0.00  0.00    -0.200 A 
ATOM      4  C   LIG    1        4.418  -0.858   1.982  0.00  0.00    +0.230 A 
ATOM      5  C   LIG    1        5.332  -0.040   1.323  0.00  0.00    -0.160 A 
ATOM      6  C   LIG    1        5.752   1.163   1.950  0.00  0.00    +0.530 A 
ATOM      7  O   LIG    1        6.555   1.893   1.397  0.00  0.00    -0.510 OA
ENDROOT
BRANCH   5   8
ATOM      8  C   LIG    1        5.845  -0.408   0.038  0.00  0.00    +0.270 C 
ATOM      9  N   LIG    1        6.252  -0.700  -0.982  0.00  0.00    -0.410 NA
ENDBRANCH   5   8
BRANCH   1  10
ATOM     10  C   LIG    1        5.696   2.736   3.800  0.00  0.00    +0.340 C 
BRANCH  10  11
ATOM     11  C   LIG    1        6.881   2.444   4.724  0.00  0.00    -0.140 C 
ATOM     12  C   LIG    1        7.949   1.472   4.217  0.00  0.00    +0.050 C 
ATOM     13  C   LIG    1        6.981   1.039   5.321  0.00  0.00    +0.040 C 
BRANCH  11  14
ATOM     14  C   LIG    1        7.345   3.615   5.591  0.00  0.00    +0.160 C 
BRANCH  14  15
ATOM     15  C   LIG    1        7.929   4.691   4.712  0.00  0.00    +0.450 C 
ATOM     16  O   LIG    1        8.107   4.479   3.536  0.00  0.00    -0.480 OA
BRANCH  15  18
ATOM     17  C   LIG    1        8.701   6.910   4.312  0.00  0.00    +0.270 C 
ATOM     18  O   LIG    1        8.251   5.884   5.236  0.00  0.00    -0.360 OA
ENDBRANCH  15  18
ENDBRANCH  14  15
ENDBRANCH  11  14
ENDBRANCH  10  11
ENDBRANCH   1  10
BRANCH   3  19
ATOM     19  C   LIG    1        2.941  -1.329   3.960  0.00  0.00    +0.250 C 
BRANCH  19  20
ATOM     20  N   LIG    1        1.583  -1.010   3.498  0.00  0.00    -0.540 NA
ATOM     21  C   LIG    1        0.611  -1.989   4.006  0.00  0.00    +0.160 C 
ATOM     22  C   LIG    1       -0.777  -1.655   3.454  0.00  0.00    +0.220 C 
ATOM     23  O   LIG    1       -1.119  -0.314   3.815  0.00  0.00    -0.380 OA
ATOM     24  C   LIG    1       -0.194   0.665   3.336  0.00  0.00    +0.220 C 
ATOM     25  C   LIG    1        1.201   0.355   3.887  0.00  0.00    +0.140 C 
ENDBRANCH  19  20
ENDBRANCH   3  19
TORSDOF 8
