REMARK  Name = ZINCpe00000bYbDF.0
REMARK                            x       y       z     vdW  Elec       q    Type
REMARK                         _______ _______ _______ _____ _____    ______ ____
ROOT
ATOM      1  C   LIG    1       -3.498   2.646   3.341  0.00  0.00    +0.640 C 
ATOM      2  N   LIG    1       -3.518   3.037   4.630  0.00  0.00    -0.630 N 
ATOM      3  C   LIG    1       -2.526   3.196   5.705  0.00  0.00    +0.310 C 
ATOM      4  C   LIG    1       -3.441   4.270   6.314  0.00  0.00    -0.020 C 
ATOM      5  C   LIG    1       -3.539   4.215   7.840  0.00  0.00    +0.090 C 
ATOM      6  C   LIG    1       -4.542   3.488   5.584  0.00  0.00    +0.310 C 
ATOM      7  O   LIG    1       -4.529   2.617   2.698  0.00  0.00    -0.520 OA
ENDROOT
BRANCH   1  11
ATOM      8  C   LIG    1       -0.013   1.086   0.008  0.00  0.00    +0.160 C 
ATOM      9  C   LIG    1       -0.718   1.572   1.248  0.00  0.00    +0.010 A 
ATOM     10  C   LIG    1       -2.042   1.826   1.371  0.00  0.00    -0.140 A 
ATOM     11  C   LIG    1       -2.223   2.252   2.708  0.00  0.00    -0.000 A 
ATOM     12  N   LIG    1       -1.035   2.235   3.281  0.00  0.00    -0.260 NA
ATOM     13  C   LIG    1       -3.101   1.683   0.308  0.00  0.00    +0.130 C 
ATOM     14  N   LIG    1       -0.146   1.841   2.441  0.00  0.00    -0.380 N 
ATOM     15  H   LIG    1        0.799   1.748   2.637  0.00  0.00    +0.440 HD
ENDBRANCH   1  11
BRANCH   4  16
ATOM     16  C   LIG    1       -3.212   5.660   5.778  0.00  0.00    -0.020 A 
ATOM     17  C   LIG    1       -2.524   6.637   6.404  0.00  0.00    +0.270 A 
ATOM     18  N   LIG    1       -2.553   7.727   5.584  0.00  0.00    -0.320 N 
ATOM     19  N   LIG    1       -3.288   7.346   4.451  0.00  0.00    -0.020 NA
ATOM     20  N   LIG    1       -3.651   6.120   4.606  0.00  0.00    -0.200 NA
BRANCH  18  21
ATOM     21  C   LIG    1       -1.969   8.972   5.825  0.00  0.00    +0.550 A 
ATOM     22  N   LIG    1       -1.311   9.168   6.955  0.00  0.00    -0.530 NA
ATOM     23  C   LIG    1       -0.741  10.334   7.213  0.00  0.00    +0.370 A 
ATOM     24  C   LIG    1       -0.850  11.359   6.285  0.00  0.00    -0.070 A 
ATOM     25  C   LIG    1       -1.552  11.120   5.114  0.00  0.00    +0.360 A 
ATOM     26  N   LIG    1       -2.093   9.928   4.919  0.00  0.00    -0.500 NA
ENDBRANCH  18  21
ENDBRANCH   4  16
TORSDOF 3
