REMARK  Name = ZINCpe00000MJMEZ.0
REMARK                            x       y       z     vdW  Elec       q    Type
REMARK                         _______ _______ _______ _____ _____    ______ ____
ROOT
ATOM      1  N   LIG    1        3.218  -5.060  -0.453  0.00  0.00    -0.720 N 
ATOM      2  H   LIG    1        4.001  -4.736  -0.926  0.00  0.00    +0.400 HD
ATOM      3  C   LIG    1        2.250  -4.199  -0.083  0.00  0.00    +0.520 C 
ATOM      4  O   LIG    1        1.272  -4.604   0.508  0.00  0.00    -0.510 OA
ENDROOT
BRANCH   3   5
ATOM      5  C   LIG    1        2.383  -2.732  -0.402  0.00  0.00    +0.180 C 
ATOM      6  C   LIG    1        3.559  -2.137   0.383  0.00  0.00    +0.050 C 
ATOM      7  C   LIG    1        3.736  -0.679  -0.048  0.00  0.00    +0.230 C 
ATOM      8  C   LIG    1        2.401   0.022  -0.024  0.00  0.00    -0.200 A 
ATOM      9  C   LIG    1        2.377   1.407  -0.015  0.00  0.00    +0.040 A 
ATOM     10  C   LIG    1        1.172   2.083   0.002  0.00  0.00    -0.020 A 
ATOM     11  C   LIG    1       -0.017   1.376   0.010  0.00  0.00    +0.050 A 
ATOM     12  C   LIG    1        0.002  -0.004   0.002  0.00  0.00    +0.000 A 
ATOM     13  C   LIG    1        1.214  -0.688  -0.015  0.00  0.00    +0.140 A 
ATOM     14  O   LIG    1        1.191  -2.046  -0.017  0.00  0.00    -0.290 OA
BRANCH   7  15
ATOM     15  O   LIG    1        4.634  -0.023   0.849  0.00  0.00    -0.550 OA
ATOM     16  H   LIG    1        4.793   0.907   0.637  0.00  0.00    +0.380 HD
ENDBRANCH   7  15
ENDBRANCH   3   5
BRANCH   1  17
ATOM     17  C   LIG    1        3.089  -6.486  -0.143  0.00  0.00    +0.360 C 
BRANCH  17  25
ATOM     18  C   LIG    1        7.759  -6.670   2.841  0.00  0.00    +0.210 C 
ATOM     19  N   LIG    1        7.194  -7.324   1.653  0.00  0.00    -0.550 NA
ATOM     20  C   LIG    1        8.169  -7.351   0.553  0.00  0.00    +0.200 C 
ATOM     21  C   LIG    1        7.708  -8.341  -0.523  0.00  0.00    +0.330 C 
ATOM     22  N   LIG    1        6.309  -8.047  -0.849  0.00  0.00    -0.360 N 
ATOM     23  N   LIG    1        5.573  -8.457  -1.959  0.00  0.00    -0.290 NA
ATOM     24  C   LIG    1        4.362  -7.968  -1.848  0.00  0.00    +0.250 A 
ATOM     25  C   LIG    1        4.296  -7.224  -0.662  0.00  0.00    -0.260 A 
ATOM     26  C   LIG    1        5.500  -7.293  -0.066  0.00  0.00    +0.110 A 
ATOM     27  C   LIG    1        5.941  -6.670   1.235  0.00  0.00    +0.280 C 
ENDBRANCH  17  25
ENDBRANCH   1  17
TORSDOF 4
