REMARK  Name = ZINCrg000013YXii.0
REMARK                            x       y       z     vdW  Elec       q    Type
REMARK                         _______ _______ _______ _____ _____    ______ ____
ROOT
ATOM      1  C   LIG    1        0.678   4.623   3.471  0.00  0.00    +0.580 C 
ATOM      2  N   LIG    1        0.793   5.545   2.494  0.00  0.00    -0.580 N 
ATOM      3  C   LIG    1       -0.249   5.686   1.516  0.00  0.00    +0.300 C 
ATOM      4  C   LIG    1       -0.037   4.770   0.280  0.00  0.00    +0.290 C 
ATOM      5  N   LIG    1        1.411   4.739  -0.064  0.00  0.00    -0.600 N 
ATOM      6  C   LIG    1        2.236   5.911   0.001  0.00  0.00    +0.310 C 
ATOM      7  C   LIG    1        2.911   5.939   1.383  0.00  0.00    +0.130 C 
ATOM      8  C   LIG    1        1.963   3.574  -0.456  0.00  0.00    +0.590 C 
ATOM      9  O   LIG    1        1.262   2.592  -0.619  0.00  0.00    -0.520 OA
ATOM     10  C   LIG    1        1.993   6.411   2.431  0.00  0.00    +0.270 C 
ATOM     11  O   LIG    1        1.500   4.579   4.365  0.00  0.00    -0.520 OA
ENDROOT
BRANCH   1  15
ATOM     12  C   LIG    1       -1.946   0.974   5.660  0.00  0.00    +0.130 C 
ATOM     13  C   LIG    1       -1.702   1.915   4.510  0.00  0.00    -0.080 A 
ATOM     14  C   LIG    1       -0.641   2.805   4.536  0.00  0.00    +0.080 A 
ATOM     15  C   LIG    1       -0.449   3.663   3.455  0.00  0.00    +0.070 A 
ATOM     16  N   LIG    1       -1.265   3.625   2.408  0.00  0.00    -0.430 NA
ATOM     17  C   LIG    1       -2.278   2.789   2.353  0.00  0.00    +0.260 A 
ATOM     18  C   LIG    1       -2.532   1.908   3.396  0.00  0.00    +0.070 A 
ATOM     19  F   LIG    1       -3.575   1.052   3.329  0.00  0.00    -0.120 F 
ENDBRANCH   1  15
BRANCH   8  20
ATOM     20  C   LIG    1        3.408   3.488  -0.685  0.00  0.00    -0.300 A 
ATOM     21  C   LIG    1        4.067   2.404  -1.193  0.00  0.00    +0.100 A 
ATOM     22  C   LIG    1        5.424   2.595  -1.303  0.00  0.00    +0.000 A 
ATOM     23  C   LIG    1        5.863   3.793  -0.901  0.00  0.00    -0.240 A 
ATOM     24  S   LIG    1        4.572   4.763  -0.351  0.00  0.00    +0.300 S 
BRANCH  23  25
ATOM     25  C   LIG    1        7.306   4.228  -0.929  0.00  0.00    +0.270 C 
BRANCH  25  26
ATOM     26  O   LIG    1        7.593   4.846  -2.185  0.00  0.00    -0.570 OA
ATOM     27  H   LIG    1        8.506   5.151  -2.273  0.00  0.00    +0.390 HD
ENDBRANCH  25  26
ENDBRANCH  23  25
ENDBRANCH   8  20
BRANCH   7  28
ATOM     28  O   LIG    1        4.043   6.809   1.330  0.00  0.00    -0.550 OA
ATOM     29  H   LIG    1        4.524   6.880   2.166  0.00  0.00    +0.390 HD
ENDBRANCH   7  28
TORSDOF 5
