REMARK  Name = ZINCrH000004uFHE.0
REMARK                            x       y       z     vdW  Elec       q    Type
REMARK                         _______ _______ _______ _____ _____    ______ ____
ROOT
ATOM      1  C   LIG    1       -1.270  -0.762   0.010  0.00  0.00    -0.090 A 
ATOM      2  C   LIG    1       -2.488  -0.073   0.031  0.00  0.00    +0.020 A 
ATOM      3  C   LIG    1       -3.672  -0.756   0.035  0.00  0.00    +0.100 A 
ATOM      4  C   LIG    1       -3.669  -2.148   0.028  0.00  0.00    -0.180 A 
ATOM      5  C   LIG    1       -4.918  -2.929   0.038  0.00  0.00    +0.550 A 
ATOM      6  N   LIG    1       -4.811  -4.274   0.029  0.00  0.00    -0.540 N 
ATOM      7  C   LIG    1       -6.012  -5.118   0.047  0.00  0.00    +0.300 C 
ATOM      8  C   LIG    1       -6.221  -5.722  -1.340  0.00  0.00    +0.020 C 
ATOM      9  C   LIG    1       -5.493  -7.049  -1.474  0.00  0.00    +0.010 C 
ATOM     10  C   LIG    1       -3.985  -6.885  -1.396  0.00  0.00    +0.040 C 
ATOM     11  C   LIG    1       -3.554  -6.396  -0.015  0.00  0.00    +0.140 C 
ATOM     12  C   LIG    1       -3.587  -4.883   0.006  0.00  0.00    +0.410 A 
ATOM     13  N   LIG    1       -2.473  -4.215  -0.001  0.00  0.00    -0.520 NA
ATOM     14  O   LIG    1       -6.005  -2.382   0.054  0.00  0.00    -0.510 OA
ATOM     15  C   LIG    1       -2.448  -2.859   0.010  0.00  0.00    +0.150 A 
ATOM     16  C   LIG    1       -1.245  -2.151   0.002  0.00  0.00    +0.110 A 
ENDROOT
BRANCH   1  18
ATOM     17  O   LIG    1        1.063  -0.597  -0.011  0.00  0.00    -0.520 OA
ATOM     18  C   LIG    1        0.002  -0.004   0.002  0.00  0.00    +0.560 C 
ATOM     19  N   LIG    1       -0.016   1.344   0.009  0.00  0.00    -0.720 N 
ATOM     20  H   LIG    1       -0.863   1.817   0.016  0.00  0.00    +0.400 HD
BRANCH  19  21
ATOM     21  C   LIG    1        1.242   2.093   0.001  0.00  0.00    +0.340 C 
BRANCH  21  22
ATOM     22  C   LIG    1        0.947   3.571   0.012  0.00  0.00    -0.110 A 
ATOM     23  C   LIG    1        1.126   4.303   1.170  0.00  0.00    +0.050 A 
ATOM     24  C   LIG    1        0.855   5.659   1.180  0.00  0.00    +0.010 A 
ATOM     25  C   LIG    1        0.404   6.283   0.032  0.00  0.00    +0.040 A 
ATOM     26  C   LIG    1        0.224   5.551  -1.127  0.00  0.00    +0.030 A 
ATOM     27  C   LIG    1        0.502   4.196  -1.139  0.00  0.00    -0.020 A 
ATOM     28 CL   LIG    1        0.283   3.278  -2.597  0.00  0.00    -0.060 Cl
ENDBRANCH  21  22
ENDBRANCH  19  21
ENDBRANCH   1  18
TORSDOF 3
