REMARK  Name = ZINCqH00000327HK.0
REMARK                            x       y       z     vdW  Elec       q    Type
REMARK                         _______ _______ _______ _____ _____    ______ ____
ROOT
ATOM      1  C   LIG    1       -4.188   6.261  -1.108  0.00  0.00    +0.530 C 
ATOM      2  N   LIG    1       -5.295   7.005  -1.301  0.00  0.00    -0.550 N 
ATOM      3  C   LIG    1       -6.256   6.814  -2.390  0.00  0.00    +0.290 C 
ATOM      4  C   LIG    1       -7.328   7.896  -2.177  0.00  0.00    -0.030 C 
ATOM      5  C   LIG    1       -6.876   8.641  -0.941  0.00  0.00    -0.130 A 
ATOM      6  C   LIG    1       -7.438   9.712  -0.274  0.00  0.00    +0.100 A 
ATOM      7  C   LIG    1       -6.834  10.216   0.863  0.00  0.00    -0.040 A 
ATOM      8  C   LIG    1       -5.656   9.654   1.324  0.00  0.00    +0.140 A 
ATOM      9  C   LIG    1       -5.088   8.587   0.656  0.00  0.00    -0.060 A 
ATOM     10  F   LIG    1       -5.059  10.151   2.429  0.00  0.00    -0.130 F 
ATOM     11  C   LIG    1       -8.697   7.252  -1.944  0.00  0.00    +0.060 C 
ATOM     12  C   LIG    1       -7.380   8.839  -3.380  0.00  0.00    +0.060 C 
ATOM     13  C   LIG    1       -5.698   8.068  -0.487  0.00  0.00    +0.180 A 
ATOM     14  O   LIG    1       -3.927   5.353  -1.870  0.00  0.00    -0.490 OA
ENDROOT
BRANCH   1  15
ATOM     15  C   LIG    1       -3.274   6.556   0.053  0.00  0.00    +0.170 C 
BRANCH  15  18
ATOM     16  C   LIG    1       -1.213   3.551   0.027  0.00  0.00    +0.240 A 
ATOM     17  N   LIG    1       -2.286   4.279   0.036  0.00  0.00    -0.490 NA
ATOM     18  C   LIG    1       -2.119   5.588   0.043  0.00  0.00    +0.100 A 
ATOM     19  C   LIG    1       -0.846   5.985   0.039  0.00  0.00    -0.130 A 
ATOM     20  S   LIG    1        0.175   4.549   0.033  0.00  0.00    +0.250 S 
BRANCH  16  22
ATOM     21  C   LIG    1       -0.018   1.503   0.010  0.00  0.00    +0.520 C 
ATOM     22  N   LIG    1       -1.195   2.161   0.019  0.00  0.00    -0.620 N 
ATOM     23  H   LIG    1       -2.028   1.664   0.021  0.00  0.00    +0.420 HD
ATOM     24  O   LIG    1        1.024   2.123   0.004  0.00  0.00    -0.500 OA
BRANCH  21  26
ATOM     25  C   LIG    1        1.451  -0.494  -0.015  0.00  0.00    +0.070 C 
ATOM     26  C   LIG    1        0.002  -0.004   0.002  0.00  0.00    +0.010 C 
ATOM     27  C   LIG    1       -0.700  -0.530   1.255  0.00  0.00    +0.060 C 
ENDBRANCH  21  26
ENDBRANCH  16  22
ENDBRANCH  15  18
ENDBRANCH   1  15
TORSDOF 4
