REMARK  Name = ZINCAx0000000juA.0
REMARK                            x       y       z     vdW  Elec       q    Type
REMARK                         _______ _______ _______ _____ _____    ______ ____
ROOT
ATOM      1  C   LIG    1        2.703   1.958  -1.371  0.00  0.00    +0.100 A 
ATOM      2  C   LIG    1        2.011   3.151  -1.350  0.00  0.00    +0.180 A 
ATOM      3  N   LIG    1        0.831   2.913  -0.696  0.00  0.00    -0.390 N 
ATOM      4  C   LIG    1       -0.217   3.729  -0.395  0.00  0.00    +0.290 A 
ATOM      5  C   LIG    1       -1.302   3.246   0.279  0.00  0.00    -0.150 A 
ATOM      6  C   LIG    1       -1.334   1.837   0.672  0.00  0.00    +0.060 A 
ATOM      7  C   LIG    1       -0.278   1.043   0.366  0.00  0.00    +0.100 A 
ATOM      8  C   LIG    1        0.825   1.585  -0.332  0.00  0.00    +0.240 A 
ATOM      9  N   LIG    1        1.953   1.031  -0.744  0.00  0.00    -0.440 NA
ENDROOT
BRANCH   1  17
ATOM     10  C   LIG    1        5.453  -1.821  -1.716  0.00  0.00    -0.170 A 
ATOM     11  C   LIG    1        6.653  -1.546  -2.390  0.00  0.00    +0.130 A 
ATOM     12  C   LIG    1        6.912  -0.295  -2.861  0.00  0.00    -0.020 A 
ATOM     13  C   LIG    1        5.985   0.731  -2.677  0.00  0.00    +0.160 A 
ATOM     14  N   LIG    1        5.964   2.054  -3.026  0.00  0.00    -0.500 N 
ATOM     15  H   LIG    1        6.668   2.518  -3.505  0.00  0.00    +0.450 HD
ATOM     16  N   LIG    1        4.767   2.631  -2.592  0.00  0.00    -0.220 NA
ATOM     17  C   LIG    1        4.035   1.735  -1.976  0.00  0.00    +0.200 A 
ATOM     18  C   LIG    1        4.776   0.468  -2.001  0.00  0.00    -0.170 A 
ATOM     19  C   LIG    1        4.514  -0.813  -1.522  0.00  0.00    +0.200 A 
BRANCH  10  20
ATOM     20  C   LIG    1        5.187  -3.182  -1.212  0.00  0.00    +0.510 C 
ATOM     21  O   LIG    1        4.149  -3.421  -0.628  0.00  0.00    -0.510 OA
BRANCH  20  23
ATOM     22  C   LIG    1        5.767  -5.474  -0.877  0.00  0.00    +0.260 C 
ATOM     23  O   LIG    1        6.096  -4.159  -1.400  0.00  0.00    -0.360 OA
ENDBRANCH  20  23
ENDBRANCH  10  20
ENDBRANCH   1  17
BRANCH   5  24
ATOM     24  C   LIG    1       -2.433   4.135   0.602  0.00  0.00    +0.570 C 
ATOM     25  N   LIG    1       -3.688   3.645   0.632  0.00  0.00    -0.610 N 
ATOM     26  C   LIG    1       -3.917   2.207   0.466  0.00  0.00    +0.290 C 
ATOM     27  C   LIG    1       -4.824   4.549   0.830  0.00  0.00    +0.300 C 
ATOM     28  O   LIG    1       -2.234   5.310   0.843  0.00  0.00    -0.530 OA
ENDBRANCH   5  24
BRANCH   2  29
ATOM     29  N   LIG    1        2.433   4.365  -1.890  0.00  0.00    -0.550 N 
ATOM     30  H   LIG    1        2.513   4.305  -2.894  0.00  0.00    +0.370 HD
BRANCH  29  31
ATOM     31  C   LIG    1        1.531   5.457  -1.498  0.00  0.00    +0.150 C 
ATOM     32  C   LIG    1        0.458   5.777  -2.551  0.00  0.00    +0.030 C 
ATOM     33  C   LIG    1        0.692   7.261  -2.224  0.00  0.00    +0.020 C 
ATOM     34  C   LIG    1        2.105   6.857  -1.771  0.00  0.00    +0.100 C 
BRANCH  33  35
ATOM     35  C   LIG    1        0.680   8.158  -3.436  0.00  0.00    +0.470 C 
ATOM     36  O   LIG    1        1.721   8.489  -3.952  0.00  0.00    -0.500 OA
BRANCH  35  37
ATOM     37  O   LIG    1       -0.486   8.588  -3.941  0.00  0.00    -0.360 OA
ATOM     38  C   LIG    1       -0.422   9.448  -5.109  0.00  0.00    +0.250 C 
ENDBRANCH  35  37
ENDBRANCH  33  35
ENDBRANCH  29  31
ENDBRANCH   2  29
TORSDOF 8
