REMARK  Name = ZINCrH00000No56Q.0
REMARK                            x       y       z     vdW  Elec       q    Type
REMARK                         _______ _______ _______ _____ _____    ______ ____
ROOT
ATOM      1  C   LIG    1        3.536  -2.560  -2.247  0.00  0.00    +0.040 C 
ENDROOT
BRANCH   1   2
ATOM      2  C   LIG    1        2.288  -1.725  -2.541  0.00  0.00    +0.080 C 
BRANCH   2   4
ATOM      3  N   LIG    1        0.580  -0.478  -1.258  0.00  0.00    -0.600 N 
ATOM      4  C   LIG    1        1.693  -1.238  -1.245  0.00  0.00    +0.530 C 
ATOM      5  O   LIG    1        2.216  -1.529  -0.190  0.00  0.00    -0.540 OA
BRANCH   3   6
ATOM      6  C   LIG    1        0.002  -0.004   0.002  0.00  0.00    +0.240 C 
BRANCH   6   8
ATOM      7  C   LIG    1        1.417   2.055  -0.000  0.00  0.00    +0.000 C 
ATOM      8  C   LIG    1       -0.019   1.526   0.010  0.00  0.00    +0.000 C 
ENDBRANCH   6   8
BRANCH   6   9
ATOM      9  C   LIG    1       -1.427  -0.534   0.139  0.00  0.00    +0.000 C 
ATOM     10  C   LIG    1       -1.396  -2.059   0.256  0.00  0.00    +0.010 C 
ENDBRANCH   6   9
ENDBRANCH   3   6
BRANCH   3  11
ATOM     11  C   LIG    1       -0.051  -0.125  -2.532  0.00  0.00    +0.290 C 
BRANCH  11  12
ATOM     12  C   LIG    1        0.542   1.187  -3.050  0.00  0.00    +0.160 C 
BRANCH  12  13
ATOM     13  O   LIG    1        1.925   0.997  -3.353  0.00  0.00    -0.570 OA
ATOM     14  H   LIG    1        2.367   1.790  -3.687  0.00  0.00    +0.380 HD
ENDBRANCH  12  13
ENDBRANCH  11  12
ENDBRANCH   3  11
ENDBRANCH   2   4
ENDBRANCH   1   2
BRANCH   1  15
ATOM     15  C   LIG    1        4.140  -3.054  -3.563  0.00  0.00    +0.310 C 
BRANCH  15  16
ATOM     16  N   LIG    1        5.335  -3.853  -3.282  0.00  0.00    -0.510 N 
ATOM     17  C   LIG    1        5.241  -5.159  -3.095  0.00  0.00    +0.550 C 
ATOM     18  C   LIG    1        6.454  -5.844  -2.829  0.00  0.00    -0.300 C 
ATOM     19  S   LIG    1        7.693  -4.574  -2.858  0.00  0.00    +0.090 S 
ATOM     20  C   LIG    1        6.628  -7.177  -2.601  0.00  0.00    +0.320 C 
ATOM     21  O   LIG    1        4.172  -5.740  -3.148  0.00  0.00    -0.460 OA
ATOM     22  C   LIG    1        6.542  -3.273  -3.216  0.00  0.00    +0.270 C 
ATOM     23  S   LIG    1        6.899  -1.612  -3.432  0.00  0.00    -0.350 S 
BRANCH  20  24
ATOM     24  C   LIG    1        7.923  -7.688  -2.351  0.00  0.00    -0.250 A 
ATOM     25  C   LIG    1        8.225  -9.002  -2.103  0.00  0.00    +0.110 A 
ATOM     26  C   LIG    1        9.567  -9.219  -1.897  0.00  0.00    +0.000 A 
ATOM     27  C   LIG    1       10.336  -8.126  -1.962  0.00  0.00    -0.040 A 
ATOM     28  S   LIG    1        9.402  -6.739  -2.299  0.00  0.00    +0.230 S 
ENDBRANCH  20  24
ENDBRANCH  15  16
ENDBRANCH   1  15
TORSDOF 11
