REMARK  Name = ZINCDN00000009B8.0
REMARK                            x       y       z     vdW  Elec       q    Type
REMARK                         _______ _______ _______ _____ _____    ______ ____
ROOT
ATOM      1  CA  LIG    1       -1.375   2.184  -0.496  0.00  0.00    +0.110 C 
ATOM      2  C   LIG    1       -1.481   3.511  -0.749  0.00  0.00    +0.010 C 
ENDROOT
BRANCH   2   3
ATOM      3  C   LIG    1       -2.806   4.138  -0.844  0.00  0.00    -0.170 A 
ATOM      4  C   LIG    1       -4.025   3.536  -0.600  0.00  0.00    +0.260 A 
ATOM      5  N   LIG    1       -4.987   4.458  -0.800  0.00  0.00    -0.310 N 
ATOM      6  N   LIG    1       -4.403   5.671  -1.176  0.00  0.00    -0.280 NA
ATOM      7  C   LIG    1       -3.097   5.528  -1.210  0.00  0.00    +0.130 A 
BRANCH   5   8
ATOM      8  C   LIG    1       -6.362   4.235  -0.653  0.00  0.00    +0.160 A 
ATOM      9  C   LIG    1       -6.827   2.982  -0.278  0.00  0.00    +0.000 A 
ATOM     10  C   LIG    1       -8.183   2.767  -0.128  0.00  0.00    +0.050 A 
ATOM     11  C   LIG    1       -9.078   3.795  -0.362  0.00  0.00    +0.000 A 
ATOM     12  C   LIG    1       -8.618   5.043  -0.741  0.00  0.00    +0.030 A 
ATOM     13  C   LIG    1       -7.263   5.266  -0.887  0.00  0.00    +0.020 A 
ENDBRANCH   5   8
BRANCH   7  14
ATOM     14  C   LIG    1       -2.105   6.574  -1.557  0.00  0.00    -0.050 A 
ATOM     15  C   LIG    1       -2.400   7.540  -2.524  0.00  0.00    +0.090 A 
ATOM     16  C   LIG    1       -1.439   8.495  -2.812  0.00  0.00    -0.030 A 
ATOM     17  C   LIG    1       -0.231   8.463  -2.140  0.00  0.00    +0.260 A 
ATOM     18  N   LIG    1        0.019   7.539  -1.232  0.00  0.00    -0.480 NA
ATOM     19  C   LIG    1       -0.865   6.614  -0.921  0.00  0.00    +0.280 A 
ENDBRANCH   7  14
ENDBRANCH   2   3
BRANCH   1  22
ATOM     20  N   LIG    1       -3.031   1.349   1.086  0.00  0.00    -0.680 N 
ATOM     21  H   LIG    1       -2.613   1.888   1.775  0.00  0.00    +0.390 HD
ATOM     22  C   LIG    1       -2.574   1.401  -0.180  0.00  0.00    +0.580 C 
ATOM     23  O   LIG    1       -3.155   0.796  -1.062  0.00  0.00    -0.540 OA
BRANCH  20  24
ATOM     24  CA  LIG    1       -4.162   0.480   1.422  0.00  0.00    +0.150 C 
BRANCH  24  25
ATOM     25  C   LIG    1       -3.647  -0.876   1.834  0.00  0.00    +0.500 C 
ATOM     26  OXT LIG    1       -4.424  -1.804   1.978  0.00  0.00    -0.700 OA
ATOM     27  O   LIG    1       -2.454  -1.044   2.022  0.00  0.00    -0.660 OA
ENDBRANCH  24  25
BRANCH  24  28
ATOM     28  CB  LIG    1       -4.954   1.096   2.576  0.00  0.00    -0.030 C 
ATOM     29  CG2 LIG    1       -4.065   1.179   3.819  0.00  0.00    +0.020 C 
BRANCH  28  31
ATOM     30  CD1 LIG    1       -7.034   0.904   3.948  0.00  0.00    -0.010 C 
ATOM     31  CG1 LIG    1       -6.174   0.225   2.880  0.00  0.00    +0.020 C 
ENDBRANCH  28  31
ENDBRANCH  24  28
ENDBRANCH  20  24
ENDBRANCH   1  22
BRANCH   1  32
ATOM     32  N   LIG    1       -0.121   1.561  -0.536  0.00  0.00    -0.660 N 
ATOM     33  H   LIG    1        0.680   2.091  -0.672  0.00  0.00    +0.410 HD
ATOM     34  C   LIG    1       -0.028   0.225  -0.390  0.00  0.00    +0.520 C 
ATOM     35  O   LIG    1       -1.018  -0.429  -0.125  0.00  0.00    -0.420 OA
BRANCH  34  36
ATOM     36  C   LIG    1        1.279  -0.447  -0.554  0.00  0.00    -0.120 A 
ATOM     37  C   LIG    1        2.417   0.299  -0.864  0.00  0.00    +0.030 A 
ATOM     38  C   LIG    1        3.634  -0.334  -1.012  0.00  0.00    +0.000 A 
ATOM     39  C   LIG    1        3.726  -1.706  -0.861  0.00  0.00    +0.020 A 
ATOM     40  C   LIG    1        2.601  -2.452  -0.558  0.00  0.00    +0.000 A 
ATOM     41  C   LIG    1        1.379  -1.831  -0.404  0.00  0.00    +0.090 A 
ENDBRANCH  34  36
ENDBRANCH   1  32
TORSDOF 10
