REMARK  Name = ZINCrH000004rMdP.0
REMARK                            x       y       z     vdW  Elec       q    Type
REMARK                         _______ _______ _______ _____ _____    ______ ____
ROOT
ATOM      1  N   LIG    1       -5.018   5.656   1.650  0.00  0.00    -0.720 N 
ATOM      2  H   LIG    1       -5.569   5.038   2.156  0.00  0.00    +0.410 HD
ATOM      3  C   LIG    1       -3.678   5.642   1.801  0.00  0.00    +0.600 C 
ATOM      4  O   LIG    1       -2.987   6.416   1.166  0.00  0.00    -0.510 OA
ENDROOT
BRANCH   3   5
ATOM      5  C   LIG    1       -3.052   4.691   2.733  0.00  0.00    -0.040 A 
ATOM      6  C   LIG    1       -1.702   4.556   2.995  0.00  0.00    +0.040 A 
ATOM      7  C   LIG    1       -1.609   3.524   3.946  0.00  0.00    +0.060 A 
ATOM      8  N   LIG    1       -2.831   3.103   4.196  0.00  0.00    -0.250 NA
ATOM      9  N   LIG    1       -3.691   3.766   3.510  0.00  0.00    -0.370 N 
ATOM     10  H   LIG    1       -4.651   3.628   3.537  0.00  0.00    +0.450 HD
BRANCH   7  11
ATOM     11  C   LIG    1       -0.360   3.000   4.552  0.00  0.00    -0.000 A 
ATOM     12  C   LIG    1        0.873   3.534   4.185  0.00  0.00    +0.050 A 
ATOM     13  C   LIG    1        2.033   3.040   4.747  0.00  0.00    +0.030 A 
ATOM     14  C   LIG    1        1.972   2.015   5.675  0.00  0.00    -0.030 A 
ATOM     15  C   LIG    1        0.749   1.481   6.044  0.00  0.00    +0.030 A 
ATOM     16 CL   LIG    1        3.433   1.397   6.379  0.00  0.00    -0.070 Cl
ATOM     17  C   LIG    1       -0.416   1.968   5.487  0.00  0.00    +0.060 A 
ENDBRANCH   7  11
ENDBRANCH   3   5
BRANCH   1  18
ATOM     18  C   LIG    1       -5.641   6.603   0.722  0.00  0.00    +0.320 C 
BRANCH  18  21
ATOM     19  N   LIG    1       -7.922   7.181  -0.040  0.00  0.00    -0.670 N 
ATOM     20  H   LIG    1       -7.531   7.890  -0.574  0.00  0.00    +0.410 HD
ATOM     21  C   LIG    1       -7.136   6.413   0.741  0.00  0.00    +0.510 C 
ATOM     22  O   LIG    1       -7.632   5.570   1.458  0.00  0.00    -0.510 OA
BRANCH  19  30
ATOM     23  C   LIG    1       -8.836   4.542  -0.586  0.00  0.00    +0.080 C 
ATOM     24  C   LIG    1       -9.791   5.682  -0.344  0.00  0.00    -0.070 A 
ATOM     25  C   LIG    1      -11.154   5.461  -0.379  0.00  0.00    +0.020 A 
ATOM     26  C   LIG    1      -12.031   6.508  -0.163  0.00  0.00    +0.020 A 
ATOM     27  C   LIG    1      -11.548   7.777   0.095  0.00  0.00    +0.020 A 
ATOM     28  C   LIG    1      -10.186   8.004   0.136  0.00  0.00    -0.090 A 
ATOM     29  C   LIG    1       -9.659   9.388   0.416  0.00  0.00    +0.080 C 
ATOM     30  C   LIG    1       -9.302   6.955  -0.081  0.00  0.00    +0.130 A 
ENDBRANCH  19  30
ENDBRANCH  18  21
ENDBRANCH   1  18
TORSDOF 5
