REMARK  Name = ZINCrH000004v1im.0
REMARK                            x       y       z     vdW  Elec       q    Type
REMARK                         _______ _______ _______ _____ _____    ______ ____
ROOT
ATOM      1  C   LIG    1       -0.565   1.343   1.378  0.00  0.00    +0.010 C 
ATOM      2  C   LIG    1       -1.948   1.535   0.710  0.00  0.00    +0.100 C 
ATOM      3  C   LIG    1       -1.640   1.600  -0.770  0.00  0.00    +0.520 C 
ATOM      4  N   LIG    1       -0.404   1.128  -1.006  0.00  0.00    -0.550 N 
ATOM      5  O   LIG    1       -2.398   2.018  -1.620  0.00  0.00    -0.500 OA
ATOM      6  C   LIG    1        0.247   0.693   0.236  0.00  0.00    +0.320 C 
ENDROOT
BRANCH   4   7
ATOM      7  C   LIG    1        0.188   1.059  -2.274  0.00  0.00    +0.170 A 
ATOM      8  C   LIG    1        1.512   0.664  -2.402  0.00  0.00    -0.010 A 
ATOM      9  C   LIG    1        2.094   0.592  -3.653  0.00  0.00    +0.060 A 
ATOM     10  C   LIG    1        1.362   0.925  -4.783  0.00  0.00    +0.030 A 
ATOM     11  O   LIG    1        1.956   0.857  -6.006  0.00  0.00    -0.310 OA
ATOM     12  C   LIG    1        1.086   0.836  -7.143  0.00  0.00    +0.220 C 
ATOM     13  C   LIG    1        0.026   1.930  -6.957  0.00  0.00    +0.220 C 
ATOM     14  O   LIG    1       -0.700   1.651  -5.755  0.00  0.00    -0.300 OA
ATOM     15  C   LIG    1        0.036   1.325  -4.657  0.00  0.00    +0.080 A 
ATOM     16  C   LIG    1       -0.549   1.392  -3.402  0.00  0.00    +0.020 A 
ENDBRANCH   4   7
BRANCH   1  18
ATOM     17  O   LIG    1       -0.134  -0.672   2.528  0.00  0.00    -0.500 OA
ATOM     18  C   LIG    1       -0.660   0.420   2.565  0.00  0.00    +0.530 C 
ATOM     19  N   LIG    1       -1.331   0.807   3.668  0.00  0.00    -0.670 N 
ATOM     20  H   LIG    1       -1.818   1.646   3.670  0.00  0.00    +0.420 HD
BRANCH  19  21
ATOM     21  C   LIG    1       -1.325  -0.000   4.811  0.00  0.00    +0.170 A 
ATOM     22  C   LIG    1       -2.449  -0.064   5.623  0.00  0.00    +0.020 A 
ATOM     23  C   LIG    1       -2.443  -0.868   6.748  0.00  0.00    -0.000 A 
ATOM     24  C   LIG    1       -1.313  -1.599   7.071  0.00  0.00    +0.030 A 
ATOM     25  C   LIG    1       -0.190  -1.532   6.266  0.00  0.00    -0.000 A 
ATOM     26 CL   LIG    1        1.226  -2.451   6.675  0.00  0.00    -0.050 Cl
ATOM     27 CL   LIG    1       -3.850  -0.954   7.761  0.00  0.00    -0.050 Cl
ATOM     28  C   LIG    1       -0.193  -0.735   5.137  0.00  0.00    +0.040 A 
ENDBRANCH  19  21
ENDBRANCH   1  18
TORSDOF 3
