REMARK  Name = ZINCpk00000xIioI.0
REMARK                            x       y       z     vdW  Elec       q    Type
REMARK                         _______ _______ _______ _____ _____    ______ ____
ROOT
ATOM      1  C   LIG    1        0.273   8.297  -5.651  0.00  0.00    -0.670 A 
ATOM      2  C   LIG    1        1.154   7.324  -5.215  0.00  0.00    +0.200 A 
ATOM      3  C   LIG    1        1.088   6.862  -3.917  0.00  0.00    +0.040 A 
ATOM      4  C   LIG    1        0.130   7.378  -3.043  0.00  0.00    +0.160 A 
ATOM      5  C   LIG    1       -0.760   8.357  -3.491  0.00  0.00    -0.020 A 
ATOM      6  C   LIG    1       -0.680   8.814  -4.790  0.00  0.00    +0.220 A 
ENDROOT
BRANCH   1   7
ATOM      7  S   LIG    1        0.363   8.882  -7.311  0.00  0.00    +2.710 S 
ATOM      8  O   LIG    1        1.689   8.626  -7.755  0.00  0.00    -0.950 OA
ATOM      9  O   LIG    1       -0.220  10.177  -7.313  0.00  0.00    -0.950 OA
BRANCH   7  10
ATOM     10  N   LIG    1       -0.629   7.920  -8.224  0.00  0.00    -1.250 NA
ATOM     11  H   LIG    1       -0.719   8.082  -9.176  0.00  0.00    +0.430 HD
ATOM     12  H   LIG    1       -1.121   7.196  -7.806  0.00  0.00    +0.420 HD
ENDBRANCH   7  10
ENDBRANCH   1   7
BRANCH   5  13
ATOM     13  N   LIG    1       -1.783   8.906  -2.574  0.00  0.00    +0.020 N 
ATOM     14  O   LIG    1       -1.850   8.504  -1.426  0.00  0.00    -0.100 OA
ATOM     15  O   LIG    1       -2.559   9.759  -2.967  0.00  0.00    -0.170 OA
ENDBRANCH   5  13
BRANCH   4  16
ATOM     16  N   LIG    1        0.059   6.923  -1.752  0.00  0.00    -0.190 NA
ATOM     17  N   LIG    1        0.847   6.051  -1.358  0.00  0.00    -0.180 NA
BRANCH  17  18
ATOM     18  C   LIG    1        0.771   5.565   0.022  0.00  0.00    +0.290 C 
BRANCH  18  19
ATOM     19  C   LIG    1        0.496   4.083   0.018  0.00  0.00    -0.080 A 
ATOM     20  C   LIG    1       -0.808   3.624   0.028  0.00  0.00    +0.050 A 
ATOM     21  C   LIG    1       -1.065   2.265   0.019  0.00  0.00    +0.040 A 
ATOM     22  C   LIG    1       -0.016   1.361   0.009  0.00  0.00    +0.040 A 
ATOM     23  O   LIG    1        0.002  -0.004   0.002  0.00  0.00    -0.310 OA
ATOM     24  C   LIG    1        1.336  -0.373   0.399  0.00  0.00    +0.430 C 
ATOM     25  O   LIG    1        2.139   0.749  -0.014  0.00  0.00    -0.310 OA
ATOM     26  C   LIG    1        1.297   1.824  -0.001  0.00  0.00    +0.030 A 
ATOM     27  C   LIG    1        1.548   3.186   0.004  0.00  0.00    +0.060 A 
ENDBRANCH  18  19
ENDBRANCH  17  18
ENDBRANCH   4  16
TORSDOF 6
