REMARK  Name = ZINCrD000000AtAz.0
REMARK                            x       y       z     vdW  Elec       q    Type
REMARK                         _______ _______ _______ _____ _____    ______ ____
ROOT
ATOM      1  O   LIG    1        1.110   2.480  -2.029  0.00  0.00    -0.530 OA
ATOM      2  C   LIG    1       -0.078   2.261  -2.138  0.00  0.00    +0.540 C 
ATOM      3  N   LIG    1       -0.729   1.575  -1.178  0.00  0.00    -0.600 N 
ATOM      4  C   LIG    1       -0.013   1.086   0.008  0.00  0.00    +0.280 C 
ATOM      5  C   LIG    1       -0.736   1.583   1.264  0.00  0.00    +0.020 C 
ATOM      6  C   LIG    1       -2.208   1.161   1.197  0.00  0.00    +0.000 C 
ATOM      7  C   LIG    1       -2.869   1.797  -0.028  0.00  0.00    +0.020 C 
ATOM      8  C   LIG    1       -2.168   1.303  -1.297  0.00  0.00    +0.270 C 
ENDROOT
BRANCH   6   9
ATOM      9  C   LIG    1       -2.929   1.626   2.464  0.00  0.00    +0.060 C 
BRANCH   9  10
ATOM     10  C   LIG    1       -2.358   0.905   3.659  0.00  0.00    -0.080 A 
ATOM     11  C   LIG    1       -2.909  -0.294   4.070  0.00  0.00    +0.000 A 
ATOM     12  C   LIG    1       -2.383  -0.957   5.163  0.00  0.00    +0.000 A 
ATOM     13  C   LIG    1       -1.313  -0.415   5.851  0.00  0.00    +0.000 A 
ATOM     14  C   LIG    1       -0.766   0.787   5.443  0.00  0.00    +0.000 A 
ATOM     15  C   LIG    1       -1.289   1.447   4.346  0.00  0.00    +0.000 A 
ENDBRANCH   9  10
ENDBRANCH   6   9
BRANCH   2  16
ATOM     16  C   LIG    1       -0.827   2.757  -3.349  0.00  0.00    +0.110 C 
BRANCH  16  17
ATOM     17  S   LIG    1        0.314   3.634  -4.446  0.00  0.00    +0.110 S 
BRANCH  17  18
ATOM     18  C   LIG    1       -0.794   4.090  -5.738  0.00  0.00    +0.190 A 
ATOM     19  N   LIG    1       -2.078   3.815  -5.800  0.00  0.00    -0.340 NA
ATOM     20  N   LIG    1       -2.591   4.297  -6.874  0.00  0.00    -0.030 NA
ATOM     21  N   LIG    1       -1.688   4.896  -7.571  0.00  0.00    -0.070 NA
ATOM     22  N   LIG    1       -0.482   4.785  -6.858  0.00  0.00    -0.350 N 
BRANCH  22  23
ATOM     23  C   LIG    1        0.831   5.308  -7.243  0.00  0.00    +0.260 C 
ATOM     24  C   LIG    1        0.748   6.833  -7.463  0.00  0.00    +0.040 C 
ATOM     25  C   LIG    1        1.693   7.095  -8.663  0.00  0.00    +0.040 C 
ATOM     26  C   LIG    1        1.441   5.866  -9.571  0.00  0.00    +0.030 C 
ATOM     27  C   LIG    1        1.272   4.694  -8.583  0.00  0.00    +0.040 C 
ENDBRANCH  22  23
ENDBRANCH  17  18
ENDBRANCH  16  17
ENDBRANCH   2  16
TORSDOF 6
