REMARK  Name = ZINCpe000000SQeW.0
REMARK                            x       y       z     vdW  Elec       q    Type
REMARK                         _______ _______ _______ _____ _____    ______ ____
ROOT
ATOM      1  N   LIG    1       -0.915   2.957  -3.742  0.00  0.00    -0.730 N 
ATOM      2  H   LIG    1       -0.357   3.485  -3.150  0.00  0.00    +0.400 HD
ATOM      3  C   LIG    1       -1.672   3.567  -4.676  0.00  0.00    +0.710 C 
ATOM      4  N   LIG    1       -1.732   4.912  -4.722  0.00  0.00    -0.630 N 
ATOM      5  C   LIG    1       -0.901   5.729  -3.827  0.00  0.00    +0.260 C 
ATOM      6  C   LIG    1       -0.104   6.729  -4.678  0.00  0.00    +0.020 C 
ATOM      7  C   LIG    1       -1.071   7.536  -5.548  0.00  0.00    +0.030 C 
ATOM      8  C   LIG    1       -1.820   6.591  -6.491  0.00  0.00    -0.020 C 
ATOM      9  C   LIG    1       -2.633   5.590  -5.664  0.00  0.00    +0.300 C 
ATOM     10  O   LIG    1       -2.301   2.902  -5.478  0.00  0.00    -0.590 OA
ENDROOT
BRANCH   1  11
ATOM     11  C   LIG    1       -0.936   1.497  -3.621  0.00  0.00    +0.290 C 
BRANCH  11  13
ATOM     12  C   LIG    1        1.374   1.460  -2.671  0.00  0.00    +0.050 C 
ATOM     13  C   LIG    1       -0.085   1.073  -2.422  0.00  0.00    +0.090 C 
ATOM     14  C   LIG    1       -0.186  -0.442  -2.236  0.00  0.00    +0.020 C 
BRANCH  13  15
ATOM     15  N   LIG    1       -0.572   1.749  -1.212  0.00  0.00    -0.520 NA
ATOM     16  C   LIG    1       -1.996   1.464  -0.987  0.00  0.00    +0.150 C 
ATOM     17  C   LIG    1       -2.477   2.233   0.247  0.00  0.00    +0.230 C 
ATOM     18  O   LIG    1       -1.667   1.875   1.370  0.00  0.00    -0.380 OA
ATOM     19  C   LIG    1       -0.274   2.140   1.185  0.00  0.00    +0.220 C 
ATOM     20  C   LIG    1        0.228   1.369  -0.039  0.00  0.00    +0.150 C 
ENDBRANCH  13  15
ENDBRANCH  11  13
ENDBRANCH   1  11
BRANCH   8  21
ATOM     21  C   LIG    1       -2.763   7.402  -7.382  0.00  0.00    +0.340 C 
BRANCH  21  22
ATOM     22  N   LIG    1       -3.394   6.513  -8.361  0.00  0.00    -0.290 N 
ATOM     23  C   LIG    1       -4.725   6.363  -8.554  0.00  0.00    +0.140 A 
ATOM     24  C   LIG    1       -4.862   5.454  -9.547  0.00  0.00    +0.140 A 
ATOM     25  N   LIG    1       -3.625   5.091  -9.904  0.00  0.00    -0.270 NA
ATOM     26  N   LIG    1       -2.778   5.737  -9.182  0.00  0.00    -0.080 NA
ENDBRANCH  21  22
ENDBRANCH   8  21
TORSDOF 5
