REMARK  Name = ZINCb80000002nRs.0
REMARK                            x       y       z     vdW  Elec       q    Type
REMARK                         _______ _______ _______ _____ _____    ______ ____
ROOT
ATOM      1  N   LIG    1       -2.087   1.440   1.219  0.00  0.00    -0.510 NA
ATOM      2  C   LIG    1       -1.384   1.862   2.439  0.00  0.00    +0.150 C 
ATOM      3  C   LIG    1       -2.237   1.510   3.661  0.00  0.00    +0.220 C 
ATOM      4  O   LIG    1       -2.513   0.106   3.654  0.00  0.00    -0.380 OA
ATOM      5  C   LIG    1       -3.198  -0.340   2.481  0.00  0.00    +0.220 C 
ATOM      6  C   LIG    1       -2.356  -0.006   1.247  0.00  0.00    +0.150 C 
ENDROOT
BRANCH   1   8
ATOM      7  C   LIG    1       -1.069   3.319   0.025  0.00  0.00    +0.060 C 
ATOM      8  C   LIG    1       -1.328   1.812   0.018  0.00  0.00    +0.040 C 
ATOM      9  C   LIG    1       -2.131   1.438  -1.229  0.00  0.00    +0.070 C 
BRANCH   8  10
ATOM     10  C   LIG    1       -0.013   1.076   0.008  0.00  0.00    +0.400 C 
ATOM     11  O   LIG    1        1.025   1.694   0.001  0.00  0.00    -0.440 OA
ENDBRANCH   8  10
ENDBRANCH   1   8
TORSDOF 2
