REMARK  Name = ZINCvU0000000Eed.0
REMARK                            x       y       z     vdW  Elec       q    Type
REMARK                         _______ _______ _______ _____ _____    ______ ____
ROOT
ATOM      1  N   LIG    1       -0.354   5.211   0.028  0.00  0.00    -0.480 N 
ATOM      2  C   LIG    1        0.002   3.877   0.028  0.00  0.00    +0.050 A 
ATOM      3  C   LIG    1        1.213   3.199   0.012  0.00  0.00    +0.010 A 
ATOM      4  C   LIG    1        1.225   1.821   0.018  0.00  0.00    +0.030 A 
ATOM      5  C   LIG    1        0.035   1.108   0.039  0.00  0.00    +0.000 A 
ATOM      6  C   LIG    1       -1.167   1.758   0.049  0.00  0.00    +0.070 A 
ATOM      7  C   LIG    1       -1.203   3.154   0.049  0.00  0.00    +0.050 A 
ATOM      8  N   LIG    1       -2.210   4.065   0.061  0.00  0.00    -0.480 NA
ATOM      9  C   LIG    1       -1.713   5.267   0.049  0.00  0.00    +0.290 A 
ENDROOT
BRANCH   9  10
ATOM     10  C   LIG    1       -2.524   6.537   0.056  0.00  0.00    +0.090 C 
ATOM     11  C   LIG    1       -3.582   6.524  -1.072  0.00  0.00    +0.100 C 
ATOM     12  C   LIG    1       -4.785   7.206  -0.460  0.00  0.00    +0.520 C 
ATOM     13  N   LIG    1       -4.661   7.250   0.878  0.00  0.00    -0.550 N 
ATOM     14  O   LIG    1       -5.726   7.648  -1.085  0.00  0.00    -0.510 OA
ATOM     15  C   LIG    1       -3.411   6.619   1.318  0.00  0.00    +0.300 C 
BRANCH  13  16
ATOM     16  C   LIG    1       -5.604   7.824   1.741  0.00  0.00    +0.130 A 
ATOM     17  C   LIG    1       -6.695   8.508   1.222  0.00  0.00    +0.050 A 
ATOM     18  C   LIG    1       -7.626   9.069   2.074  0.00  0.00    -0.050 A 
ATOM     19  C   LIG    1       -7.465   8.959   3.447  0.00  0.00    +0.110 A 
ATOM     20  C   LIG    1       -6.373   8.280   3.966  0.00  0.00    +0.020 A 
ATOM     21  C   LIG    1       -5.444   7.714   3.116  0.00  0.00    +0.010 A 
BRANCH  19  22
ATOM     22  O   LIG    1       -8.380   9.517   4.285  0.00  0.00    -0.320 OA
ATOM     23  C   LIG    1       -9.480  10.201   3.682  0.00  0.00    +0.250 C 
ENDBRANCH  19  22
ENDBRANCH  13  16
ENDBRANCH   9  10
BRANCH   1  24
ATOM     24  C   LIG    1        0.563   6.354   0.010  0.00  0.00    +0.290 C 
BRANCH  24  25
ATOM     25  C   LIG    1        0.859   6.746  -1.439  0.00  0.00    +0.000 C 
BRANCH  25  26
ATOM     26  C   LIG    1        1.816   7.940  -1.458  0.00  0.00    +0.020 C 
BRANCH  26  27
ATOM     27  C   LIG    1        2.113   8.332  -2.907  0.00  0.00    +0.000 C 
BRANCH  27  28
ATOM     28  C   LIG    1        3.070   9.526  -2.926  0.00  0.00    +0.000 C 
BRANCH  28  29
ATOM     29  C   LIG    1        3.366   9.919  -4.375  0.00  0.00    +0.000 C 
BRANCH  29  31
ATOM     30  C   LIG    1        4.620  11.505  -5.843  0.00  0.00    +0.000 C 
ATOM     31  C   LIG    1        4.323  11.112  -4.395  0.00  0.00    -0.010 C 
ENDBRANCH  29  31
ENDBRANCH  28  29
ENDBRANCH  27  28
ENDBRANCH  26  27
ENDBRANCH  25  26
ENDBRANCH  24  25
ENDBRANCH   1  24
TORSDOF 10
