REMARK  Name = ZINCrH00000No4Ou.0
REMARK                            x       y       z     vdW  Elec       q    Type
REMARK                         _______ _______ _______ _____ _____    ______ ____
ROOT
ATOM      1  N   LIG    1        3.030  -1.849   0.726  0.00  0.00    -0.560 N 
ATOM      2  C   LIG    1        4.146  -2.281   0.086  0.00  0.00    +0.450 C 
ATOM      3  S   LIG    1        3.749  -2.661  -1.593  0.00  0.00    -0.120 S 
ATOM      4  C   LIG    1        1.985  -2.229  -1.479  0.00  0.00    +0.130 C 
ATOM      5  N   LIG    1        5.336  -2.398   0.630  0.00  0.00    -0.520 NA
ATOM      6  C   LIG    1        1.797  -1.780  -0.025  0.00  0.00    +0.450 C 
ENDROOT
BRANCH   6   7
ATOM      7  C   LIG    1        1.294  -0.360  -0.012  0.00  0.00    -0.010 A 
ATOM      8  C   LIG    1        0.002  -0.004   0.002  0.00  0.00    -0.010 A 
ATOM      9  C   LIG    1       -0.018   1.464   0.010  0.00  0.00    -0.130 A 
ATOM     10  C   LIG    1       -1.028   2.424   0.030  0.00  0.00    +0.060 A 
ATOM     11  C   LIG    1       -0.695   3.761   0.031  0.00  0.00    +0.000 A 
ATOM     12  C   LIG    1        0.636   4.151   0.020  0.00  0.00    +0.050 A 
ATOM     13  C   LIG    1        1.644   3.211   0.004  0.00  0.00    +0.020 A 
ATOM     14  C   LIG    1        1.331   1.857  -0.001  0.00  0.00    +0.060 A 
ATOM     15  O   LIG    1        2.076   0.734  -0.014  0.00  0.00    -0.170 OA
ENDBRANCH   6   7
BRANCH   5  16
ATOM     16  C   LIG    1        6.391  -2.846  -0.119  0.00  0.00    +0.070 A 
ATOM     17  C   LIG    1        7.631  -2.201  -0.061  0.00  0.00    +0.070 A 
ATOM     18  C   LIG    1        8.666  -2.697  -0.834  0.00  0.00    -0.010 A 
ATOM     19  C   LIG    1        8.441  -3.798  -1.641  0.00  0.00    +0.240 A 
ATOM     20  N   LIG    1        7.260  -4.383  -1.680  0.00  0.00    -0.460 NA
ATOM     21  C   LIG    1        6.245  -3.953  -0.959  0.00  0.00    +0.220 A 
ENDBRANCH   5  16
BRANCH   1  22
ATOM     22  C   LIG    1        3.073  -1.464   2.138  0.00  0.00    +0.270 C 
ATOM     23  C   LIG    1        4.059  -0.308   2.321  0.00  0.00    +0.060 C 
BRANCH  22  24
ATOM     24  C   LIG    1        3.526  -2.659   2.980  0.00  0.00    +0.180 C 
BRANCH  24  26
ATOM     25  C   LIG    1        2.874  -4.864   3.656  0.00  0.00    +0.190 C 
ATOM     26  O   LIG    1        2.546  -3.695   2.901  0.00  0.00    -0.380 OA
ENDBRANCH  24  26
ENDBRANCH  22  24
ENDBRANCH   1  22
BRANCH   6  27
ATOM     27  O   LIG    1        0.827  -2.623   0.600  0.00  0.00    -0.520 OA
ATOM     28  H   LIG    1       -0.040  -2.609   0.172  0.00  0.00    +0.400 HD
ENDBRANCH   6  27
TORSDOF 6
