REMARK  Name = ZINCvU0000000AyO.0
REMARK                            x       y       z     vdW  Elec       q    Type
REMARK                         _______ _______ _______ _____ _____    ______ ____
ROOT
ATOM      1  C   LIG    1       -0.014   1.212   0.009  0.00  0.00    +0.610 C 
ATOM      2  N   LIG    1       -1.191   1.870   0.018  0.00  0.00    -0.590 N 
ATOM      3  C   LIG    1       -1.356   3.335   0.033  0.00  0.00    +0.280 C 
ATOM      4  C   LIG    1       -2.755   3.572   0.648  0.00  0.00    +0.040 C 
ATOM      5  C   LIG    1       -3.562   2.385   0.060  0.00  0.00    +0.060 C 
ATOM      6  C   LIG    1       -2.522   1.246   0.021  0.00  0.00    +0.310 C 
ATOM      7  O   LIG    1        0.002  -0.004   0.002  0.00  0.00    -0.530 OA
ENDROOT
BRANCH   6   8
ATOM      8  C   LIG    1       -2.706   0.426  -1.230  0.00  0.00    +0.090 A 
ATOM      9  N   LIG    1       -2.369   0.815  -2.402  0.00  0.00    -0.450 NA
ATOM     10  C   LIG    1       -2.590  -0.025  -3.431  0.00  0.00    +0.080 A 
ATOM     11  C   LIG    1       -2.318   0.143  -4.804  0.00  0.00    +0.070 A 
ATOM     12  C   LIG    1       -2.630  -0.840  -5.694  0.00  0.00    +0.030 A 
ATOM     13  C   LIG    1       -3.218  -2.022  -5.268  0.00  0.00    +0.040 A 
ATOM     14  C   LIG    1       -3.495  -2.214  -3.933  0.00  0.00    +0.060 A 
ATOM     15  C   LIG    1       -3.184  -1.220  -3.009  0.00  0.00    -0.180 A 
ATOM     16  S   LIG    1       -3.397  -1.134  -1.263  0.00  0.00    +0.120 S 
ENDBRANCH   6   8
BRANCH   1  19
ATOM     17  C   LIG    1        2.474   3.823  -0.001  0.00  0.00    +0.100 A 
ATOM     18  N   LIG    1        1.289   3.292   0.002  0.00  0.00    -0.430 NA
ATOM     19  C   LIG    1        1.251   1.966   0.001  0.00  0.00    +0.020 A 
ATOM     20  C   LIG    1        2.458   1.357  -0.014  0.00  0.00    -0.020 A 
ATOM     21  S   LIG    1        3.686   2.546  -0.019  0.00  0.00    +0.180 S 
BRANCH  17  25
ATOM     22  C   LIG    1        3.293   7.996   0.012  0.00  0.00    +0.120 A 
ATOM     23  C   LIG    1        1.981   7.546   0.022  0.00  0.00    -0.040 A 
ATOM     24  C   LIG    1        1.712   6.193   0.018  0.00  0.00    +0.080 A 
ATOM     25  C   LIG    1        2.761   5.273   0.003  0.00  0.00    -0.030 A 
ATOM     26  C   LIG    1        4.082   5.725  -0.001  0.00  0.00    -0.010 A 
ATOM     27  C   LIG    1        4.345   7.082  -0.003  0.00  0.00    +0.100 A 
BRANCH  22  29
ATOM     28  C   LIG    1        2.427  10.210   0.032  0.00  0.00    +0.240 C 
ATOM     29  O   LIG    1        3.553   9.330   0.016  0.00  0.00    -0.300 OA
ENDBRANCH  22  29
BRANCH  27  30
ATOM     30  O   LIG    1        5.630   7.526  -0.014  0.00  0.00    -0.300 OA
ATOM     31  C   LIG    1        6.659   6.534  -0.029  0.00  0.00    +0.250 C 
ENDBRANCH  27  30
ENDBRANCH  17  25
ENDBRANCH   1  19
TORSDOF 5
