REMARK  Name = ZINCqH00000502Zj.0
REMARK                            x       y       z     vdW  Elec       q    Type
REMARK                         _______ _______ _______ _____ _____    ______ ____
ROOT
ATOM      1  C   LIG    1        0.806  -5.072  -1.373  0.00  0.00    +0.130 C 
ATOM      2  C   LIG    1        1.244  -3.999  -2.336  0.00  0.00    -0.210 A 
ATOM      3  C   LIG    1        1.264  -2.660  -2.089  0.00  0.00    +0.320 A 
ATOM      4  N   LIG    1        1.728  -2.046  -3.211  0.00  0.00    -0.320 N 
ATOM      5  N   LIG    1        1.989  -3.037  -4.165  0.00  0.00    -0.270 NA
ATOM      6  C   LIG    1        1.696  -4.201  -3.643  0.00  0.00    +0.120 A 
ENDROOT
BRANCH   4   7
ATOM      7  C   LIG    1        1.912  -0.667  -3.381  0.00  0.00    +0.160 A 
ATOM      8  C   LIG    1        1.007   0.229  -2.828  0.00  0.00    -0.010 A 
ATOM      9  C   LIG    1        1.194   1.588  -2.992  0.00  0.00    +0.030 A 
ATOM     10  C   LIG    1        2.275   2.056  -3.717  0.00  0.00    +0.010 A 
ATOM     11  C   LIG    1        3.175   1.166  -4.274  0.00  0.00    +0.030 A 
ATOM     12  C   LIG    1        2.996  -0.194  -4.108  0.00  0.00    +0.030 A 
ENDBRANCH   4   7
BRANCH   3  13
ATOM     13  N   LIG    1        0.886  -2.035  -0.901  0.00  0.00    -0.670 N 
ATOM     14  H   LIG    1       -0.040  -2.058  -0.614  0.00  0.00    +0.410 HD
ATOM     15  C   LIG    1        1.808  -1.397  -0.153  0.00  0.00    +0.710 C 
ATOM     16  N   LIG    1        1.429  -0.722   0.951  0.00  0.00    -0.740 N 
ATOM     17  H   LIG    1        0.494  -0.695   1.206  0.00  0.00    +0.400 HD
ATOM     18  O   LIG    1        2.980  -1.430  -0.473  0.00  0.00    -0.560 OA
BRANCH  16  19
ATOM     19  C   LIG    1        2.431  -0.028   1.765  0.00  0.00    +0.350 C 
BRANCH  19  20
ATOM     20  C   LIG    1        1.753   0.643   2.931  0.00  0.00    -0.170 A 
ATOM     21  C   LIG    1        1.292   1.946   2.820  0.00  0.00    +0.090 A 
ATOM     22  C   LIG    1        0.669   2.521   3.918  0.00  0.00    -0.030 A 
ATOM     23  C   LIG    1        0.541   1.786   5.081  0.00  0.00    +0.270 A 
ATOM     24  N   LIG    1        0.997   0.550   5.152  0.00  0.00    -0.480 NA
ATOM     25  C   LIG    1        1.589  -0.030   4.127  0.00  0.00    +0.280 A 
ENDBRANCH  19  20
ENDBRANCH  16  19
ENDBRANCH   3  13
BRANCH   6  26
ATOM     26  C   LIG    1        1.831  -5.534  -4.332  0.00  0.00    +0.040 C 
ATOM     27  C   LIG    1        2.542  -5.561  -5.687  0.00  0.00    +0.040 C 
ATOM     28  C   LIG    1        1.025  -5.751  -5.615  0.00  0.00    +0.040 C 
ENDBRANCH   6  26
TORSDOF 5
