REMARK  Name = ZINCvU0000000FQI.0
REMARK                            x       y       z     vdW  Elec       q    Type
REMARK                         _______ _______ _______ _____ _____    ______ ____
ROOT
ATOM      1  C   LIG    1        1.623  -0.060   1.399  0.00  0.00    -0.250 A 
ATOM      2  C   LIG    1        0.619  -0.883   1.923  0.00  0.00    +0.190 A 
ATOM      3  C   LIG    1       -0.607  -0.316   2.224  0.00  0.00    -0.090 A 
ATOM      4  C   LIG    1       -0.805   1.036   2.001  0.00  0.00    +0.360 A 
ATOM      5  N   LIG    1        0.153   1.795   1.506  0.00  0.00    -0.530 NA
ATOM      6  C   LIG    1        1.344   1.304   1.201  0.00  0.00    +0.450 A 
ENDROOT
BRANCH   1   7
ATOM      7  C   LIG    1        2.945  -0.612   1.061  0.00  0.00    +0.530 C 
ATOM      8  O   LIG    1        3.816   0.117   0.628  0.00  0.00    -0.520 OA
BRANCH   7   9
ATOM      9  O   LIG    1        3.191  -1.927   1.232  0.00  0.00    -0.320 OA
BRANCH   9  10
ATOM     10  C   LIG    1        4.516  -2.401   0.878  0.00  0.00    +0.270 C 
BRANCH  10  12
ATOM     11  O   LIG    1        3.644  -4.481   1.573  0.00  0.00    -0.490 OA
ATOM     12  C   LIG    1        4.604  -3.884   1.135  0.00  0.00    +0.520 C 
ATOM     13  N   LIG    1        5.750  -4.545   0.878  0.00  0.00    -0.670 N 
ATOM     14  H   LIG    1        6.523  -4.065   0.542  0.00  0.00    +0.420 HD
BRANCH  13  15
ATOM     15  C   LIG    1        5.824  -5.926   1.095  0.00  0.00    +0.150 A 
ATOM     16  C   LIG    1        6.989  -6.489   1.599  0.00  0.00    -0.010 A 
ATOM     17  C   LIG    1        7.058  -7.851   1.818  0.00  0.00    +0.050 A 
ATOM     18  C   LIG    1        5.973  -8.656   1.525  0.00  0.00    +0.020 A 
ATOM     19  C   LIG    1        4.812  -8.099   1.016  0.00  0.00    -0.020 A 
ATOM     20 CL   LIG    1        3.452  -9.113   0.649  0.00  0.00    -0.060 Cl
ATOM     21  C   LIG    1        4.736  -6.736   0.800  0.00  0.00    +0.030 A 
ENDBRANCH  13  15
ENDBRANCH  10  12
ENDBRANCH   9  10
ENDBRANCH   7   9
ENDBRANCH   1   7
BRANCH   6  22
ATOM     22  N   LIG    1        2.320   2.138   0.684  0.00  0.00    -0.630 N 
ATOM     23  H   LIG    1        3.162   1.766   0.377  0.00  0.00    +0.430 HD
BRANCH  22  24
ATOM     24  C   LIG    1        2.093   3.515   0.606  0.00  0.00    +0.150 A 
ATOM     25  C   LIG    1        0.802   4.014   0.711  0.00  0.00    +0.070 A 
ATOM     26  C   LIG    1        0.582   5.376   0.639  0.00  0.00    +0.040 A 
ATOM     27  C   LIG    1        1.644   6.240   0.451  0.00  0.00    +0.030 A 
ATOM     28  C   LIG    1        2.931   5.746   0.341  0.00  0.00    -0.160 A 
ATOM     29  C   LIG    1        3.159   4.386   0.418  0.00  0.00    +0.030 A 
BRANCH  28  30
ATOM     30  C   LIG    1        4.086   6.692   0.136  0.00  0.00    +0.510 C 
ATOM     31  F   LIG    1        5.241   6.149   0.710  0.00  0.00    -0.180 F 
ATOM     32  F   LIG    1        3.797   7.919   0.742  0.00  0.00    -0.180 F 
ATOM     33  F   LIG    1        4.293   6.885  -1.234  0.00  0.00    -0.180 F 
ENDBRANCH  28  30
ENDBRANCH  22  24
ENDBRANCH   6  22
TORSDOF 8
