REMARK  Name = ZINCpk00000y6wpH.0
REMARK                            x       y       z     vdW  Elec       q    Type
REMARK                         _______ _______ _______ _____ _____    ______ ____
ROOT
ATOM      1  C   LIG    1        0.804   2.882   6.402  0.00  0.00    +0.590 C 
ATOM      2  N   LIG    1        2.067   2.704   6.837  0.00  0.00    -0.610 N 
ATOM      3  C   LIG    1        3.206   2.261   6.011  0.00  0.00    +0.230 C 
ATOM      4  C   LIG    1        4.203   1.632   7.016  0.00  0.00    +0.170 C 
ATOM      5  C   LIG    1        4.041   2.568   8.243  0.00  0.00    +0.080 C 
ATOM      6  C   LIG    1        2.540   2.926   8.211  0.00  0.00    +0.280 C 
ATOM      7  O   LIG    1       -0.044   3.315   7.158  0.00  0.00    -0.510 OA
ENDROOT
BRANCH   1  14
ATOM      8  C   LIG    1       -1.587   1.256   0.368  0.00  0.00    +0.390 C 
ATOM      9  N   LIG    1       -0.390   1.657   1.110  0.00  0.00    -0.380 N 
ATOM     10  N   LIG    1        0.897   1.841   0.584  0.00  0.00    +0.020 NA
ATOM     11  N   LIG    1        1.699   2.196   1.525  0.00  0.00    -0.200 NA
ATOM     12  C   LIG    1        1.033   2.262   2.701  0.00  0.00    -0.070 A 
ATOM     13  C   LIG    1        1.420   2.584   4.006  0.00  0.00    +0.210 A 
ATOM     14  C   LIG    1        0.450   2.550   5.007  0.00  0.00    -0.200 A 
ATOM     15  C   LIG    1       -0.865   2.198   4.675  0.00  0.00    +0.420 A 
ATOM     16  N   LIG    1       -1.197   1.900   3.440  0.00  0.00    -0.480 NA
ATOM     17  C   LIG    1       -0.310   1.918   2.454  0.00  0.00    +0.290 A 
ENDBRANCH   1  14
BRANCH   6  18
ATOM     18  C   LIG    1        2.346   4.371   8.592  0.00  0.00    -0.060 A 
ATOM     19  C   LIG    1        2.581   5.368   7.664  0.00  0.00    +0.010 A 
ATOM     20  C   LIG    1        2.399   6.694   8.011  0.00  0.00    +0.040 A 
ATOM     21  C   LIG    1        1.993   7.025   9.289  0.00  0.00    -0.010 A 
ATOM     22  C   LIG    1        1.763   6.027  10.222  0.00  0.00    +0.100 A 
ATOM     23  F   LIG    1        1.366   6.350  11.472  0.00  0.00    -0.140 F 
ATOM     24  C   LIG    1        1.940   4.700   9.872  0.00  0.00    +0.000 A 
ENDBRANCH   6  18
BRANCH   4  25
ATOM     25  O   LIG    1        5.539   1.679   6.510  0.00  0.00    -0.550 OA
ATOM     26  H   LIG    1        5.664   1.187   5.687  0.00  0.00    +0.390 HD
ENDBRANCH   4  25
TORSDOF 3
