REMARK  Name = ZINCpk000000oIAR.0
REMARK                            x       y       z     vdW  Elec       q    Type
REMARK                         _______ _______ _______ _____ _____    ______ ____
ROOT
ATOM      1  C   LIG    1       -3.077   4.162  -1.091  0.00  0.00    +0.250 C 
ATOM      2  C   LIG    1       -2.127   4.543   0.045  0.00  0.00    +0.020 C 
ATOM      3  C   LIG    1       -0.868   3.676  -0.030  0.00  0.00    +0.070 C 
ATOM      4  C   LIG    1       -1.255   2.202   0.101  0.00  0.00    -0.010 C 
ATOM      5  C   LIG    1       -2.206   1.821  -1.036  0.00  0.00    +0.040 C 
ATOM      6  C   LIG    1       -3.465   2.688  -0.960  0.00  0.00    +0.020 C 
ENDROOT
BRANCH   1  13
ATOM      7  N   LIG    1       -8.703   6.921  -1.846  0.00  0.00    -0.540 NA
ATOM      8  C   LIG    1       -8.006   6.421  -0.654  0.00  0.00    +0.170 C 
ATOM      9  C   LIG    1       -6.500   6.657  -0.811  0.00  0.00    +0.280 C 
ATOM     10  N   LIG    1       -6.063   6.062  -2.083  0.00  0.00    -0.630 N 
ATOM     11  C   LIG    1       -6.800   6.415  -3.306  0.00  0.00    +0.300 C 
ATOM     12  C   LIG    1       -5.013   5.219  -2.128  0.00  0.00    +0.710 C 
ATOM     13  N   LIG    1       -4.282   4.992  -1.018  0.00  0.00    -0.740 N 
ATOM     14  H   LIG    1       -4.555   5.378  -0.171  0.00  0.00    +0.390 HD
ATOM     15  O   LIG    1       -4.724   4.663  -3.170  0.00  0.00    -0.590 OA
ATOM     16  C   LIG    1       -8.298   6.184  -3.050  0.00  0.00    +0.170 C 
BRANCH   7  18
ATOM     17  C   LIG    1      -10.852   7.160  -2.997  0.00  0.00    +0.030 C 
ATOM     18  C   LIG    1      -10.160   6.871  -1.663  0.00  0.00    +0.160 C 
ENDBRANCH   7  18
ENDBRANCH   1  13
BRANCH   4  19
ATOM     19  C   LIG    1       -0.016   1.348   0.026  0.00  0.00    +0.520 C 
ATOM     20  N   LIG    1       -0.092   0.026   0.274  0.00  0.00    -0.620 N 
ATOM     21  C   LIG    1       -1.367  -0.560   0.692  0.00  0.00    +0.290 C 
ATOM     22  C   LIG    1       -1.857  -1.532  -0.394  0.00  0.00    +0.100 C 
ATOM     23  S   LIG    1       -0.585  -2.804  -0.657  0.00  0.00    -0.250 S 
ATOM     24  C   LIG    1        0.892  -1.807  -1.014  0.00  0.00    +0.110 C 
ATOM     25  C   LIG    1        1.102  -0.808   0.129  0.00  0.00    +0.300 C 
ATOM     26  O   LIG    1        1.050   1.851  -0.262  0.00  0.00    -0.530 OA
ENDBRANCH   4  19
TORSDOF 3
