REMARK  Name = ZINCqH0000051nLo.0
REMARK                            x       y       z     vdW  Elec       q    Type
REMARK                         _______ _______ _______ _____ _____    ______ ____
ROOT
ATOM      1  O   LIG    1       -1.526   6.263   0.779  0.00  0.00    -0.560 OA
ATOM      2  C   LIG    1       -0.873   5.763   1.674  0.00  0.00    +0.710 C 
ATOM      3  N   LIG    1       -1.024   6.197   2.941  0.00  0.00    -0.680 N 
ATOM      4  H   LIG    1       -0.561   5.748   3.666  0.00  0.00    +0.410 HD
ATOM      5  N   LIG    1        0.003   4.776   1.399  0.00  0.00    -0.740 N 
ATOM      6  H   LIG    1        0.524   4.378   2.114  0.00  0.00    +0.400 HD
ENDROOT
BRANCH   3   7
ATOM      7  C   LIG    1       -1.848   7.294   3.212  0.00  0.00    +0.170 A 
ATOM      8  C   LIG    1       -1.949   8.329   2.290  0.00  0.00    +0.020 A 
ATOM      9  C   LIG    1       -2.765   9.409   2.553  0.00  0.00    +0.040 A 
ATOM     10  C   LIG    1       -3.480   9.467   3.748  0.00  0.00    -0.060 A 
ATOM     11  C   LIG    1       -3.373   8.430   4.673  0.00  0.00    +0.040 A 
ATOM     12  C   LIG    1       -2.560   7.349   4.404  0.00  0.00    -0.010 A 
BRANCH  10  13
ATOM     13  C   LIG    1       -4.353  10.632   4.035  0.00  0.00    -0.040 A 
ATOM     14  C   LIG    1       -5.073  10.689   5.227  0.00  0.00    +0.010 A 
ATOM     15  C   LIG    1       -5.880  11.777   5.491  0.00  0.00    +0.000 A 
ATOM     16  C   LIG    1       -5.984  12.804   4.571  0.00  0.00    +0.000 A 
ATOM     17  C   LIG    1       -5.276  12.750   3.384  0.00  0.00    +0.000 A 
ATOM     18  C   LIG    1       -4.462  11.670   3.111  0.00  0.00    +0.020 A 
ENDBRANCH  10  13
ENDBRANCH   3   7
BRANCH   5  19
ATOM     19  C   LIG    1        0.167   4.305   0.022  0.00  0.00    +0.440 C 
BRANCH  19  20
ATOM     20  C   LIG    1        1.198   3.206  -0.013  0.00  0.00    +0.110 A 
ATOM     21  N   LIG    1        2.485   3.358  -0.186  0.00  0.00    -0.220 NA
ATOM     22  N   LIG    1        3.077   2.216  -0.163  0.00  0.00    -0.280 NA
ATOM     23  C   LIG    1        2.182   1.260   0.028  0.00  0.00    +0.200 A 
ATOM     24  C   LIG    1        2.270  -0.142   0.134  0.00  0.00    +0.080 A 
ATOM     25  C   LIG    1        1.135  -0.865   0.336  0.00  0.00    +0.070 A 
ATOM     26  C   LIG    1       -0.102  -0.207   0.434  0.00  0.00    +0.030 A 
ATOM     27  C   LIG    1       -0.171   1.137   0.330  0.00  0.00    +0.230 A 
ATOM     28  N   LIG    1        0.958   1.874   0.128  0.00  0.00    -0.380 N 
ENDBRANCH  19  20
ENDBRANCH   5  19
TORSDOF 4
