REMARK  Name = ZINCvU0000000FKL.0
REMARK                            x       y       z     vdW  Elec       q    Type
REMARK                         _______ _______ _______ _____ _____    ______ ____
ROOT
ATOM      1  C   LIG    1        7.239   1.083  -0.031  0.00  0.00    +0.510 C 
ATOM      2  O   LIG    1        7.192  -0.133  -0.031  0.00  0.00    -0.510 OA
ENDROOT
BRANCH   1   4
ATOM      3  C   LIG    1        4.844   1.207   0.008  0.00  0.00    +0.170 C 
ATOM      4  C   LIG    1        6.039   1.838  -0.011  0.00  0.00    -0.060 C 
BRANCH   3   7
ATOM      5  C   LIG    1        1.194   2.078   0.069  0.00  0.00    +0.150 A 
ATOM      6  C   LIG    1        2.362   1.339   0.049  0.00  0.00    -0.060 A 
ATOM      7  C   LIG    1        3.600   1.990   0.029  0.00  0.00    -0.020 A 
ATOM      8  C   LIG    1        3.652   3.389   0.030  0.00  0.00    -0.070 A 
ATOM      9  C   LIG    1        2.480   4.121   0.050  0.00  0.00    +0.150 A 
ATOM     10  C   LIG    1        1.249   3.469   0.064  0.00  0.00    +0.050 A 
BRANCH   5  12
ATOM     11  C   LIG    1        0.008   0.017   0.085  0.00  0.00    +0.250 C 
ATOM     12  O   LIG    1       -0.009   1.446   0.087  0.00  0.00    -0.300 OA
ENDBRANCH   5  12
BRANCH   9  13
ATOM     13  O   LIG    1        2.529   5.480   0.050  0.00  0.00    -0.300 OA
ATOM     14  C   LIG    1        3.825   6.083   0.029  0.00  0.00    +0.250 C 
ENDBRANCH   9  13
BRANCH  10  15
ATOM     15  O   LIG    1        0.099   4.193   0.078  0.00  0.00    -0.310 OA
ATOM     16  C   LIG    1       -0.432   4.543   1.357  0.00  0.00    +0.240 C 
ENDBRANCH  10  15
ENDBRANCH   3   7
ENDBRANCH   1   4
BRANCH   1  17
ATOM     17  O   LIG    1        8.432   1.713  -0.050  0.00  0.00    -0.320 OA
BRANCH  17  18
ATOM     18  C   LIG    1        9.600   0.889  -0.069  0.00  0.00    +0.190 C 
ATOM     19  C   LIG    1       10.040   0.595   1.366  0.00  0.00    +0.070 C 
BRANCH  18  20
ATOM     20  C   LIG    1       10.707   1.606  -0.797  0.00  0.00    +0.520 C 
ATOM     21  N   LIG    1       11.878   0.979  -1.028  0.00  0.00    -0.670 N 
ATOM     22  H   LIG    1       12.031   0.091  -0.670  0.00  0.00    +0.420 HD
ATOM     23  O   LIG    1       10.546   2.747  -1.175  0.00  0.00    -0.490 OA
BRANCH  21  24
ATOM     24  C   LIG    1       12.872   1.610  -1.786  0.00  0.00    +0.170 A 
ATOM     25  C   LIG    1       13.040   2.985  -1.705  0.00  0.00    +0.080 A 
ATOM     26  C   LIG    1       14.027   3.605  -2.449  0.00  0.00    -0.010 A 
ATOM     27  C   LIG    1       14.840   2.856  -3.283  0.00  0.00    -0.040 A 
ATOM     28  C   LIG    1       14.670   1.486  -3.371  0.00  0.00    +0.090 A 
ATOM     29 CL   LIG    1       16.073   3.638  -4.222  0.00  0.00    -0.030 Cl
ATOM     30 CL   LIG    1       14.243   5.324  -2.342  0.00  0.00    -0.030 Cl
ATOM     31  C   LIG    1       13.689   0.861  -2.624  0.00  0.00    -0.050 A 
ATOM     32 CL   LIG    1       13.477  -0.859  -2.735  0.00  0.00    -0.040 Cl
ENDBRANCH  21  24
ENDBRANCH  18  20
ENDBRANCH  17  18
ENDBRANCH   1  17
TORSDOF 9
