REMARK  Name = ZINCvU0000000J2f.0
REMARK                            x       y       z     vdW  Elec       q    Type
REMARK                         _______ _______ _______ _____ _____    ______ ____
ROOT
ATOM      1  N   LIG    1        1.139   2.038   0.002  0.00  0.00    -0.470 N 
ATOM      2  C   LIG    1        2.335   1.418  -0.012  0.00  0.00    +0.570 A 
ATOM      3  C   LIG    1        2.370  -0.009  -0.020  0.00  0.00    -0.230 A 
ATOM      4  C   LIG    1        1.162  -0.694  -0.012  0.00  0.00    +0.090 A 
ATOM      5  S   LIG    1        1.464  -2.424  -0.024  0.00  0.00    +0.200 S 
ATOM      6  C   LIG    1        3.205  -2.196  -0.037  0.00  0.00    -0.200 A 
ATOM      7  C   LIG    1        4.218  -3.328  -0.049  0.00  0.00    +0.120 C 
ATOM      8  C   LIG    1        5.578  -2.768  -0.471  0.00  0.00    -0.010 C 
ATOM      9  C   LIG    1        6.660  -3.827  -0.247  0.00  0.00    +0.030 C 
ATOM     10  C   LIG    1        5.891  -1.529   0.374  0.00  0.00    +0.020 C 
ATOM     11  C   LIG    1        4.959  -0.391  -0.045  0.00  0.00    +0.110 C 
ATOM     12  N   LIG    1        0.002  -0.004   0.002  0.00  0.00    -0.510 NA
ATOM     13  C   LIG    1        3.524  -0.901  -0.034  0.00  0.00    -0.030 A 
ATOM     14  O   LIG    1        3.369   2.064  -0.019  0.00  0.00    -0.500 OA
ATOM     15  C   LIG    1       -0.016   1.307   0.009  0.00  0.00    +0.380 A 
ENDROOT
BRANCH   1  21
ATOM     16  C   LIG    1        0.976   6.256   2.526  0.00  0.00    +0.100 C 
ATOM     17  C   LIG    1        0.999   5.507   1.219  0.00  0.00    -0.080 A 
ATOM     18  C   LIG    1        0.959   6.202   0.024  0.00  0.00    +0.040 A 
ATOM     19  C   LIG    1        0.978   5.519  -1.178  0.00  0.00    +0.020 A 
ATOM     20  C   LIG    1        1.038   4.139  -1.188  0.00  0.00    -0.050 A 
ATOM     21  C   LIG    1        1.079   3.438   0.010  0.00  0.00    +0.090 A 
ATOM     22  C   LIG    1        1.059   3.395  -2.499  0.00  0.00    +0.100 C 
ATOM     23  C   LIG    1        1.054   4.127   1.215  0.00  0.00    +0.050 A 
ENDBRANCH   1  21
BRANCH  15  24
ATOM     24  S   LIG    1       -1.565   2.146   0.021  0.00  0.00    +0.050 S 
BRANCH  24  25
ATOM     25  C   LIG    1       -2.690   0.729   0.019  0.00  0.00    +0.120 C 
BRANCH  25  26
ATOM     26  C   LIG    1       -4.137   1.226   0.028  0.00  0.00    +0.170 C 
ATOM     27  C   LIG    1       -5.090   0.030   0.138  0.00  0.00    +0.000 C 
ATOM     28  C   LIG    1       -6.532   0.532   0.004  0.00  0.00    +0.220 C 
ATOM     29  O   LIG    1       -6.653   1.278  -1.211  0.00  0.00    -0.390 OA
ATOM     30  C   LIG    1       -5.759   2.390  -1.297  0.00  0.00    +0.400 C 
ATOM     31  O   LIG    1       -4.411   1.927  -1.189  0.00  0.00    -0.390 OA
ENDBRANCH  25  26
ENDBRANCH  24  25
ENDBRANCH  15  24
TORSDOF 4
