REMARK  Name = ZINCqH0000006buc.0
REMARK                            x       y       z     vdW  Elec       q    Type
REMARK                         _______ _______ _______ _____ _____    ______ ____
ROOT
ATOM      1  C   LIG    1       -1.653   9.256   0.070  0.00  0.00    +0.140 C 
ATOM      2  C   LIG    1       -1.642   9.879   1.468  0.00  0.00    +0.100 C 
ENDROOT
BRANCH   1   3
ATOM      3  C   LIG    1       -0.759   8.043   0.054  0.00  0.00    +0.200 A 
ATOM      4  N   LIG    1        0.545   8.065   0.042  0.00  0.00    -0.450 NA
ATOM      5  C   LIG    1        1.000   6.803   0.036  0.00  0.00    +0.180 A 
ATOM      6  C   LIG    1       -0.079   5.979   0.035  0.00  0.00    +0.010 A 
ATOM      7  O   LIG    1       -1.175   6.770   0.050  0.00  0.00    -0.180 OA
BRANCH   6   8
ATOM      8  C   LIG    1       -0.059   4.501   0.027  0.00  0.00    -0.010 A 
ATOM      9  C   LIG    1        1.157   3.817   0.011  0.00  0.00    +0.060 A 
ATOM     10  C   LIG    1        1.170   2.438   0.004  0.00  0.00    +0.040 A 
ATOM     11  C   LIG    1       -0.021   1.732   0.012  0.00  0.00    -0.030 A 
ATOM     12  C   LIG    1       -1.232   2.405   0.021  0.00  0.00    +0.030 A 
ATOM     13 CL   LIG    1        0.002  -0.004   0.002  0.00  0.00    -0.060 Cl
ATOM     14  C   LIG    1       -1.256   3.784   0.034  0.00  0.00    +0.050 A 
ENDBRANCH   6   8
ENDBRANCH   1   3
BRANCH   1  15
ATOM     15  S   LIG    1       -1.052  10.465  -1.135  0.00  0.00    +0.090 S 
BRANCH  15  22
ATOM     16  N   LIG    1       -2.389  12.851  -1.730  0.00  0.00    -0.530 N 
ATOM     17  C   LIG    1       -3.511  13.506  -1.373  0.00  0.00    +0.660 A 
ATOM     18  N   LIG    1       -4.142  12.758  -0.445  0.00  0.00    -0.540 N 
ATOM     19  H   LIG    1       -4.976  12.977  -0.000  0.00  0.00    +0.460 HD
ATOM     20  N   LIG    1       -3.371  11.605  -0.241  0.00  0.00    -0.280 NA
ATOM     21  O   LIG    1       -3.885  14.582  -1.806  0.00  0.00    -0.540 OA
ATOM     22  C   LIG    1       -2.329  11.674  -1.018  0.00  0.00    +0.250 A 
BRANCH  16  23
ATOM     23  C   LIG    1       -1.402  13.310  -2.712  0.00  0.00    +0.340 C 
BRANCH  23  24
ATOM     24  C   LIG    1       -1.789  12.799  -4.101  0.00  0.00    +0.020 C 
BRANCH  24  25
ATOM     25  C   LIG    1       -0.759  13.278  -5.126  0.00  0.00    +0.190 C 
BRANCH  25  27
ATOM     26  C   LIG    1       -0.219  13.195  -7.459  0.00  0.00    +0.200 C 
ATOM     27  O   LIG    1       -1.121  12.801  -6.423  0.00  0.00    -0.390 OA
ENDBRANCH  25  27
ENDBRANCH  24  25
ENDBRANCH  23  24
ENDBRANCH  16  23
ENDBRANCH  15  22
ENDBRANCH   1  15
TORSDOF 8
