REMARK  Name = ZINCrD00000la6wI.0
REMARK                            x       y       z     vdW  Elec       q    Type
REMARK                         _______ _______ _______ _____ _____    ______ ____
ROOT
ATOM      1  N   LIG    1        7.839   9.768  -0.275  0.00  0.00    -0.500 N 
ATOM      2  C   LIG    1        7.926   9.960  -1.643  0.00  0.00    +0.140 A 
ATOM      3  C   LIG    1        7.323   8.866  -2.282  0.00  0.00    -0.100 A 
ATOM      4  C   LIG    1        6.848   7.967  -1.214  0.00  0.00    -0.110 A 
ATOM      5  C   LIG    1        6.189   6.740  -1.216  0.00  0.00    +0.100 A 
ATOM      6  C   LIG    1        5.867   6.133  -0.021  0.00  0.00    -0.140 A 
ATOM      7  C   LIG    1        6.209   6.734   1.181  0.00  0.00    +0.070 A 
ATOM      8  C   LIG    1        6.867   7.944   1.198  0.00  0.00    -0.030 A 
ATOM      9  C   LIG    1        7.276   8.811  -3.673  0.00  0.00    +0.070 A 
ATOM     10  C   LIG    1        7.822   9.833  -4.418  0.00  0.00    -0.020 A 
ATOM     11  C   LIG    1        8.418  10.915  -3.788  0.00  0.00    +0.050 A 
ATOM     12  C   LIG    1        8.472  10.983  -2.412  0.00  0.00    -0.020 A 
ATOM     13  C   LIG    1        7.195   8.576   0.002  0.00  0.00    +0.150 A 
ENDROOT
BRANCH   1  15
ATOM     14  C   LIG    1        9.802  10.330   1.071  0.00  0.00    +0.020 C 
ATOM     15  C   LIG    1        8.355  10.695   0.735  0.00  0.00    +0.290 C 
ENDBRANCH   1  15
BRANCH   6  16
ATOM     16  C   LIG    1        5.148   4.809  -0.021  0.00  0.00    +0.350 C 
BRANCH  16  17
ATOM     17  N   LIG    1        3.701   5.039  -0.006  0.00  0.00    -0.680 N 
ATOM     18  H   LIG    1        3.354   5.945   0.002  0.00  0.00    +0.410 HD
BRANCH  17  19
ATOM     19  C   LIG    1        2.834   3.970  -0.004  0.00  0.00    +0.670 A 
ATOM     20  N   LIG    1        3.345   2.750  -0.015  0.00  0.00    -0.680 NA
ATOM     21  C   LIG    1        2.549   1.671  -0.013  0.00  0.00    +0.580 A 
ATOM     22  C   LIG    1        1.097   1.897   0.002  0.00  0.00    -0.390 A 
ATOM     23  C   LIG    1       -0.013   1.076   0.008  0.00  0.00    +0.470 A 
ATOM     24  N   LIG    1       -1.115   1.846   0.017  0.00  0.00    -0.440 N 
ATOM     25  H   LIG    1       -2.029   1.521   0.019  0.00  0.00    +0.460 HD
ATOM     26  N   LIG    1       -0.732   3.194   0.026  0.00  0.00    -0.470 N 
ATOM     27  H   LIG    1       -1.331   3.958   0.036  0.00  0.00    +0.460 HD
ATOM     28  C   LIG    1        0.638   3.244   0.013  0.00  0.00    +0.490 A 
ATOM     29  O   LIG    1        3.014   0.541  -0.024  0.00  0.00    -0.530 OA
ATOM     30  N   LIG    1        1.529   4.219   0.010  0.00  0.00    -0.650 NA
ENDBRANCH  17  19
ENDBRANCH  16  17
ENDBRANCH   6  16
TORSDOF 4
