REMARK  Name = ZINCrg00000IZN5t.0
REMARK                            x       y       z     vdW  Elec       q    Type
REMARK                         _______ _______ _______ _____ _____    ______ ____
ROOT
ATOM      1  C   LIG    1        3.299   3.127  -0.011  0.00  0.00    -0.630 A 
ATOM      2  C   LIG    1        2.792   4.420   0.001  0.00  0.00    +0.110 A 
ATOM      3  C   LIG    1        1.446   4.642   0.014  0.00  0.00    +0.110 A 
ATOM      4  C   LIG    1        0.559   3.558   0.016  0.00  0.00    +0.040 A 
ATOM      5  N   LIG    1       -0.786   3.469   0.028  0.00  0.00    -0.200 NA
ATOM      6  N   LIG    1       -1.152   2.236   0.019  0.00  0.00    +0.010 NA
ATOM      7  N   LIG    1       -0.017   1.412   0.010  0.00  0.00    -0.260 N 
ATOM      8  C   LIG    1        1.073   2.249   0.004  0.00  0.00    +0.090 A 
ATOM      9  C   LIG    1        2.448   2.045  -0.010  0.00  0.00    +0.170 A 
ENDROOT
BRANCH   1  10
ATOM     10  S   LIG    1        5.042   2.870  -0.029  0.00  0.00    +2.690 S 
ATOM     11  O   LIG    1        5.616   4.051  -0.573  0.00  0.00    -0.940 OA
ATOM     12  O   LIG    1        5.252   1.578  -0.583  0.00  0.00    -0.940 OA
BRANCH  10  13
ATOM     13  N   LIG    1        5.542   2.790   1.548  0.00  0.00    -0.990 NA
BRANCH  13  15
ATOM     14  C   LIG    1        6.987   0.909   2.146  0.00  0.00    +0.010 C 
ATOM     15  C   LIG    1        5.578   1.500   2.240  0.00  0.00    +0.280 C 
ENDBRANCH  13  15
BRANCH  13  16
ATOM     16  C   LIG    1        5.948   4.010   2.250  0.00  0.00    +0.300 C 
ATOM     17  C   LIG    1        4.759   4.565   3.037  0.00  0.00    +0.010 C 
ENDBRANCH  13  16
ENDBRANCH  10  13
ENDBRANCH   1  10
BRANCH   7  18
ATOM     18  O   LIG    1        0.002  -0.004   0.002  0.00  0.00    -0.080 OA
BRANCH  18  19
ATOM     19  C   LIG    1       -1.295  -0.603   0.011  0.00  0.00    +0.230 C 
BRANCH  19  20
ATOM     20  C   LIG    1       -1.156  -2.103   0.002  0.00  0.00    +0.530 C 
ATOM     21  N   LIG    1       -2.256  -2.882   0.008  0.00  0.00    -0.720 N 
ATOM     22  H   LIG    1       -3.137  -2.477   0.019  0.00  0.00    +0.410 HD
ATOM     23  O   LIG    1       -0.054  -2.610  -0.011  0.00  0.00    -0.510 OA
BRANCH  21  24
ATOM     24  C   LIG    1       -2.120  -4.341  -0.001  0.00  0.00    +0.270 C 
BRANCH  24  25
ATOM     25  C   LIG    1       -3.509  -4.982   0.009  0.00  0.00    +0.010 C 
BRANCH  25  26
ATOM     26  C   LIG    1       -3.368  -6.506  -0.001  0.00  0.00    -0.020 C 
ATOM     27  C   LIG    1       -4.753  -7.146  -0.117  0.00  0.00    +0.030 C 
ATOM     28  C   LIG    1       -2.701  -6.964   1.298  0.00  0.00    +0.030 C 
ENDBRANCH  25  26
ENDBRANCH  24  25
ENDBRANCH  21  24
ENDBRANCH  19  20
ENDBRANCH  18  19
ENDBRANCH   7  18
TORSDOF 10
