REMARK  Name = ZINC550000001tug.0
REMARK                            x       y       z     vdW  Elec       q    Type
REMARK                         _______ _______ _______ _____ _____    ______ ____
ROOT
ATOM      1  C   LIG    1       -2.449   1.117   0.020  0.00  0.00    +0.280 C 
ATOM      2  N   LIG    1       -1.191   1.867   0.018  0.00  0.00    -0.740 N 
ATOM      3  H   LIG    1       -1.204   2.837   0.023  0.00  0.00    +0.400 HD
ATOM      4  C   LIG    1       -0.014   1.209   0.009  0.00  0.00    +0.510 C 
ATOM      5  O   LIG    1        0.002  -0.004   0.002  0.00  0.00    -0.550 OA
ATOM      6  C   LIG    1        1.280   1.980   0.001  0.00  0.00    +0.090 C 
ENDROOT
TORSDOF 0
