REMARK  Name = ZINCtV000002EwyI.0
REMARK                            x       y       z     vdW  Elec       q    Type
REMARK                         _______ _______ _______ _____ _____    ______ ____
ROOT
ATOM      1  C   LIG    1        0.724  -4.108  -2.227  0.00  0.00    +0.520 C 
ATOM      2  N   LIG    1        0.154  -2.892  -2.115  0.00  0.00    -0.730 N 
ATOM      3  H   LIG    1       -0.278  -2.487  -2.882  0.00  0.00    +0.400 HD
ATOM      4  O   LIG    1        1.266  -4.615  -1.267  0.00  0.00    -0.510 OA
ENDROOT
BRANCH   1   6
ATOM      5  C   LIG    1       -0.765  -5.072  -3.960  0.00  0.00    +0.060 C 
ATOM      6  C   LIG    1        0.689  -4.838  -3.545  0.00  0.00    +0.160 C 
BRANCH   6   7
ATOM      7  O   LIG    1        1.354  -6.096  -3.411  0.00  0.00    -0.270 OA
BRANCH   7   8
ATOM      8  C   LIG    1        1.897  -6.630  -4.537  0.00  0.00    +0.150 A 
ATOM      9  C   LIG    1        1.695  -6.016  -5.763  0.00  0.00    -0.040 A 
ATOM     10  C   LIG    1        2.248  -6.560  -6.907  0.00  0.00    +0.080 A 
ATOM     11  C   LIG    1        3.003  -7.717  -6.829  0.00  0.00    -0.060 A 
ATOM     12  C   LIG    1        3.206  -8.332  -5.606  0.00  0.00    +0.090 A 
ATOM     13 CL   LIG    1        3.697  -8.398  -8.267  0.00  0.00    -0.050 Cl
ATOM     14  C   LIG    1        2.659  -7.788  -4.459  0.00  0.00    -0.060 A 
ATOM     15 CL   LIG    1        2.920  -8.555  -2.924  0.00  0.00    -0.040 Cl
ENDBRANCH   7   8
ENDBRANCH   6   7
ENDBRANCH   1   6
BRANCH   2  16
ATOM     16  C   LIG    1        0.189  -2.183  -0.833  0.00  0.00    +0.270 C 
BRANCH  16  17
ATOM     17  C   LIG    1       -0.523  -0.836  -0.977  0.00  0.00    +0.040 C 
BRANCH  17  18
ATOM     18  C   LIG    1       -0.487  -0.095   0.361  0.00  0.00    +0.090 C 
BRANCH  18  19
ATOM     19  C   LIG    1       -1.288  -0.862   1.382  0.00  0.00    -0.080 A 
ATOM     20  C   LIG    1       -0.717  -1.203   2.594  0.00  0.00    +0.010 A 
ATOM     21  C   LIG    1       -1.453  -1.903   3.532  0.00  0.00    +0.000 A 
ATOM     22  C   LIG    1       -2.756  -2.271   3.254  0.00  0.00    +0.000 A 
ATOM     23  C   LIG    1       -3.325  -1.934   2.040  0.00  0.00    +0.000 A 
ATOM     24  C   LIG    1       -2.591  -1.230   1.104  0.00  0.00    +0.010 A 
ENDBRANCH  18  19
BRANCH  18  25
ATOM     25  C   LIG    1       -1.079   1.280   0.190  0.00  0.00    -0.070 A 
ATOM     26  C   LIG    1       -2.323   1.430  -0.393  0.00  0.00    +0.010 A 
ATOM     27  C   LIG    1       -2.868   2.691  -0.546  0.00  0.00    +0.000 A 
ATOM     28  C   LIG    1       -2.163   3.804  -0.126  0.00  0.00    +0.000 A 
ATOM     29  C   LIG    1       -0.916   3.655   0.452  0.00  0.00    +0.000 A 
ATOM     30  C   LIG    1       -0.374   2.393   0.610  0.00  0.00    +0.010 A 
ENDBRANCH  18  25
ENDBRANCH  17  18
ENDBRANCH  16  17
ENDBRANCH   2  16
TORSDOF 8
