REMARK  Name = ZINCqH0000035n11.0
REMARK                            x       y       z     vdW  Elec       q    Type
REMARK                         _______ _______ _______ _____ _____    ______ ____
ROOT
ATOM      1  N   LIG    1       -0.721   1.571  -1.179  0.00  0.00    -0.480 N 
ATOM      2  C   LIG    1       -1.663   0.866  -1.875  0.00  0.00    +0.250 A 
ATOM      3  C   LIG    1       -2.116   1.601  -2.905  0.00  0.00    -0.050 A 
ATOM      4  C   LIG    1       -1.400   2.874  -2.869  0.00  0.00    -0.070 A 
ATOM      5  C   LIG    1       -1.425   4.035  -3.668  0.00  0.00    +0.000 A 
ATOM      6  C   LIG    1       -0.589   5.101  -3.347  0.00  0.00    +0.060 A 
ATOM      7  C   LIG    1        0.258   5.019  -2.256  0.00  0.00    +0.030 A 
ATOM      8  C   LIG    1        0.290   3.885  -1.470  0.00  0.00    +0.040 A 
ATOM      9  C   LIG    1       -0.534   2.804  -1.764  0.00  0.00    +0.090 A 
ENDROOT
BRANCH   5  10
ATOM     10  C   LIG    1       -2.328   4.119  -4.830  0.00  0.00    +0.230 A 
ATOM     11  N   LIG    1       -2.454   5.142  -5.660  0.00  0.00    -0.470 NA
ATOM     12  C   LIG    1       -3.383   4.767  -6.553  0.00  0.00    +0.190 A 
ATOM     13  N   LIG    1       -3.772   3.567  -6.238  0.00  0.00    -0.380 NA
ATOM     14  O   LIG    1       -3.178   3.171  -5.257  0.00  0.00    +0.090 OA
BRANCH  12  15
ATOM     15  C   LIG    1       -3.885   5.589  -7.712  0.00  0.00    +0.010 C 
ATOM     16  C   LIG    1       -4.977   6.600  -7.323  0.00  0.00    +0.040 C 
ATOM     17  C   LIG    1       -5.678   6.231  -8.642  0.00  0.00    +0.030 C 
ATOM     18  C   LIG    1       -4.955   4.876  -8.555  0.00  0.00    +0.050 C 
BRANCH  15  19
ATOM     19  C   LIG    1       -2.754   6.196  -8.544  0.00  0.00    +0.080 C 
BRANCH  19  20
ATOM     20  C   LIG    1       -1.767   6.911  -7.619  0.00  0.00    +0.180 C 
BRANCH  20  21
ATOM     21  O   LIG    1       -0.711   7.478  -8.396  0.00  0.00    -0.400 OA
ATOM     22  C   LIG    1        0.271   8.173  -7.624  0.00  0.00    +0.190 C 
ENDBRANCH  20  21
ENDBRANCH  19  20
ENDBRANCH  15  19
ENDBRANCH  12  15
ENDBRANCH   5  10
BRANCH   1  23
ATOM     23  C   LIG    1       -0.013   1.086   0.008  0.00  0.00    +0.310 C 
BRANCH  23  24
ATOM     24  C   LIG    1       -0.729   1.579   1.267  0.00  0.00    +0.160 C 
BRANCH  24  26
ATOM     25  C   LIG    1       -0.628   1.513   3.661  0.00  0.00    +0.200 C 
ATOM     26  O   LIG    1       -0.038   1.106   2.425  0.00  0.00    -0.390 OA
ENDBRANCH  24  26
ENDBRANCH  23  24
ENDBRANCH   1  23
TORSDOF 8
