REMARK  Name = ZINCvU0000000C30.0
REMARK                            x       y       z     vdW  Elec       q    Type
REMARK                         _______ _______ _______ _____ _____    ______ ____
ROOT
ATOM      1  O   LIG    1       -5.911  -1.642   0.304  0.00  0.00    -0.510 OA
ATOM      2  C   LIG    1       -5.760  -2.848   0.284  0.00  0.00    +0.600 C 
ATOM      3  N   LIG    1       -4.519  -3.371   0.229  0.00  0.00    -0.670 N 
ATOM      4  H   LIG    1       -4.400  -4.330   0.137  0.00  0.00    +0.410 HD
ENDROOT
BRANCH   3   5
ATOM      5  C   LIG    1       -3.402  -2.532   0.304  0.00  0.00    +0.160 A 
ATOM      6  C   LIG    1       -3.452  -1.379   1.078  0.00  0.00    +0.020 A 
ATOM      7  C   LIG    1       -2.352  -0.551   1.154  0.00  0.00    +0.070 A 
ATOM      8  C   LIG    1       -1.191  -0.870   0.453  0.00  0.00    -0.030 A 
ATOM      9  C   LIG    1       -1.145  -2.024  -0.328  0.00  0.00    +0.050 A 
ATOM     10  C   LIG    1       -2.245  -2.853  -0.396  0.00  0.00    -0.020 A 
BRANCH   8  11
ATOM     11  C   LIG    1       -0.006   0.020   0.532  0.00  0.00    +0.090 A 
ATOM     12  C   LIG    1        1.179  -0.174  -0.096  0.00  0.00    +0.150 A 
ATOM     13  N   LIG    1        2.007   0.887   0.247  0.00  0.00    -0.420 N 
ATOM     14  C   LIG    1        3.287   1.324  -0.009  0.00  0.00    +0.220 A 
ATOM     15  C   LIG    1        3.699   2.447   0.551  0.00  0.00    +0.010 A 
ATOM     16  S   LIG    1        2.329   3.031   1.513  0.00  0.00    +0.160 S 
ATOM     17  C   LIG    1        1.273   1.679   1.076  0.00  0.00    +0.160 A 
ATOM     18  N   LIG    1        0.079   1.161   1.243  0.00  0.00    -0.440 NA
ENDBRANCH   8  11
ENDBRANCH   3   5
BRANCH   2  19
ATOM     19  C   LIG    1       -6.934  -3.739   0.319  0.00  0.00    -0.290 A 
ATOM     20  C   LIG    1       -8.258  -3.350   0.288  0.00  0.00    +0.200 A 
ATOM     21  N   LIG    1       -9.006  -4.468   0.335  0.00  0.00    -0.310 N 
ATOM     22  N   LIG    1       -8.149  -5.572   0.406  0.00  0.00    -0.280 NA
ATOM     23  C   LIG    1       -6.914  -5.150   0.397  0.00  0.00    +0.290 A 
BRANCH  21  24
ATOM     24  C   LIG    1      -10.407  -4.518   0.322  0.00  0.00    +0.140 A 
ATOM     25  C   LIG    1      -11.144  -3.525   0.954  0.00  0.00    +0.020 A 
ATOM     26  C   LIG    1      -12.524  -3.574   0.934  0.00  0.00    +0.040 A 
ATOM     27  C   LIG    1      -13.172  -4.616   0.296  0.00  0.00    +0.020 A 
ATOM     28  C   LIG    1      -12.440  -5.609  -0.329  0.00  0.00    +0.030 A 
ATOM     29  C   LIG    1      -11.060  -5.562  -0.318  0.00  0.00    +0.030 A 
ENDBRANCH  21  24
BRANCH  20  30
ATOM     30  C   LIG    1       -8.772  -1.935   0.212  0.00  0.00    +0.020 C 
ATOM     31  C   LIG    1       -9.854  -1.632  -0.826  0.00  0.00    +0.030 C 
ATOM     32  C   LIG    1       -8.425  -1.125  -1.038  0.00  0.00    +0.070 C 
ENDBRANCH  20  30
ENDBRANCH   2  19
TORSDOF 5
