REMARK  Name = ZINCvU0000000E7a.0
REMARK                            x       y       z     vdW  Elec       q    Type
REMARK                         _______ _______ _______ _____ _____    ______ ____
ROOT
ATOM      1  O   LIG    1        4.362  -1.084   1.124  0.00  0.00    -0.320 OA
ENDROOT
BRANCH   1   2
ATOM      2  C   LIG    1        3.757  -0.756  -0.036  0.00  0.00    +0.530 C 
ATOM      3  O   LIG    1        4.274  -1.050  -1.097  0.00  0.00    -0.480 OA
BRANCH   2   4
ATOM      4  C   LIG    1        2.475  -0.044  -0.019  0.00  0.00    -0.100 A 
ATOM      5  C   LIG    1        1.260  -0.761  -0.004  0.00  0.00    +0.000 A 
ATOM      6  C   LIG    1        1.248  -2.166  -0.003  0.00  0.00    +0.000 A 
ATOM      7  C   LIG    1        0.060  -2.828   0.012  0.00  0.00    +0.040 A 
ATOM      8  C   LIG    1       -1.156  -2.147   0.028  0.00  0.00    +0.010 A 
ATOM      9  C   LIG    1       -1.213  -0.790   0.028  0.00  0.00    +0.050 A 
ATOM     10  C   LIG    1       -0.016  -0.043   0.013  0.00  0.00    -0.060 A 
ATOM     11  C   LIG    1       -0.040   1.353   0.013  0.00  0.00    +0.090 A 
ATOM     12  C   LIG    1        1.157   2.070  -0.003  0.00  0.00    -0.060 A 
ATOM     13  C   LIG    1        1.159   3.482  -0.000  0.00  0.00    +0.050 A 
ATOM     14  C   LIG    1        2.341   4.151  -0.015  0.00  0.00    +0.010 A 
ATOM     15  C   LIG    1        3.561   3.478  -0.031  0.00  0.00    +0.040 A 
ATOM     16  C   LIG    1        3.628   2.120  -0.033  0.00  0.00    +0.000 A 
ATOM     17  C   LIG    1        2.442   1.367  -0.018  0.00  0.00    +0.000 A 
ENDBRANCH   2   4
ENDBRANCH   1   2
BRANCH   1  18
ATOM     18  C   LIG    1        5.628  -1.788   1.031  0.00  0.00    +0.260 C 
BRANCH  18  20
ATOM     19  O   LIG    1        5.516  -1.710   3.387  0.00  0.00    -0.480 OA
ATOM     20  C   LIG    1        6.150  -2.068   2.416  0.00  0.00    +0.520 C 
ATOM     21  N   LIG    1        7.320  -2.717   2.577  0.00  0.00    -0.680 N 
ATOM     22  H   LIG    1        7.794  -3.061   1.804  0.00  0.00    +0.420 HD
BRANCH  21  23
ATOM     23  C   LIG    1        7.851  -2.895   3.860  0.00  0.00    +0.200 A 
ATOM     24  C   LIG    1        7.005  -3.100   4.941  0.00  0.00    +0.030 A 
ATOM     25  C   LIG    1        7.532  -3.281   6.205  0.00  0.00    +0.070 A 
ATOM     26  C   LIG    1        8.901  -3.246   6.395  0.00  0.00    +0.010 A 
ATOM     27  C   LIG    1        9.747  -3.037   5.321  0.00  0.00    +0.090 A 
ATOM     28  C   LIG    1        9.226  -2.861   4.054  0.00  0.00    -0.210 A 
BRANCH  28  29
ATOM     29  C   LIG    1       10.148  -2.632   2.885  0.00  0.00    +0.510 C 
ATOM     30  F   LIG    1        9.860  -1.395   2.298  0.00  0.00    -0.170 F 
ATOM     31  F   LIG    1        9.966  -3.649   1.941  0.00  0.00    -0.180 F 
ATOM     32  F   LIG    1       11.475  -2.640   3.328  0.00  0.00    -0.170 F 
ENDBRANCH  28  29
ENDBRANCH  21  23
ENDBRANCH  18  20
ENDBRANCH   1  18
TORSDOF 6
