REMARK  Name = ZINCrD00000e0CpA.2
REMARK                            x       y       z     vdW  Elec       q    Type
REMARK                         _______ _______ _______ _____ _____    ______ ____
ROOT
ATOM      1  C   LIG    1       -0.149   0.080  -0.190  0.00  0.00    +0.170 A 
ATOM      2  C   LIG    1       -0.011   1.425   0.131  0.00  0.00    -0.030 A 
ATOM      3  C   LIG    1        1.244   1.959   0.348  0.00  0.00    +0.050 A 
ATOM      4  C   LIG    1        2.366   1.159   0.247  0.00  0.00    +0.010 A 
ATOM      5  C   LIG    1        2.234  -0.186  -0.074  0.00  0.00    +0.160 A 
ATOM      6  C   LIG    1        0.975  -0.726  -0.292  0.00  0.00    -0.010 A 
ENDROOT
BRANCH   1   8
ATOM      7  C   LIG    1       -1.586  -1.452  -1.306  0.00  0.00    +0.520 C 
ATOM      8  N   LIG    1       -1.421  -0.461  -0.409  0.00  0.00    -0.680 N 
ATOM      9  H   LIG    1       -2.184  -0.122   0.086  0.00  0.00    +0.410 HD
ATOM     10  O   LIG    1       -0.652  -1.812  -1.992  0.00  0.00    -0.490 OA
BRANCH   7  16
ATOM     11  C   LIG    1       -2.686  -4.513  -1.161  0.00  0.00    +0.200 C 
ATOM     12  N   LIG    1       -2.788  -3.420  -2.138  0.00  0.00    -0.510 NA
ATOM     13  C   LIG    1       -3.946  -3.615  -3.030  0.00  0.00    +0.180 C 
ATOM     14  C   LIG    1       -4.831  -2.357  -2.910  0.00  0.00    +0.010 C 
ATOM     15  C   LIG    1       -3.841  -1.280  -2.394  0.00  0.00    +0.040 C 
ATOM     16  C   LIG    1       -2.931  -2.115  -1.458  0.00  0.00    +0.130 C 
ENDBRANCH   7  16
ENDBRANCH   1   8
BRANCH   5  17
ATOM     17  N   LIG    1        3.371  -0.996  -0.175  0.00  0.00    -0.670 N 
ATOM     18  H   LIG    1        3.336  -1.920   0.118  0.00  0.00    +0.410 HD
ATOM     19  C   LIG    1        4.514  -0.492  -0.680  0.00  0.00    +0.530 C 
ATOM     20  O   LIG    1        4.583   0.683  -0.971  0.00  0.00    -0.510 OA
BRANCH  19  21
ATOM     21  C   LIG    1        5.708  -1.389  -0.884  0.00  0.00    +0.050 C 
ATOM     22  C   LIG    1        6.910  -0.572  -1.404  0.00  0.00    +0.080 C 
ATOM     23  C   LIG    1        8.106  -1.278  -0.731  0.00  0.00    +0.080 C 
ATOM     24  C   LIG    1        7.542  -1.901   0.528  0.00  0.00    -0.080 A 
ATOM     25  C   LIG    1        8.183  -2.375   1.659  0.00  0.00    +0.010 A 
ATOM     26  C   LIG    1        7.450  -2.912   2.700  0.00  0.00    +0.020 A 
ATOM     27  C   LIG    1        6.073  -2.976   2.612  0.00  0.00    +0.010 A 
ATOM     28  C   LIG    1        5.431  -2.504   1.484  0.00  0.00    +0.020 A 
ATOM     29  C   LIG    1        6.164  -1.966   0.440  0.00  0.00    -0.100 A 
ENDBRANCH  19  21
ENDBRANCH   5  17
TORSDOF 4
