REMARK  Name = ZINCrH000004tRoB.0
REMARK                            x       y       z     vdW  Elec       q    Type
REMARK                         _______ _______ _______ _____ _____    ______ ____
ROOT
ATOM      1  O   LIG    1        3.431   7.600  -1.199  0.00  0.00    -0.500 OA
ATOM      2  C   LIG    1        2.527   8.235  -0.699  0.00  0.00    +0.530 C 
ATOM      3  N   LIG    1        1.456   7.596  -0.189  0.00  0.00    -0.660 N 
ATOM      4  H   LIG    1        0.699   8.105   0.141  0.00  0.00    +0.410 HD
ENDROOT
BRANCH   3   5
ATOM      5  C   LIG    1        1.435   6.196  -0.136  0.00  0.00    +0.120 A 
ATOM      6  C   LIG    1        2.613   5.491   0.073  0.00  0.00    +0.050 A 
ATOM      7  C   LIG    1        2.592   4.112   0.125  0.00  0.00    +0.010 A 
ATOM      8  C   LIG    1        1.393   3.429  -0.032  0.00  0.00    +0.100 A 
ATOM      9  C   LIG    1        0.216   4.133  -0.246  0.00  0.00    -0.020 A 
ATOM     10  C   LIG    1        0.236   5.513  -0.292  0.00  0.00    +0.020 A 
BRANCH   8  11
ATOM     11  N   LIG    1        1.372   2.031   0.021  0.00  0.00    -0.490 N 
ATOM     12  C   LIG    1        0.008   1.517  -0.168  0.00  0.00    +0.160 C 
ATOM     13  C   LIG    1        0.040  -0.013  -0.163  0.00  0.00    +0.220 C 
ATOM     14  O   LIG    1        0.626  -0.469   1.059  0.00  0.00    -0.380 OA
ATOM     15  C   LIG    1        1.955   0.012   1.275  0.00  0.00    +0.220 C 
ATOM     16  C   LIG    1        1.943   1.543   1.285  0.00  0.00    +0.160 C 
ENDBRANCH   8  11
ENDBRANCH   3   5
BRANCH   2  17
ATOM     17  C   LIG    1        2.602   9.739  -0.648  0.00  0.00    +0.110 C 
BRANCH  17  18
ATOM     18  S   LIG    1        4.149  10.293  -1.407  0.00  0.00    +0.090 S 
BRANCH  18  19
ATOM     19  C   LIG    1        3.978  12.036  -1.215  0.00  0.00    +0.250 A 
ATOM     20  N   LIG    1        2.956  12.635  -0.656  0.00  0.00    -0.490 NA
ATOM     21  C   LIG    1        3.148  13.980  -0.675  0.00  0.00    +0.070 A 
ATOM     22  C   LIG    1        2.392  15.064  -0.223  0.00  0.00    +0.080 A 
ATOM     23  C   LIG    1        2.867  16.347  -0.390  0.00  0.00    -0.040 A 
ATOM     24  C   LIG    1        4.092  16.570  -1.003  0.00  0.00    +0.050 A 
ATOM     25  C   LIG    1        4.850  15.509  -1.455  0.00  0.00    +0.050 A 
ATOM     26 CL   LIG    1        1.928  17.694   0.173  0.00  0.00    -0.060 Cl
ATOM     27  C   LIG    1        4.387  14.212  -1.296  0.00  0.00    +0.060 A 
ATOM     28  N   LIG    1        4.894  12.964  -1.623  0.00  0.00    -0.580 N 
ATOM     29  H   LIG    1        5.740  12.784  -2.061  0.00  0.00    +0.430 HD
ENDBRANCH  18  19
ENDBRANCH  17  18
ENDBRANCH   2  17
TORSDOF 5
