REMARK  Name = ZINCqH000003695u.0
REMARK                            x       y       z     vdW  Elec       q    Type
REMARK                         _______ _______ _______ _____ _____    ______ ____
ROOT
ATOM      1  C   LIG    1        1.598  -7.081  -0.049  0.00  0.00    +0.070 C 
ATOM      2  C   LIG    1        2.340  -6.823  -1.362  0.00  0.00    +0.030 C 
ENDROOT
BRANCH   1  10
ATOM      3  C   LIG    1        2.763 -10.376   3.094  0.00  0.00    +0.100 A 
ATOM      4  C   LIG    1        2.228 -11.624   2.785  0.00  0.00    -0.050 A 
ATOM      5  C   LIG    1        1.451 -11.795   1.661  0.00  0.00    +0.030 A 
ATOM      6  C   LIG    1        1.195 -10.716   0.822  0.00  0.00    +0.060 A 
ATOM      7  N   LIG    1        0.474 -10.575  -0.345  0.00  0.00    -0.590 N 
ATOM      8  H   LIG    1       -0.008 -11.288  -0.793  0.00  0.00    +0.420 HD
ATOM      9  C   LIG    1        0.534  -9.277  -0.774  0.00  0.00    +0.240 A 
ATOM     10  C   LIG    1        1.283  -8.550   0.070  0.00  0.00    -0.170 A 
ATOM     11  C   LIG    1        1.733  -9.454   1.131  0.00  0.00    -0.060 A 
ATOM     12  C   LIG    1        2.519  -9.292   2.274  0.00  0.00    +0.020 A 
BRANCH   3  14
ATOM     13  C   LIG    1        3.740 -11.385   5.013  0.00  0.00    +0.230 C 
ATOM     14  O   LIG    1        3.527 -10.223   4.208  0.00  0.00    -0.320 OA
ENDBRANCH   3  14
ENDBRANCH   1  10
BRANCH   1  15
ATOM     15  C   LIG    1        0.295  -6.278  -0.033  0.00  0.00    +0.290 C 
BRANCH  15  16
ATOM     16  N   LIG    1        0.605  -4.846  -0.028  0.00  0.00    -0.700 N 
ATOM     17  H   LIG    1        1.528  -4.550  -0.035  0.00  0.00    +0.410 HD
ATOM     18  C   LIG    1       -0.394  -3.941  -0.014  0.00  0.00    +0.600 C 
ATOM     19  O   LIG    1       -1.551  -4.313  -0.005  0.00  0.00    -0.520 OA
BRANCH  18  20
ATOM     20  C   LIG    1       -0.081  -2.496  -0.009  0.00  0.00    +0.050 A 
ATOM     21  N   LIG    1        1.109  -1.999  -0.019  0.00  0.00    -0.410 NA
ATOM     22  C   LIG    1        1.238  -0.674  -0.013  0.00  0.00    +0.020 A 
ATOM     23  C   LIG    1        2.406   0.122  -0.021  0.00  0.00    +0.380 A 
ATOM     24  N   LIG    1        2.323   1.430  -0.014  0.00  0.00    -0.470 NA
ATOM     25  C   LIG    1        1.167   2.073   0.002  0.00  0.00    +0.280 A 
ATOM     26  C   LIG    1       -0.017   1.392   0.010  0.00  0.00    +0.030 A 
ATOM     27  C   LIG    1        0.002  -0.004   0.002  0.00  0.00    -0.150 A 
ATOM     28  S   LIG    1       -1.280  -1.209   0.009  0.00  0.00    +0.190 S 
ENDBRANCH  18  20
ENDBRANCH  15  16
ENDBRANCH   1  15
TORSDOF 5
