REMARK  Name = ZINCrg00000y7mba.0
REMARK                            x       y       z     vdW  Elec       q    Type
REMARK                         _______ _______ _______ _____ _____    ______ ____
ROOT
ATOM      1  N   LIG    1        0.892  -3.704   0.753  0.00  0.00    -0.620 N 
ATOM      2  H   LIG    1        0.452  -4.466   0.345  0.00  0.00    +0.430 HD
ATOM      3  C   LIG    1        2.071  -3.866   1.386  0.00  0.00    +0.470 C 
ATOM      4  O   LIG    1        2.621  -2.913   1.897  0.00  0.00    -0.500 OA
ENDROOT
BRANCH   1   6
ATOM      5  C   LIG    1       -0.885  -2.176   0.068  0.00  0.00    -0.220 A 
ATOM      6  C   LIG    1        0.308  -2.449   0.686  0.00  0.00    +0.080 A 
ATOM      7  S   LIG    1        0.976  -1.032   1.359  0.00  0.00    +0.310 S 
ATOM      8  C   LIG    1       -0.365  -0.045   0.807  0.00  0.00    -0.250 A 
ATOM      9  C   LIG    1       -1.256  -0.780   0.157  0.00  0.00    +0.080 A 
BRANCH   5  10
ATOM     10  C   LIG    1       -1.701  -3.190  -0.605  0.00  0.00    +0.540 C 
ATOM     11  O   LIG    1       -1.328  -4.347  -0.635  0.00  0.00    -0.530 OA
BRANCH  10  12
ATOM     12  O   LIG    1       -2.865  -2.840  -1.190  0.00  0.00    -0.350 OA
BRANCH  12  14
ATOM     13  C   LIG    1       -4.900  -3.313  -2.440  0.00  0.00    +0.070 C 
ATOM     14  C   LIG    1       -3.620  -3.897  -1.838  0.00  0.00    +0.200 C 
ENDBRANCH  12  14
ENDBRANCH  10  12
ENDBRANCH   5  10
BRANCH   8  15
ATOM     15  C   LIG    1       -0.491   1.438   1.045  0.00  0.00    +0.100 C 
ATOM     16  C   LIG    1       -1.231   1.682   2.361  0.00  0.00    +0.030 C 
ENDBRANCH   8  15
ENDBRANCH   1   6
BRANCH   3  17
ATOM     17  C   LIG    1        2.706  -5.231   1.459  0.00  0.00    +0.280 C 
BRANCH  17  18
ATOM     18  N   LIG    1        4.036  -5.120   2.074  0.00  0.00    -0.500 NA
ATOM     19  C   LIG    1        4.883  -4.171   1.331  0.00  0.00    +0.180 C 
ATOM     20  C   LIG    1        6.318  -4.362   1.812  0.00  0.00    +0.090 C 
ATOM     21  C   LIG    1        6.454  -4.240   3.299  0.00  0.00    +0.000 C 
ATOM     22  C   LIG    1        6.824  -2.853   3.757  0.00  0.00    +0.530 C 
ATOM     23  N   LIG    1        6.097  -2.563   4.849  0.00  0.00    -0.680 N 
ATOM     24  H   LIG    1        6.196  -1.734   5.342  0.00  0.00    +0.420 HD
ATOM     25  C   LIG    1        5.222  -3.517   5.198  0.00  0.00    +0.530 C 
ATOM     26  O   LIG    1        4.505  -3.492   6.175  0.00  0.00    -0.470 OA
ATOM     27  O   LIG    1        7.637  -2.123   3.231  0.00  0.00    -0.470 OA
ATOM     28  C   LIG    1        5.278  -4.638   4.168  0.00  0.00    +0.030 C 
ATOM     29  C   LIG    1        3.934  -4.699   3.468  0.00  0.00    +0.210 C 
ENDBRANCH  17  18
ENDBRANCH   3  17
TORSDOF 7
