REMARK  Name = ZINCpk00000e9KaR.0
REMARK                            x       y       z     vdW  Elec       q    Type
REMARK                         _______ _______ _______ _____ _____    ______ ____
ROOT
ATOM      1  C   LIG    1       -1.115   2.086  -0.516  0.00  0.00    +0.610 C 
ATOM      2  N   LIG    1       -2.288   1.425  -0.474  0.00  0.00    -0.640 N 
ATOM      3  C   LIG    1       -2.709   0.018  -0.393  0.00  0.00    +0.330 C 
ATOM      4  C   LIG    1       -4.002   0.417  -1.113  0.00  0.00    -0.480 C 
ATOM      5  C   LIG    1       -3.712   1.793  -0.498  0.00  0.00    +0.350 C 
ATOM      6  O   LIG    1       -1.102   3.302  -0.534  0.00  0.00    -0.530 OA
ENDROOT
BRANCH   1  10
ATOM      7  C   LIG    1        2.535   0.014  -0.583  0.00  0.00    +0.420 A 
ATOM      8  C   LIG    1        1.364  -0.712  -0.376  0.00  0.00    -0.110 A 
ATOM      9  C   LIG    1        0.162  -0.056  -0.353  0.00  0.00    +0.130 A 
ATOM     10  C   LIG    1        0.155   1.335  -0.539  0.00  0.00    -0.260 A 
ATOM     11  C   LIG    1        1.367   1.998  -0.742  0.00  0.00    +0.390 A 
ATOM     12  N   LIG    1        2.500   1.329  -0.757  0.00  0.00    -0.540 NA
BRANCH   7  14
ATOM     13  C   LIG    1        3.794  -2.108  -0.526  0.00  0.00    +0.300 C 
ATOM     14  N   LIG    1        3.752  -0.646  -0.607  0.00  0.00    -0.610 N 
ATOM     15  C   LIG    1        4.997   0.118  -0.713  0.00  0.00    +0.290 C 
ENDBRANCH   7  14
ENDBRANCH   1  10
BRANCH   4  16
ATOM     16  S   LIG    1       -5.494  -0.387  -0.468  0.00  0.00    +2.620 S 
ATOM     17  O   LIG    1       -6.661   0.229  -0.997  0.00  0.00    -0.930 OA
ATOM     18  O   LIG    1       -5.365  -0.635   0.926  0.00  0.00    -0.940 OA
BRANCH  16  19
ATOM     19  N   LIG    1       -5.482  -1.894  -1.153  0.00  0.00    -1.050 N 
ATOM     20  H   LIG    1       -5.421  -2.683  -0.591  0.00  0.00    +0.430 HD
BRANCH  19  21
ATOM     21  C   LIG    1       -5.558  -2.030  -2.542  0.00  0.00    +0.130 A 
ATOM     22  C   LIG    1       -6.486  -1.291  -3.264  0.00  0.00    +0.010 A 
ATOM     23  C   LIG    1       -6.556  -1.424  -4.636  0.00  0.00    +0.030 A 
ATOM     24  C   LIG    1       -5.710  -2.301  -5.291  0.00  0.00    +0.010 A 
ATOM     25  C   LIG    1       -4.788  -3.043  -4.575  0.00  0.00    +0.030 A 
ATOM     26  C   LIG    1       -4.710  -2.910  -3.202  0.00  0.00    +0.000 A 
ENDBRANCH  19  21
ENDBRANCH  16  19
ENDBRANCH   4  16
TORSDOF 5
