REMARK  Name = ZINCpe000000Y7At.0
REMARK                            x       y       z     vdW  Elec       q    Type
REMARK                         _______ _______ _______ _____ _____    ______ ____
ROOT
ATOM      1  C   LIG    1        1.219  -2.596  -1.444  0.00  0.00    +0.510 C 
ATOM      2  N   LIG    1        1.243  -3.920  -1.698  0.00  0.00    -0.610 N 
ATOM      3  C   LIG    1        1.279  -4.892  -0.598  0.00  0.00    +0.270 C 
ATOM      4  C   LIG    1        0.124  -5.887  -0.787  0.00  0.00    +0.020 C 
ATOM      5  C   LIG    1        0.220  -6.512  -2.181  0.00  0.00    +0.010 C 
ATOM      6  C   LIG    1        0.091  -5.417  -3.242  0.00  0.00    +0.020 C 
ATOM      7  C   LIG    1        1.240  -4.417  -3.081  0.00  0.00    +0.270 C 
ATOM      8  O   LIG    1        1.195  -1.803  -2.362  0.00  0.00    -0.530 OA
ENDROOT
BRANCH   1   9
ATOM      9  C   LIG    1        1.223  -2.102  -0.021  0.00  0.00    +0.360 C 
BRANCH   9  13
ATOM     10  C   LIG    1        3.789   2.062  -0.024  0.00  0.00    +0.180 C 
ATOM     11  C   LIG    1        2.454   1.365  -0.015  0.00  0.00    +0.140 A 
ATOM     12  N   LIG    1        2.398   0.066  -0.021  0.00  0.00    -0.230 NA
ATOM     13  N   LIG    1        1.194  -0.637  -0.013  0.00  0.00    -0.420 N 
ATOM     14  C   LIG    1        0.002  -0.004   0.002  0.00  0.00    +0.540 A 
ATOM     15  C   LIG    1       -0.018   1.464   0.010  0.00  0.00    -0.120 A 
ATOM     16  C   LIG    1       -1.210   2.186   0.031  0.00  0.00    +0.090 A 
ATOM     17  C   LIG    1       -1.170   3.563   0.034  0.00  0.00    +0.030 A 
ATOM     18  C   LIG    1        0.044   4.237   0.025  0.00  0.00    +0.050 A 
ATOM     19  C   LIG    1        1.234   3.545   0.010  0.00  0.00    +0.040 A 
ATOM     20  O   LIG    1       -1.038  -0.639   0.009  0.00  0.00    -0.520 OA
ATOM     21  C   LIG    1        1.219   2.149   0.002  0.00  0.00    -0.060 A 
ENDBRANCH   9  13
ENDBRANCH   1   9
BRANCH   5  22
ATOM     22  C   LIG    1       -0.906  -7.532  -2.361  0.00  0.00    +0.060 C 
BRANCH  22  23
ATOM     23  C   LIG    1       -0.710  -8.673  -1.396  0.00  0.00    +0.520 C 
ATOM     24  O   LIG    1        0.238  -8.671  -0.639  0.00  0.00    -0.540 OA
ATOM     25  N   LIG    1       -1.587  -9.696  -1.375  0.00  0.00    -0.860 N 
ATOM     26  H   LIG    1       -1.460 -10.430  -0.754  0.00  0.00    +0.400 HD
ATOM     27  H   LIG    1       -2.345  -9.698  -1.980  0.00  0.00    +0.400 HD
ENDBRANCH  22  23
ENDBRANCH   5  22
TORSDOF 4
