REMARK  Name = ZINCqH00000021Uj.0
REMARK                            x       y       z     vdW  Elec       q    Type
REMARK                         _______ _______ _______ _____ _____    ______ ____
ROOT
ATOM      1  C   LIG    1        6.111   6.107   1.283  0.00  0.00    +0.040 C 
ATOM      2  C   LIG    1        4.795   5.331   1.203  0.00  0.00    -0.080 C 
ATOM      3  C   LIG    1        3.650   6.294   0.894  0.00  0.00    +0.090 C 
ATOM      4  C   LIG    1        2.384   5.533   0.600  0.00  0.00    -0.110 A 
ATOM      5  C   LIG    1        1.168   6.183   0.717  0.00  0.00    +0.020 A 
ATOM      6  C   LIG    1       -0.010   5.514   0.445  0.00  0.00    -0.020 A 
ATOM      7  C   LIG    1        0.019   4.188   0.053  0.00  0.00    +0.020 A 
ATOM      8  C   LIG    1        1.228   3.531  -0.064  0.00  0.00    +0.010 A 
ATOM      9  C   LIG    1        2.414   4.202   0.210  0.00  0.00    +0.160 A 
ATOM     10  N   LIG    1        3.630   3.517   0.089  0.00  0.00    -0.550 N 
ATOM     11  C   LIG    1        3.651   2.174  -0.021  0.00  0.00    +0.570 C 
ATOM     12  O   LIG    1        2.607   1.551  -0.065  0.00  0.00    -0.490 OA
ATOM     13  C   LIG    1        4.530   4.632   2.539  0.00  0.00    +0.030 C 
ATOM     14  C   LIG    1        4.881   4.286   0.089  0.00  0.00    +0.280 C 
ENDROOT
BRANCH  11  15
ATOM     15  C   LIG    1        4.939   1.460  -0.087  0.00  0.00    -0.110 A 
ATOM     16  C   LIG    1        5.915   1.856  -1.004  0.00  0.00    +0.040 A 
ATOM     17  C   LIG    1        7.117   1.184  -1.062  0.00  0.00    +0.010 A 
ATOM     18  C   LIG    1        7.363   0.116  -0.214  0.00  0.00    +0.050 A 
ATOM     19  C   LIG    1        6.409  -0.287   0.698  0.00  0.00    -0.020 A 
ATOM     20  C   LIG    1        5.192   0.378   0.771  0.00  0.00    +0.140 A 
BRANCH  20  21
ATOM     21  N   LIG    1        4.229  -0.026   1.687  0.00  0.00    -0.500 N 
ATOM     22  C   LIG    1        4.708   0.151   3.066  0.00  0.00    +0.150 C 
ATOM     23  C   LIG    1        3.597  -0.249   4.041  0.00  0.00    +0.220 C 
ATOM     24  O   LIG    1        3.199  -1.597   3.776  0.00  0.00    -0.380 OA
ATOM     25  C   LIG    1        2.727  -1.805   2.442  0.00  0.00    +0.220 C 
ATOM     26  C   LIG    1        3.829  -1.421   1.450  0.00  0.00    +0.170 C 
ENDBRANCH  20  21
ENDBRANCH  11  15
TORSDOF 2
