REMARK  Name = ZINCrD00000l4Fja.0
REMARK                            x       y       z     vdW  Elec       q    Type
REMARK                         _______ _______ _______ _____ _____    ______ ____
ROOT
ATOM      1  C   LIG    1       -0.959   7.263  -0.180  0.00  0.00    -0.140 A 
ATOM      2  C   LIG    1       -0.056   6.332  -0.696  0.00  0.00    +0.210 A 
ATOM      3  C   LIG    1        1.275   6.397  -0.340  0.00  0.00    -0.690 A 
ATOM      4  C   LIG    1        1.719   7.389   0.516  0.00  0.00    +0.190 A 
ATOM      5  C   LIG    1        0.832   8.319   1.028  0.00  0.00    +0.020 A 
ATOM      6  C   LIG    1       -0.505   8.262   0.685  0.00  0.00    +0.070 A 
ATOM      7 CL   LIG    1       -1.618   9.429   1.328  0.00  0.00    -0.000 Cl
ENDROOT
BRANCH   3   8
ATOM      8  S   LIG    1        2.415   5.218  -0.985  0.00  0.00    +2.690 S 
ATOM      9  O   LIG    1        1.903   4.812  -2.246  0.00  0.00    -0.940 OA
ATOM     10  O   LIG    1        3.710   5.779  -0.816  0.00  0.00    -0.940 OA
BRANCH   8  11
ATOM     11  N   LIG    1        2.351   3.886  -0.003  0.00  0.00    -1.050 N 
ATOM     12  H   LIG    1        2.072   3.030  -0.364  0.00  0.00    +0.430 HD
BRANCH  11  13
ATOM     13  C   LIG    1        2.698   3.995   1.346  0.00  0.00    +0.150 A 
ATOM     14  C   LIG    1        1.889   3.425   2.321  0.00  0.00    +0.020 A 
ATOM     15  C   LIG    1        2.234   3.535   3.654  0.00  0.00    +0.070 A 
ATOM     16  C   LIG    1        3.381   4.217   4.019  0.00  0.00    -0.100 A 
ATOM     17  C   LIG    1        4.191   4.782   3.050  0.00  0.00    +0.070 A 
ATOM     18 BR   LIG    1        3.846   4.371   5.845  0.00  0.00    -0.040 Br
ATOM     19  C   LIG    1        3.852   4.675   1.715  0.00  0.00    +0.020 A 
ENDBRANCH  11  13
ENDBRANCH   8  11
ENDBRANCH   3   8
BRANCH   1  21
ATOM     20  O   LIG    1       -3.170   8.010  -0.104  0.00  0.00    -0.460 OA
ATOM     21  C   LIG    1       -2.387   7.196  -0.551  0.00  0.00    +0.500 C 
BRANCH  21  22
ATOM     22  O   LIG    1       -2.821   6.231  -1.386  0.00  0.00    -0.330 OA
BRANCH  22  23
ATOM     23  C   LIG    1       -4.237   6.226  -1.707  0.00  0.00    +0.160 C 
ATOM     24  C   LIG    1       -4.470   5.614  -3.106  0.00  0.00    +0.070 C 
ATOM     25  C   LIG    1       -5.347   4.378  -2.801  0.00  0.00    +0.260 C 
ATOM     26  O   LIG    1       -5.176   4.133  -1.372  0.00  0.00    -0.340 OA
ATOM     27  C   LIG    1       -4.991   5.316  -0.758  0.00  0.00    +0.470 C 
ATOM     28  O   LIG    1       -5.361   5.603   0.355  0.00  0.00    -0.420 OA
ENDBRANCH  22  23
ENDBRANCH  21  22
ENDBRANCH   1  21
TORSDOF 6
