REMARK  Name = ZINCrH000004q5ha.0
REMARK                            x       y       z     vdW  Elec       q    Type
REMARK                         _______ _______ _______ _____ _____    ______ ____
ROOT
ATOM      1  N   LIG    1        4.175   0.708  -1.473  0.00  0.00    -0.530 NA
ATOM      2  C   LIG    1        5.196   1.588  -0.886  0.00  0.00    +0.150 C 
ATOM      3  C   LIG    1        4.799   1.932   0.552  0.00  0.00    +0.240 C 
ATOM      4  O   LIG    1        3.501   2.534   0.552  0.00  0.00    -0.380 OA
ATOM      5  C   LIG    1        2.482   1.704  -0.013  0.00  0.00    +0.230 C 
ATOM      6  C   LIG    1        2.856   1.357  -1.456  0.00  0.00    +0.170 C 
ENDROOT
BRANCH   5   7
ATOM      7  C   LIG    1        1.167   2.440   0.004  0.00  0.00    -0.090 A 
ATOM      8  C   LIG    1        1.150   3.822   0.012  0.00  0.00    +0.100 A 
ATOM      9  C   LIG    1       -0.056   4.498   0.027  0.00  0.00    +0.000 A 
ATOM     10  C   LIG    1       -1.246   3.791   0.034  0.00  0.00    +0.120 A 
ATOM     11  C   LIG    1       -1.228   2.407   0.021  0.00  0.00    +0.000 A 
ATOM     12  F   LIG    1       -2.425   4.452   0.049  0.00  0.00    -0.130 F 
ATOM     13  C   LIG    1       -0.021   1.732   0.012  0.00  0.00    -0.000 A 
ATOM     14 CL   LIG    1        0.002  -0.004   0.002  0.00  0.00    -0.050 Cl
ENDBRANCH   5   7
BRANCH   1  15
ATOM     15  C   LIG    1        4.547   0.307  -2.837  0.00  0.00    +0.310 C 
BRANCH  15  19
ATOM     16  C   LIG    1        7.207  -2.211  -2.674  0.00  0.00    +0.110 A 
ATOM     17  N   LIG    1        7.832  -1.064  -2.787  0.00  0.00    -0.370 NA
ATOM     18  O   LIG    1        7.053  -0.142  -2.856  0.00  0.00    +0.090 OA
ATOM     19  C   LIG    1        5.780  -0.558  -2.787  0.00  0.00    -0.030 A 
ATOM     20  C   LIG    1        5.817  -1.905  -2.671  0.00  0.00    -0.030 A 
BRANCH  16  23
ATOM     21  C   LIG    1       10.277  -2.829  -2.698  0.00  0.00    +0.150 C 
ATOM     22  C   LIG    1        9.161  -3.834  -2.579  0.00  0.00    +0.120 A 
ATOM     23  C   LIG    1        7.824  -3.556  -2.569  0.00  0.00    -0.190 A 
ATOM     24  C   LIG    1        7.137  -4.780  -2.448  0.00  0.00    +0.270 A 
ATOM     25  N   LIG    1        8.024  -5.738  -2.384  0.00  0.00    -0.290 NA
ATOM     26  N   LIG    1        9.301  -5.168  -2.461  0.00  0.00    -0.370 N 
ATOM     27  C   LIG    1       10.570  -5.899  -2.426  0.00  0.00    +0.360 C 
ENDBRANCH  16  23
ENDBRANCH  15  19
ENDBRANCH   1  15
TORSDOF 4
