REMARK  Name = ZINCpk00000xIkHR.0
REMARK                            x       y       z     vdW  Elec       q    Type
REMARK                         _______ _______ _______ _____ _____    ______ ____
ROOT
ATOM      1  O   LIG    1        0.002  -0.004   0.013  0.00  0.00    -0.480 OA
ATOM      2  C   LIG    1       -0.014   1.209   0.011  0.00  0.00    +0.520 C 
ATOM      3  N   LIG    1        1.143   1.898   0.001  0.00  0.00    -0.670 N 
ATOM      4  H   LIG    1        1.131   2.866  -0.068  0.00  0.00    +0.420 HD
ENDROOT
BRANCH   3   5
ATOM      5  C   LIG    1        2.365   1.218   0.092  0.00  0.00    +0.170 A 
ATOM      6  C   LIG    1        2.513  -0.025  -0.508  0.00  0.00    +0.060 A 
ATOM      7  C   LIG    1        3.717  -0.698  -0.420  0.00  0.00    +0.090 A 
ATOM      8  C   LIG    1        4.780  -0.133   0.266  0.00  0.00    +0.010 A 
ATOM      9  O   LIG    1        6.049  -0.582   0.495  0.00  0.00    -0.280 OA
ATOM     10  C   LIG    1        6.548   0.214   1.587  0.00  0.00    +0.570 C 
ATOM     11  O   LIG    1        5.812   1.446   1.475  0.00  0.00    -0.290 OA
ATOM     12  F   LIG    1        7.920   0.442   1.442  0.00  0.00    -0.120 F 
ATOM     13  F   LIG    1        6.281  -0.409   2.811  0.00  0.00    -0.150 F 
ATOM     14  C   LIG    1        4.634   1.115   0.869  0.00  0.00    +0.050 A 
ATOM     15  C   LIG    1        3.429   1.790   0.776  0.00  0.00    +0.040 A 
ENDBRANCH   3   5
BRANCH   2  16
ATOM     16  C   LIG    1       -1.330   1.945   0.012  0.00  0.00    +0.270 C 
BRANCH  16  17
ATOM     17  O   LIG    1       -2.420   0.986   0.016  0.00  0.00    -0.300 OA
BRANCH  17  18
ATOM     18  C   LIG    1       -3.673   1.485   0.018  0.00  0.00    +0.530 C 
ATOM     19  O   LIG    1       -3.849   2.688   0.016  0.00  0.00    -0.510 OA
BRANCH  18  20
ATOM     20  C   LIG    1       -4.826   0.574   0.022  0.00  0.00    -0.270 A 
ATOM     21  C   LIG    1       -6.127   1.076   0.024  0.00  0.00    +0.230 A 
ATOM     22  C   LIG    1       -7.196   0.181   0.027  0.00  0.00    -0.100 A 
ATOM     23  C   LIG    1       -6.964  -1.157   0.029  0.00  0.00    +0.370 A 
ATOM     24  N   LIG    1       -5.704  -1.652   0.027  0.00  0.00    -0.600 N 
ATOM     25  H   LIG    1       -5.569  -2.613   0.028  0.00  0.00    +0.420 HD
ATOM     26  C   LIG    1       -4.636  -0.833   0.018  0.00  0.00    +0.530 A 
ATOM     27  O   LIG    1       -3.509  -1.297   0.011  0.00  0.00    -0.500 OA
ENDBRANCH  18  20
ENDBRANCH  17  18
ENDBRANCH  16  17
ENDBRANCH   2  16
TORSDOF 5
