REMARK  Name = ZINCvU0000000I18.0
REMARK                            x       y       z     vdW  Elec       q    Type
REMARK                         _______ _______ _______ _____ _____    ______ ____
ROOT
ATOM      1  C   LIG    1       -1.236   2.574  -0.008  0.00  0.00    +0.550 C 
ATOM      2  O   LIG    1       -1.151   3.788  -0.010  0.00  0.00    -0.490 OA
ENDROOT
BRANCH   1   9
ATOM      3  C   LIG    1        4.634   2.341  -0.091  0.00  0.00    +0.180 C 
ATOM      4  C   LIG    1        3.672   1.181  -0.075  0.00  0.00    +0.150 A 
ATOM      5  N   LIG    1        4.001  -0.076  -0.079  0.00  0.00    -0.250 NA
ATOM      6  N   LIG    1        2.843  -0.860  -0.061  0.00  0.00    -0.300 N 
ATOM      7  C   LIG    1        1.762  -0.020  -0.045  0.00  0.00    +0.030 A 
ATOM      8  S   LIG    1        0.003   0.001  -0.018  0.00  0.00    +0.260 S 
ATOM      9  C   LIG    1       -0.022   1.756  -0.020  0.00  0.00    -0.270 A 
ATOM     10  C   LIG    1        1.229   2.242  -0.040  0.00  0.00    +0.200 A 
ATOM     11  C   LIG    1        2.245   1.279  -0.054  0.00  0.00    -0.220 A 
BRANCH   6  12
ATOM     12  C   LIG    1        2.798  -2.260  -0.058  0.00  0.00    +0.150 A 
ATOM     13  C   LIG    1        1.805  -2.922   0.652  0.00  0.00    +0.000 A 
ATOM     14  C   LIG    1        1.760  -4.303   0.648  0.00  0.00    +0.050 A 
ATOM     15  C   LIG    1        2.708  -5.025  -0.052  0.00  0.00    +0.010 A 
ATOM     16  C   LIG    1        3.701  -4.369  -0.756  0.00  0.00    +0.040 A 
ATOM     17  C   LIG    1        3.748  -2.988  -0.761  0.00  0.00    +0.030 A 
ENDBRANCH   6  12
ENDBRANCH   1   9
BRANCH   1  18
ATOM     18  O   LIG    1       -2.448   1.983   0.006  0.00  0.00    -0.330 OA
BRANCH  18  19
ATOM     19  C   LIG    1       -3.608   2.856   0.018  0.00  0.00    +0.270 C 
BRANCH  19  20
ATOM     20  C   LIG    1       -4.864   2.023   0.033  0.00  0.00    +0.510 C 
ATOM     21  N   LIG    1       -6.070   2.624   0.045  0.00  0.00    -0.670 N 
ATOM     22  H   LIG    1       -6.131   3.588   0.125  0.00  0.00    +0.410 HD
ATOM     23  O   LIG    1       -4.789   0.813   0.034  0.00  0.00    -0.490 OA
BRANCH  21  24
ATOM     24  C   LIG    1       -7.235   1.855  -0.057  0.00  0.00    +0.150 A 
ATOM     25  C   LIG    1       -7.196   0.610  -0.670  0.00  0.00    +0.010 A 
ATOM     26  C   LIG    1       -8.347  -0.146  -0.769  0.00  0.00    +0.030 A 
ATOM     27  C   LIG    1       -9.539   0.336  -0.260  0.00  0.00    -0.010 A 
ATOM     28  C   LIG    1       -9.582   1.576   0.350  0.00  0.00    +0.030 A 
ATOM     29  C   LIG    1       -8.433   2.334   0.459  0.00  0.00    -0.100 A 
BRANCH  29  30
ATOM     30  C   LIG    1       -8.479   3.683   1.130  0.00  0.00    +0.020 C 
ATOM     31  C   LIG    1       -8.822   3.504   2.610  0.00  0.00    +0.040 C 
ATOM     32  C   LIG    1       -9.547   4.550   0.460  0.00  0.00    +0.030 C 
ENDBRANCH  29  30
ENDBRANCH  21  24
ENDBRANCH  19  20
ENDBRANCH  18  19
ENDBRANCH   1  18
TORSDOF 7
