REMARK  Name = ZINCqH0000000Ahh.0
REMARK                            x       y       z     vdW  Elec       q    Type
REMARK                         _______ _______ _______ _____ _____    ______ ____
ROOT
ATOM      1  C   LIG    1       -2.846   3.631  -4.837  0.00  0.00    +0.170 C 
ENDROOT
BRANCH   1   2
ATOM      2  C   LIG    1       -1.905   3.868  -3.684  0.00  0.00    +0.530 C 
ATOM      3  N   LIG    1       -1.792   2.947  -2.706  0.00  0.00    -0.550 N 
ATOM      4  C   LIG    1       -0.913   3.064  -1.538  0.00  0.00    +0.330 C 
ATOM      5  C   LIG    1       -1.146   1.779  -0.738  0.00  0.00    -0.110 C 
ATOM      6  C   LIG    1       -2.167   1.001  -1.528  0.00  0.00    -0.100 A 
ATOM      7  C   LIG    1       -2.759  -0.226  -1.299  0.00  0.00    +0.050 A 
ATOM      8  C   LIG    1       -3.685  -0.730  -2.193  0.00  0.00    -0.010 A 
ATOM      9  C   LIG    1       -4.019  -0.002  -3.320  0.00  0.00    +0.050 A 
ATOM     10  C   LIG    1       -3.432   1.223  -3.554  0.00  0.00    -0.020 A 
ATOM     11  C   LIG    1       -0.013   1.086   0.008  0.00  0.00    +0.050 C 
ATOM     12  C   LIG    1       -1.137   1.774   0.787  0.00  0.00    +0.050 C 
ATOM     13  C   LIG    1       -2.496   1.739  -2.657  0.00  0.00    +0.150 A 
ATOM     14  O   LIG    1       -1.249   4.887  -3.636  0.00  0.00    -0.490 OA
ENDBRANCH   1   2
BRANCH   1  17
ATOM     15  C   LIG    1       -2.912   6.966  -6.304  0.00  0.00    +0.240 A 
ATOM     16  N   LIG    1       -2.993   6.046  -5.395  0.00  0.00    -0.490 NA
ATOM     17  C   LIG    1       -2.785   4.802  -5.784  0.00  0.00    +0.100 A 
ATOM     18  C   LIG    1       -2.510   4.665  -7.083  0.00  0.00    -0.130 A 
ATOM     19  S   LIG    1       -2.540   6.266  -7.818  0.00  0.00    +0.250 S 
BRANCH  15  21
ATOM     20  C   LIG    1       -2.992   9.198  -7.101  0.00  0.00    +0.520 C 
ATOM     21  N   LIG    1       -3.100   8.325  -6.080  0.00  0.00    -0.620 N 
ATOM     22  H   LIG    1       -3.310   8.645  -5.188  0.00  0.00    +0.420 HD
ATOM     23  O   LIG    1       -2.730   8.798  -8.215  0.00  0.00    -0.500 OA
BRANCH  20  25
ATOM     24  C   LIG    1       -3.019  11.434  -8.172  0.00  0.00    +0.080 C 
ATOM     25  C   LIG    1       -3.196  10.671  -6.858  0.00  0.00    -0.080 C 
ATOM     26  C   LIG    1       -2.170  11.167  -5.838  0.00  0.00    +0.060 C 
ATOM     27  C   LIG    1       -4.608  10.908  -6.318  0.00  0.00    +0.060 C 
ENDBRANCH  20  25
ENDBRANCH  15  21
ENDBRANCH   1  17
TORSDOF 4
