REMARK  Name = ZINCqH00000078M4.0
REMARK                            x       y       z     vdW  Elec       q    Type
REMARK                         _______ _______ _______ _____ _____    ______ ____
ROOT
ATOM      1  C   LIG    1       -3.609   1.748  -0.148  0.00  0.00    +0.110 A 
ATOM      2  C   LIG    1       -4.771   0.996  -0.236  0.00  0.00    +0.040 A 
ATOM      3  C   LIG    1       -4.703  -0.385  -0.225  0.00  0.00    +0.010 A 
ATOM      4  C   LIG    1       -3.479  -1.020  -0.132  0.00  0.00    +0.020 A 
ATOM      5  C   LIG    1       -2.315  -0.279  -0.049  0.00  0.00    +0.040 A 
ATOM      6  C   LIG    1       -2.374   1.107  -0.059  0.00  0.00    +0.140 A 
ENDROOT
BRANCH   6   7
ATOM      7  N   LIG    1       -1.196   1.861   0.025  0.00  0.00    -0.680 N 
ATOM      8  H   LIG    1       -1.171   2.763  -0.331  0.00  0.00    +0.400 HD
ATOM      9  C   LIG    1       -0.097   1.332   0.600  0.00  0.00    +0.700 C 
ATOM     10  N   LIG    1        1.068   2.010   0.576  0.00  0.00    -0.740 N 
ATOM     11  H   LIG    1        1.114   2.879   0.149  0.00  0.00    +0.400 HD
ATOM     12  O   LIG    1       -0.156   0.242   1.135  0.00  0.00    -0.570 OA
BRANCH  10  13
ATOM     13  C   LIG    1        2.263   1.432   1.196  0.00  0.00    +0.240 C 
ATOM     14  C   LIG    1        3.223   2.555   1.594  0.00  0.00    +0.040 C 
ATOM     15  C   LIG    1        2.954   0.500   0.199  0.00  0.00    +0.020 C 
ENDBRANCH  10  13
ENDBRANCH   6   7
BRANCH   1  17
ATOM     16  C   LIG    1       -4.726   3.769  -0.725  0.00  0.00    +0.510 C 
ATOM     17  N   LIG    1       -3.676   3.147  -0.153  0.00  0.00    -0.670 N 
ATOM     18  H   LIG    1       -2.967   3.668   0.254  0.00  0.00    +0.410 HD
ATOM     19  O   LIG    1       -5.562   3.124  -1.322  0.00  0.00    -0.510 OA
BRANCH  16  20
ATOM     20  C   LIG    1       -4.862   5.266  -0.621  0.00  0.00    +0.070 C 
BRANCH  20  21
ATOM     21  C   LIG    1       -6.131   5.715  -1.349  0.00  0.00    +0.100 C 
BRANCH  21  25
ATOM     22  C   LIG    1       -6.517   9.961  -1.057  0.00  0.00    +0.130 A 
ATOM     23  C   LIG    1       -5.827   9.397  -2.120  0.00  0.00    -0.020 A 
ATOM     24  C   LIG    1       -5.703   8.024  -2.212  0.00  0.00    +0.060 A 
ATOM     25  C   LIG    1       -6.267   7.212  -1.246  0.00  0.00    -0.120 A 
ATOM     26  C   LIG    1       -6.961   7.771  -0.189  0.00  0.00    +0.060 A 
ATOM     27  C   LIG    1       -7.082   9.143  -0.088  0.00  0.00    -0.080 A 
BRANCH  22  29
ATOM     28  C   LIG    1       -7.365  11.821   0.157  0.00  0.00    +0.250 C 
ATOM     29  O   LIG    1       -6.641  11.311  -0.964  0.00  0.00    -0.320 OA
ENDBRANCH  22  29
ENDBRANCH  21  25
ENDBRANCH  20  21
ENDBRANCH  16  20
ENDBRANCH   1  17
TORSDOF 7
