REMARK  Name = ZINCvU0000000GaZ.0
REMARK                            x       y       z     vdW  Elec       q    Type
REMARK                         _______ _______ _______ _____ _____    ______ ____
ROOT
ATOM      1  O   LIG    1       -2.086  -4.344   0.862  0.00  0.00    -0.510 OA
ATOM      2  C   LIG    1       -2.175  -3.510  -0.018  0.00  0.00    +0.570 C 
ATOM      3  N   LIG    1       -1.626  -2.291   0.152  0.00  0.00    -0.600 N 
ATOM      4  C   LIG    1       -0.982  -1.930   1.423  0.00  0.00    +0.280 C 
ATOM      5  C   LIG    1       -1.601  -0.627   1.937  0.00  0.00    +0.020 C 
ATOM      6  C   LIG    1       -1.494   0.447   0.852  0.00  0.00    +0.040 C 
ATOM      7  C   LIG    1       -2.272  -0.001  -0.389  0.00  0.00    +0.020 C 
ATOM      8  C   LIG    1       -1.660  -1.297  -0.929  0.00  0.00    +0.260 C 
ENDROOT
BRANCH   6   9
ATOM      9  C   LIG    1       -2.072   1.740   1.366  0.00  0.00    -0.090 A 
ATOM     10  C   LIG    1       -3.397   1.797   1.758  0.00  0.00    +0.020 A 
ATOM     11  C   LIG    1       -3.927   2.980   2.235  0.00  0.00    -0.010 A 
ATOM     12  C   LIG    1       -3.132   4.114   2.311  0.00  0.00    +0.100 A 
ATOM     13  C   LIG    1       -1.805   4.056   1.912  0.00  0.00    -0.010 A 
ATOM     14  C   LIG    1       -1.278   2.869   1.441  0.00  0.00    +0.030 A 
BRANCH  12  15
ATOM     15  O   LIG    1       -3.653   5.281   2.774  0.00  0.00    -0.500 OA
ATOM     16  H   LIG    1       -4.041   5.839   2.087  0.00  0.00    +0.390 HD
ENDBRANCH  12  15
ENDBRANCH   6   9
BRANCH   2  17
ATOM     17  C   LIG    1       -2.882  -3.832  -1.272  0.00  0.00    -0.160 A 
ATOM     18  C   LIG    1       -2.445  -3.292  -2.483  0.00  0.00    +0.180 A 
ATOM     19  C   LIG    1       -3.108  -3.600  -3.652  0.00  0.00    -0.090 A 
ATOM     20  C   LIG    1       -4.212  -4.436  -3.630  0.00  0.00    +0.170 A 
ATOM     21  C   LIG    1       -4.658  -4.973  -2.438  0.00  0.00    -0.040 A 
ATOM     22  C   LIG    1       -4.000  -4.677  -1.253  0.00  0.00    +0.230 A 
BRANCH  19  23
ATOM     23  N   LIG    1       -2.640  -3.031  -4.936  0.00  0.00    +0.030 N 
ATOM     24  O   LIG    1       -1.669  -2.296  -4.959  0.00  0.00    -0.160 OA
ATOM     25  O   LIG    1       -3.227  -3.298  -5.970  0.00  0.00    -0.150 OA
ENDBRANCH  19  23
BRANCH  22  26
ATOM     26  O   LIG    1       -4.438  -5.203  -0.082  0.00  0.00    -0.220 OA
BRANCH  26  27
ATOM     27  C   LIG    1       -5.442  -6.117  -0.128  0.00  0.00    +0.060 A 
ATOM     28  C   LIG    1       -6.697  -5.798   0.371  0.00  0.00    +0.030 A 
ATOM     29  C   LIG    1       -7.717  -6.727   0.318  0.00  0.00    +0.040 A 
ATOM     30  C   LIG    1       -7.487  -7.978  -0.224  0.00  0.00    +0.020 A 
ATOM     31  C   LIG    1       -6.236  -8.301  -0.717  0.00  0.00    +0.040 A 
ATOM     32  C   LIG    1       -5.213  -7.374  -0.670  0.00  0.00    +0.000 A 
ENDBRANCH  26  27
ENDBRANCH  22  26
ENDBRANCH   2  17
TORSDOF 6
