REMARK  Name = ZINCrD0000071WQ3.0
REMARK                            x       y       z     vdW  Elec       q    Type
REMARK                         _______ _______ _______ _____ _____    ______ ____
ROOT
ATOM      1  N   LIG    1        0.002  -0.004   0.002  0.00  0.00    -0.670 N 
ATOM      2  H   LIG    1        0.852  -0.470   0.040  0.00  0.00    +0.420 HD
ATOM      3  C   LIG    1       -0.026   1.334  -0.160  0.00  0.00    +0.520 C 
ATOM      4  O   LIG    1       -1.086   1.904  -0.306  0.00  0.00    -0.490 OA
ENDROOT
BRANCH   1   8
ATOM      5  C   LIG    1       -3.560  -2.137   0.339  0.00  0.00    -0.140 A 
ATOM      6  C   LIG    1       -2.451  -2.718  -0.285  0.00  0.00    +0.110 A 
ATOM      7  C   LIG    1       -1.276  -2.010  -0.394  0.00  0.00    -0.020 A 
ATOM      8  C   LIG    1       -1.190  -0.718   0.115  0.00  0.00    +0.190 A 
ATOM      9  C   LIG    1       -2.289  -0.139   0.741  0.00  0.00    +0.000 A 
ATOM     10  C   LIG    1       -3.470  -0.839   0.849  0.00  0.00    +0.100 A 
BRANCH   5  11
ATOM     11  C   LIG    1       -4.821  -2.892   0.459  0.00  0.00    +0.510 C 
ATOM     12  O   LIG    1       -4.897  -4.021   0.015  0.00  0.00    -0.510 OA
BRANCH  11  13
ATOM     13  O   LIG    1       -5.888  -2.331   1.060  0.00  0.00    -0.350 OA
BRANCH  13  15
ATOM     14  C   LIG    1       -8.191  -2.334   1.852  0.00  0.00    +0.070 C 
ATOM     15  C   LIG    1       -7.096  -3.133   1.142  0.00  0.00    +0.200 C 
ENDBRANCH  13  15
ENDBRANCH  11  13
ENDBRANCH   5  11
ENDBRANCH   1   8
BRANCH   3  16
ATOM     16  C   LIG    1        1.260   2.119  -0.166  0.00  0.00    +0.270 C 
BRANCH  16  17
ATOM     17  O   LIG    1        0.965   3.529  -0.355  0.00  0.00    -0.330 OA
BRANCH  17  18
ATOM     18  C   LIG    1        2.014   4.374  -0.384  0.00  0.00    +0.520 C 
ATOM     19  O   LIG    1        3.143   3.946  -0.255  0.00  0.00    -0.480 OA
BRANCH  18  20
ATOM     20  C   LIG    1        1.790   5.819  -0.573  0.00  0.00    -0.150 A 
ATOM     21  C   LIG    1        0.493   6.315  -0.727  0.00  0.00    +0.150 A 
ATOM     22  C   LIG    1        0.291   7.669  -0.899  0.00  0.00    -0.090 A 
ATOM     23  C   LIG    1        1.370   8.538  -0.928  0.00  0.00    +0.120 A 
ATOM     24  C   LIG    1        2.657   8.060  -0.782  0.00  0.00    -0.060 A 
ATOM     25 CL   LIG    1       -1.321   8.285  -1.085  0.00  0.00    -0.060 Cl
ATOM     26  C   LIG    1        2.878   6.703  -0.604  0.00  0.00    +0.200 A 
BRANCH  26  27
ATOM     27  O   LIG    1        4.143   6.232  -0.460  0.00  0.00    -0.280 OA
ATOM     28  C   LIG    1        5.201   7.191  -0.502  0.00  0.00    +0.250 C 
ENDBRANCH  26  27
ENDBRANCH  18  20
ENDBRANCH  17  18
ENDBRANCH  16  17
ENDBRANCH   3  16
TORSDOF 9
