REMARK  Name = ZINCrD00000pBNQ9.1
REMARK                            x       y       z     vdW  Elec       q    Type
REMARK                         _______ _______ _______ _____ _____    ______ ____
ROOT
ATOM      1  C   LIG    1        3.844   2.253   1.570  0.00  0.00    +0.130 A 
ATOM      2  C   LIG    1        4.086   3.599   1.786  0.00  0.00    -0.040 A 
ATOM      3  C   LIG    1        3.023   4.474   1.906  0.00  0.00    +0.030 A 
ATOM      4  C   LIG    1        1.729   4.001   1.814  0.00  0.00    +0.060 A 
ATOM      5  C   LIG    1        1.481   2.648   1.601  0.00  0.00    -0.070 A 
ATOM      6  C   LIG    1        0.044   2.205   1.522  0.00  0.00    +0.090 C 
ATOM      7  C   LIG    1       -0.071   0.851   0.825  0.00  0.00    +0.290 C 
ATOM      8  N   LIG    1        0.933  -0.049   1.416  0.00  0.00    -0.610 N 
ATOM      9  C   LIG    1        0.570  -1.150   2.103  0.00  0.00    +0.540 C 
ATOM     10  O   LIG    1        1.417  -1.922   2.502  0.00  0.00    -0.520 OA
ATOM     11  C   LIG    1        2.345   0.302   1.226  0.00  0.00    +0.360 C 
ATOM     12  F   LIG    1        0.692   4.860   1.933  0.00  0.00    -0.140 F 
ATOM     13  C   LIG    1        2.539   1.777   1.473  0.00  0.00    -0.100 A 
ENDROOT
BRANCH   9  14
ATOM     14  C   LIG    1       -0.887  -1.423   2.374  0.00  0.00    +0.230 C 
ATOM     15  N   LIG    1       -1.020  -2.088   3.674  0.00  0.00    -0.650 NA
ATOM     16  H   LIG    1       -0.385  -2.869   3.748  0.00  0.00    +0.360 HD
ATOM     17  C   LIG    1       -2.411  -2.518   3.886  0.00  0.00    +0.110 C 
ATOM     18  C   LIG    1       -2.703  -3.693   2.953  0.00  0.00    +0.060 C 
ATOM     19  C   LIG    1       -2.292  -3.346   1.545  0.00  0.00    -0.060 A 
ATOM     20  C   LIG    1       -2.784  -4.117   0.503  0.00  0.00    +0.000 A 
ATOM     21  C   LIG    1       -2.425  -3.838  -0.801  0.00  0.00    +0.020 A 
ATOM     22  C   LIG    1       -1.571  -2.785  -1.069  0.00  0.00    +0.000 A 
ATOM     23  C   LIG    1       -1.083  -2.015  -0.032  0.00  0.00    +0.000 A 
ATOM     24  C   LIG    1       -2.603  -2.957   5.340  0.00  0.00    +0.050 C 
ATOM     25  C   LIG    1       -3.361  -1.361   3.569  0.00  0.00    +0.040 C 
ATOM     26  C   LIG    1       -1.443  -2.293   1.278  0.00  0.00    -0.110 A 
ENDBRANCH   9  14
BRANCH   1  28
ATOM     27  C   LIG    1        6.202   1.943   1.560  0.00  0.00    +0.250 C 
ATOM     28  O   LIG    1        4.888   1.391   1.451  0.00  0.00    -0.310 OA
ENDBRANCH   1  28
TORSDOF 2
