REMARK  Name = ZINCvU0000000Eoe.0
REMARK                            x       y       z     vdW  Elec       q    Type
REMARK                         _______ _______ _______ _____ _____    ______ ____
ROOT
ATOM      1  C   LIG    1        6.023   0.052   0.173  0.00  0.00    -0.150 A 
ATOM      2  C   LIG    1        5.783  -1.323   0.191  0.00  0.00    +0.130 A 
ATOM      3  C   LIG    1        6.818  -2.204  -0.046  0.00  0.00    +0.030 A 
ATOM      4  C   LIG    1        8.092  -1.726  -0.303  0.00  0.00    +0.080 A 
ATOM      5  C   LIG    1        8.336  -0.363  -0.322  0.00  0.00    -0.680 A 
ATOM      6 CL   LIG    1        9.389  -2.841  -0.602  0.00  0.00    -0.020 Cl
ATOM      7  C   LIG    1        7.309   0.527  -0.090  0.00  0.00    +0.230 A 
ENDROOT
BRANCH   1  10
ATOM      8  N   LIG    1        3.678   0.539   0.676  0.00  0.00    -0.670 N 
ATOM      9  H   LIG    1        3.523  -0.415   0.763  0.00  0.00    +0.410 HD
ATOM     10  C   LIG    1        4.919   1.001   0.427  0.00  0.00    +0.560 C 
ATOM     11  O   LIG    1        5.131   2.198   0.410  0.00  0.00    -0.500 OA
BRANCH   8  15
ATOM     12  C   LIG    1        0.499   3.209   1.070  0.00  0.00    +0.130 A 
ATOM     13  C   LIG    1        0.560   2.080   1.873  0.00  0.00    -0.040 A 
ATOM     14  C   LIG    1        1.613   1.196   1.743  0.00  0.00    +0.050 A 
ATOM     15  C   LIG    1        2.611   1.436   0.808  0.00  0.00    +0.120 A 
ATOM     16  C   LIG    1        2.549   2.567   0.004  0.00  0.00    +0.080 A 
ATOM     17  C   LIG    1        1.496   3.451   0.135  0.00  0.00    -0.050 A 
ATOM     18 CL   LIG    1        1.419   4.864  -0.870  0.00  0.00    -0.050 Cl
BRANCH  12  20
ATOM     19  C   LIG    1       -1.525   3.771   2.185  0.00  0.00    +0.250 C 
ATOM     20  O   LIG    1       -0.535   4.082   1.203  0.00  0.00    -0.300 OA
ENDBRANCH  12  20
ENDBRANCH   8  15
ENDBRANCH   1  10
BRANCH   5  21
ATOM     21  S   LIG    1        9.961   0.235  -0.649  0.00  0.00    +2.690 S 
ATOM     22  O   LIG    1        9.879   1.653  -0.627  0.00  0.00    -0.930 OA
ATOM     23  O   LIG    1       10.441  -0.498  -1.767  0.00  0.00    -0.920 OA
BRANCH  21  24
ATOM     24  N   LIG    1       10.911  -0.198   0.637  0.00  0.00    -0.930 N 
ATOM     25  C   LIG    1       11.783  -1.375   0.677  0.00  0.00    +0.280 C 
ATOM     26  C   LIG    1       12.444  -1.339   2.065  0.00  0.00    +0.100 C 
ATOM     27  C   LIG    1       11.875  -0.103   2.724  0.00  0.00    -0.130 A 
ATOM     28  C   LIG    1       12.099   0.441   3.974  0.00  0.00    +0.050 A 
ATOM     29  C   LIG    1       11.448   1.600   4.353  0.00  0.00    -0.010 A 
ATOM     30  C   LIG    1       10.570   2.214   3.478  0.00  0.00    +0.050 A 
ATOM     31  C   LIG    1       10.343   1.674   2.230  0.00  0.00    -0.010 A 
ATOM     32  C   LIG    1       11.002   0.507   1.837  0.00  0.00    +0.150 A 
ENDBRANCH  21  24
ENDBRANCH   5  21
TORSDOF 5
