REMARK  Name = ZINCvU0000000EC4.0
REMARK                            x       y       z     vdW  Elec       q    Type
REMARK                         _______ _______ _______ _____ _____    ______ ____
ROOT
ATOM      1  C   LIG    1       -3.522  -2.474   0.615  0.00  0.00    +0.310 C 
ENDROOT
BRANCH   1   2
ATOM      2  N   LIG    1       -2.922  -2.338   1.944  0.00  0.00    -0.610 N 
ATOM      3  C   LIG    1       -3.711  -2.244   3.033  0.00  0.00    +0.540 C 
ATOM      4  O   LIG    1       -4.917  -2.272   2.912  0.00  0.00    -0.510 OA
ATOM      5  C   LIG    1       -1.464  -2.304   2.090  0.00  0.00    +0.280 C 
BRANCH   3   6
ATOM      6  C   LIG    1       -3.093  -2.104   4.401  0.00  0.00    -0.020 C 
ATOM      7  C   LIG    1       -2.636  -3.477   4.897  0.00  0.00    +0.090 C 
BRANCH   6   8
ATOM      8  S   LIG    1       -4.317  -1.424   5.548  0.00  0.00    +0.110 S 
BRANCH   8   9
ATOM      9  C   LIG    1       -3.314  -1.228   6.984  0.00  0.00    +0.070 A 
ATOM     10  N   LIG    1       -3.729  -0.763   8.113  0.00  0.00    -0.440 NA
ATOM     11  C   LIG    1       -2.839  -0.674   9.122  0.00  0.00    +0.090 A 
ATOM     12  C   LIG    1       -3.041  -0.206  10.438  0.00  0.00    +0.080 A 
ATOM     13  C   LIG    1       -2.003  -0.190  11.336  0.00  0.00    +0.040 A 
ATOM     14  C   LIG    1       -0.743  -0.634  10.967  0.00  0.00    +0.040 A 
ATOM     15  C   LIG    1       -0.523  -1.096   9.688  0.00  0.00    +0.060 A 
ATOM     16  C   LIG    1       -1.563  -1.118   8.763  0.00  0.00    -0.170 A 
ATOM     17  S   LIG    1       -1.610  -1.646   7.082  0.00  0.00    +0.060 S 
ENDBRANCH   8   9
ENDBRANCH   6   8
ENDBRANCH   3   6
ENDBRANCH   1   2
BRANCH   1  18
ATOM     18  C   LIG    1       -3.750  -1.086   0.014  0.00  0.00    +0.230 C 
BRANCH  18  19
ATOM     19  N   LIG    1       -2.489  -0.341   0.012  0.00  0.00    -0.720 N 
ATOM     20  H   LIG    1       -1.644  -0.817   0.005  0.00  0.00    +0.390 HD
ATOM     21  C   LIG    1       -2.502   1.007   0.019  0.00  0.00    +0.550 C 
ATOM     22  O   LIG    1       -3.561   1.604   0.028  0.00  0.00    -0.500 OA
BRANCH  21  23
ATOM     23  C   LIG    1       -1.230   1.758   0.017  0.00  0.00    -0.130 A 
ATOM     24  C   LIG    1       -0.013   1.076   0.008  0.00  0.00    +0.070 A 
ATOM     25  C   LIG    1        1.172   1.783   0.000  0.00  0.00    +0.030 A 
ATOM     26  C   LIG    1        1.156   3.166   0.008  0.00  0.00    +0.100 A 
ATOM     27  C   LIG    1       -0.046   3.851   0.023  0.00  0.00    -0.100 A 
ATOM     28 BR   LIG    1       -0.055   5.742   0.034  0.00  0.00    -0.020 Br
ATOM     29  C   LIG    1       -1.240   3.156   0.030  0.00  0.00    +0.030 A 
ATOM     30 CL   LIG    1       -2.748   4.015   0.049  0.00  0.00    -0.000 Cl
ENDBRANCH  21  23
ENDBRANCH  18  19
BRANCH  18  32
ATOM     31  C   LIG    1       -4.607   0.152  -1.980  0.00  0.00    +0.020 C 
ATOM     32  C   LIG    1       -4.260  -1.229  -1.422  0.00  0.00    +0.010 C 
ENDBRANCH  18  32
ENDBRANCH   1  18
TORSDOF 8
