REMARK  Name = ZINCb70000002ie6.0
REMARK                            x       y       z     vdW  Elec       q    Type
REMARK                         _______ _______ _______ _____ _____    ______ ____
ROOT
ATOM      1  C   LIG    1       -2.762   3.317   4.722  0.00  0.00    +0.150 C 
ATOM      2  C   LIG    1       -2.038   2.832   3.492  0.00  0.00    +0.220 A 
ATOM      3  C   LIG    1       -0.689   2.730   3.506  0.00  0.00    -0.090 A 
ATOM      4  C   LIG    1       -0.010   2.275   2.366  0.00  0.00    +0.210 A 
ATOM      5  C   LIG    1       -0.723   1.951   1.250  0.00  0.00    -0.330 A 
ATOM      6  C   LIG    1       -2.123   2.069   1.270  0.00  0.00    +0.520 A 
ATOM      7  O   LIG    1       -2.775   1.778   0.280  0.00  0.00    -0.550 OA
ATOM      8  N   LIG    1       -2.747   2.503   2.382  0.00  0.00    -0.490 N 
ATOM      9  C   LIG    1       -4.207   2.623   2.393  0.00  0.00    +0.330 C 
ENDROOT
BRANCH   5  10
ATOM     10  C   LIG    1       -0.018   1.465   0.010  0.00  0.00    +0.360 C 
BRANCH  10  11
ATOM     11  N   LIG    1        0.002  -0.004   0.002  0.00  0.00    -0.640 N 
ATOM     12  H   LIG    1        0.474  -0.330  -0.828  0.00  0.00    +0.440 HD
ATOM     13  H   LIG    1       -0.945  -0.353   0.009  0.00  0.00    +0.440 HD
ATOM     14  H   LIG    1        0.490  -0.338   0.820  0.00  0.00    +0.430 HD
ENDBRANCH  10  11
ENDBRANCH   5  10
TORSDOF 2
