REMARK  Name = ZINCpe00000MJMqc.0
REMARK                            x       y       z     vdW  Elec       q    Type
REMARK                         _______ _______ _______ _____ _____    ______ ____
ROOT
ATOM      1  N   LIG    1       -0.816   7.301  -2.435  0.00  0.00    -0.640 N 
ATOM      2  H   LIG    1       -0.008   7.758  -2.153  0.00  0.00    +0.410 HD
ATOM      3  C   LIG    1       -1.063   6.046  -2.010  0.00  0.00    +0.500 C 
ATOM      4  O   LIG    1       -2.074   5.475  -2.363  0.00  0.00    -0.520 OA
ENDROOT
BRANCH   1   7
ATOM      5  C   LIG    1       -0.470  10.161  -3.519  0.00  0.00    +0.140 C 
ATOM      6  C   LIG    1       -1.608   9.207  -3.782  0.00  0.00    +0.050 A 
ATOM      7  C   LIG    1       -1.730   7.949  -3.287  0.00  0.00    +0.000 A 
ATOM      8  C   LIG    1       -2.932   7.412  -3.770  0.00  0.00    +0.250 A 
ATOM      9  N   LIG    1       -3.507   8.308  -4.529  0.00  0.00    -0.280 NA
ATOM     10  N   LIG    1       -2.695   9.449  -4.559  0.00  0.00    -0.360 N 
BRANCH  10  11
ATOM     11  C   LIG    1       -2.972  10.686  -5.293  0.00  0.00    +0.270 C 
ATOM     12  C   LIG    1       -4.293  11.288  -4.802  0.00  0.00    +0.010 C 
ATOM     13  C   LIG    1       -4.614  12.536  -5.630  0.00  0.00    +0.210 C 
ATOM     14  O   LIG    1       -4.675  12.187  -7.014  0.00  0.00    -0.380 OA
ATOM     15  C   LIG    1       -3.453  11.663  -7.538  0.00  0.00    +0.210 C 
ATOM     16  C   LIG    1       -3.086  10.380  -6.789  0.00  0.00    +0.010 C 
ENDBRANCH  10  11
ENDBRANCH   1   7
BRANCH   3  17
ATOM     17  C   LIG    1       -0.085   5.352  -1.098  0.00  0.00    +0.330 C 
BRANCH  17  18
ATOM     18  N   LIG    1       -0.578   4.009  -0.783  0.00  0.00    -0.590 N 
ATOM     19  C   LIG    1       -1.442   3.804   0.391  0.00  0.00    +0.280 C 
ATOM     20  C   LIG    1       -0.640   3.072   1.468  0.00  0.00    +0.010 C 
ATOM     21  C   LIG    1       -0.711   1.569   1.266  0.00  0.00    +0.030 C 
ATOM     22  C   LIG    1       -0.013   1.086   0.008  0.00  0.00    +0.050 C 
ATOM     23  C   LIG    1       -0.741   1.587  -1.242  0.00  0.00    +0.180 C 
ATOM     24  C   LIG    1       -0.242   2.980  -1.562  0.00  0.00    +0.490 C 
ATOM     25  O   LIG    1        0.466   3.161  -2.530  0.00  0.00    -0.530 OA
BRANCH  23  26
ATOM     26  O   LIG    1       -0.470   0.712  -2.338  0.00  0.00    -0.540 OA
ATOM     27  H   LIG    1       -0.901   0.971  -3.164  0.00  0.00    +0.390 HD
ENDBRANCH  23  26
ENDBRANCH  17  18
ENDBRANCH   3  17
TORSDOF 5
