REMARK  Name = ZINCrD000000CriT.0
REMARK                            x       y       z     vdW  Elec       q    Type
REMARK                         _______ _______ _______ _____ _____    ______ ____
ROOT
ATOM      1  C   LIG    1       -1.230   1.759   0.017  0.00  0.00    -0.120 A 
ATOM      2  C   LIG    1       -0.013   1.076   0.008  0.00  0.00    +0.090 A 
ATOM      3  C   LIG    1        1.172   1.783   0.000  0.00  0.00    +0.030 A 
ATOM      4  C   LIG    1        1.155   3.167   0.008  0.00  0.00    -0.080 A 
ATOM      5  C   LIG    1       -0.048   3.850   0.023  0.00  0.00    +0.030 A 
ATOM      6  C   LIG    1       -1.240   3.155   0.030  0.00  0.00    +0.080 A 
ENDROOT
BRANCH   1   8
ATOM      7  O   LIG    1       -2.491  -0.206   0.014  0.00  0.00    -0.500 OA
ATOM      8  C   LIG    1       -2.502   1.008   0.020  0.00  0.00    +0.510 C 
BRANCH   8   9
ATOM      9  O   LIG    1       -3.675   1.670   0.029  0.00  0.00    -0.340 OA
BRANCH   9  10
ATOM     10  C   LIG    1       -4.886   0.868   0.031  0.00  0.00    +0.360 C 
BRANCH  10  11
ATOM     11  C   LIG    1       -6.089   1.774   0.041  0.00  0.00    +0.070 A 
ATOM     12  N   LIG    1       -6.666   2.217  -1.011  0.00  0.00    -0.440 NA
ATOM     13  C   LIG    1       -7.737   3.017  -0.852  0.00  0.00    +0.080 A 
ATOM     14  C   LIG    1       -8.553   3.633  -1.822  0.00  0.00    +0.080 A 
ATOM     15  C   LIG    1       -9.599   4.420  -1.446  0.00  0.00    +0.030 A 
ATOM     16  C   LIG    1       -9.881   4.631  -0.104  0.00  0.00    +0.050 A 
ATOM     17  C   LIG    1       -9.102   4.042   0.866  0.00  0.00    +0.060 A 
ATOM     18  C   LIG    1       -8.028   3.234   0.500  0.00  0.00    -0.180 A 
ATOM     19  S   LIG    1       -6.849   2.345   1.459  0.00  0.00    +0.140 S 
ENDBRANCH  10  11
ENDBRANCH   9  10
ENDBRANCH   8   9
ENDBRANCH   1   8
BRANCH   4  20
ATOM     20  C   LIG    1        2.452   3.933  -0.001  0.00  0.00    +0.350 C 
BRANCH  20  21
ATOM     21  N   LIG    1        2.860   4.188  -1.385  0.00  0.00    -0.570 N 
ATOM     22  C   LIG    1        3.638   3.348  -2.077  0.00  0.00    +0.530 C 
ATOM     23  C   LIG    1        3.863   3.906  -3.465  0.00  0.00    +0.080 C 
ATOM     24  C   LIG    1        3.079   5.235  -3.451  0.00  0.00    +0.080 C 
ATOM     25  O   LIG    1        4.090   2.303  -1.659  0.00  0.00    -0.480 OA
ATOM     26  C   LIG    1        2.489   5.284  -2.059  0.00  0.00    +0.530 C 
ATOM     27  O   LIG    1        1.792   6.174  -1.623  0.00  0.00    -0.480 OA
ENDBRANCH  20  21
ENDBRANCH   4  20
TORSDOF 6
