REMARK  Name = ZINCvU0000000CWh.0
REMARK                            x       y       z     vdW  Elec       q    Type
REMARK                         _______ _______ _______ _____ _____    ______ ____
ROOT
ATOM      1  C   LIG    1       -0.013   1.076   0.008  0.00  0.00    +0.410 C 
ATOM      2  C   LIG    1       -1.218   1.707  -0.202  0.00  0.00    -0.270 C 
ATOM      3  C   LIG    1       -1.276   3.134  -0.541  0.00  0.00    +0.570 C 
ATOM      4  N   LIG    1       -2.455   3.743  -0.744  0.00  0.00    -0.510 N 
ATOM      5  C   LIG    1       -3.632   3.102  -0.653  0.00  0.00    +0.570 C 
ATOM      6  C   LIG    1       -3.694   1.673  -0.320  0.00  0.00    -0.160 A 
ATOM      7  C   LIG    1       -4.913   1.002  -0.224  0.00  0.00    +0.110 A 
ATOM      8  C   LIG    1       -4.928  -0.344   0.075  0.00  0.00    +0.000 A 
ATOM      9  C   LIG    1       -3.746  -1.034   0.297  0.00  0.00    +0.060 A 
ATOM     10  C   LIG    1       -2.530  -0.387   0.212  0.00  0.00    -0.010 A 
ATOM     11  O   LIG    1       -4.664   3.716  -0.849  0.00  0.00    -0.480 OA
ATOM     12  O   LIG    1       -0.243   3.772  -0.639  0.00  0.00    -0.490 OA
ATOM     13  C   LIG    1       -2.493   0.967  -0.099  0.00  0.00    +0.040 A 
ENDROOT
BRANCH   4  14
ATOM     14  C   LIG    1       -2.458   5.107  -1.066  0.00  0.00    +0.130 A 
ATOM     15  C   LIG    1       -2.395   5.509  -2.393  0.00  0.00    +0.050 A 
ATOM     16  C   LIG    1       -2.404   6.854  -2.707  0.00  0.00    +0.030 A 
ATOM     17  C   LIG    1       -2.465   7.801  -1.701  0.00  0.00    +0.050 A 
ATOM     18  C   LIG    1       -2.522   7.404  -0.377  0.00  0.00    +0.040 A 
ATOM     19  C   LIG    1       -2.519   6.060  -0.056  0.00  0.00    -0.010 A 
ATOM     20 CL   LIG    1       -2.591   5.563   1.606  0.00  0.00    -0.060 Cl
ENDBRANCH   4  14
BRANCH   1  21
ATOM     21  N   LIG    1        1.133   1.806   0.087  0.00  0.00    -0.580 N 
ATOM     22  H   LIG    1        1.092   2.775   0.076  0.00  0.00    +0.450 HD
BRANCH  21  24
ATOM     23  C   LIG    1        3.568   1.806   0.263  0.00  0.00    -0.210 A 
ATOM     24  C   LIG    1        2.356   1.166   0.184  0.00  0.00    +0.090 A 
ATOM     25  S   LIG    1        2.566  -0.525   0.213  0.00  0.00    +0.200 S 
ATOM     26  C   LIG    1        4.310  -0.385   0.343  0.00  0.00    -0.060 A 
ATOM     27  C   LIG    1        4.681   0.887   0.360  0.00  0.00    +0.100 A 
BRANCH  23  28
ATOM     28  C   LIG    1        3.717   3.263   0.255  0.00  0.00    +0.530 C 
ATOM     29  O   LIG    1        2.735   3.975   0.174  0.00  0.00    -0.500 OA
BRANCH  28  30
ATOM     30  O   LIG    1        4.945   3.815   0.337  0.00  0.00    -0.350 OA
BRANCH  30  32
ATOM     31  C   LIG    1        6.481   5.703   0.423  0.00  0.00    +0.070 C 
ATOM     32  C   LIG    1        5.018   5.265   0.322  0.00  0.00    +0.200 C 
ENDBRANCH  30  32
ENDBRANCH  28  30
ENDBRANCH  23  28
ENDBRANCH  21  24
ENDBRANCH   1  21
TORSDOF 6
