REMARK  Name = ZINCrg000000se5s.0
REMARK                            x       y       z     vdW  Elec       q    Type
REMARK                         _______ _______ _______ _____ _____    ______ ____
ROOT
ATOM      1  C   LIG    1       -0.003   1.454  -0.156  0.00  0.00    +0.370 C 
ENDROOT
BRANCH   1   6
ATOM      2  C   LIG    1        0.027  -2.076  -1.310  0.00  0.00    +0.220 C 
ATOM      3  N   LIG    1        0.120  -2.161   0.158  0.00  0.00    -0.710 N 
ATOM      4  H   LIG    1        0.176  -2.970   0.689  0.00  0.00    +0.440 HD
ATOM      5  C   LIG    1        0.113  -0.896   0.618  0.00  0.00    +0.710 C 
ATOM      6  N   LIG    1        0.026   0.005  -0.367  0.00  0.00    -0.560 N 
ATOM      7  O   LIG    1        0.178  -0.606   1.796  0.00  0.00    -0.530 OA
ATOM      8  C   LIG    1        1.264  -2.691  -1.965  0.00  0.00    +0.110 C 
ATOM      9  C   LIG    1       -0.038  -0.585  -1.577  0.00  0.00    +0.540 C 
ATOM     10  O   LIG    1       -0.126  -0.037  -2.655  0.00  0.00    -0.440 OA
BRANCH   2  15
ATOM     11  C   LIG    1       -4.023  -3.169  -4.111  0.00  0.00    +0.170 C 
ATOM     12  C   LIG    1       -2.986  -3.231  -3.019  0.00  0.00    +0.010 A 
ATOM     13  C   LIG    1       -2.956  -4.123  -2.013  0.00  0.00    -0.060 A 
ATOM     14  C   LIG    1       -1.821  -3.817  -1.228  0.00  0.00    -0.020 A 
ATOM     15  C   LIG    1       -1.225  -2.756  -1.801  0.00  0.00    -0.040 A 
ATOM     16  O   LIG    1       -1.938  -2.402  -2.883  0.00  0.00    -0.160 OA
ENDBRANCH   2  15
ENDBRANCH   1   6
BRANCH   1  17
ATOM     17  C   LIG    1        1.405   1.993  -0.172  0.00  0.00    +0.500 C 
ATOM     18  N   LIG    1        1.624   3.311   0.004  0.00  0.00    -0.670 N 
ATOM     19  H   LIG    1        0.875   3.923   0.065  0.00  0.00    +0.420 HD
ATOM     20  O   LIG    1        2.340   1.240  -0.343  0.00  0.00    -0.500 OA
BRANCH  18  21
ATOM     21  C   LIG    1        2.929   3.793   0.100  0.00  0.00    +0.180 A 
ATOM     22  C   LIG    1        3.915   3.016   0.699  0.00  0.00    +0.010 A 
ATOM     23  C   LIG    1        5.205   3.487   0.790  0.00  0.00    +0.070 A 
ATOM     24  C   LIG    1        5.522   4.753   0.289  0.00  0.00    -0.160 A 
ATOM     25  C   LIG    1        4.528   5.534  -0.307  0.00  0.00    +0.100 A 
ATOM     26  C   LIG    1        3.241   5.054  -0.399  0.00  0.00    -0.010 A 
BRANCH  24  27
ATOM     27  C   LIG    1        6.903   5.264   0.390  0.00  0.00    +0.570 C 
ATOM     28  O   LIG    1        7.177   6.365  -0.046  0.00  0.00    -0.540 OA
ATOM     29  N   LIG    1        7.860   4.510   0.965  0.00  0.00    -0.850 N 
ATOM     30  H   LIG    1        8.768   4.845   1.031  0.00  0.00    +0.410 HD
ATOM     31  H   LIG    1        7.641   3.631   1.313  0.00  0.00    +0.400 HD
ENDBRANCH  24  27
ENDBRANCH  18  21
ENDBRANCH   1  17
TORSDOF 5
