REMARK  Name = ZINCrH00000No4PS.0
REMARK                            x       y       z     vdW  Elec       q    Type
REMARK                         _______ _______ _______ _____ _____    ______ ____
ROOT
ATOM      1  N   LIG    1        3.078   1.091   1.446  0.00  0.00    -0.580 N 
ATOM      2  C   LIG    1        2.808   0.109   2.328  0.00  0.00    +0.510 C 
ATOM      3  O   LIG    1        3.074   0.260   3.503  0.00  0.00    -0.490 OA
ENDROOT
BRANCH   2   4
ATOM      4  C   LIG    1        2.184  -1.165   1.861  0.00  0.00    +0.510 C 
ATOM      5  N   LIG    1        1.859  -2.123   2.751  0.00  0.00    -0.670 N 
ATOM      6  H   LIG    1        2.030  -1.985   3.696  0.00  0.00    +0.410 HD
ATOM      7  O   LIG    1        1.969  -1.338   0.679  0.00  0.00    -0.500 OA
BRANCH   5   8
ATOM      8  C   LIG    1        1.246  -3.372   2.293  0.00  0.00    +0.210 C 
ATOM      9  C   LIG    1        0.065  -3.917   3.098  0.00  0.00    +0.020 C 
ATOM     10  C   LIG    1        1.426  -4.612   3.172  0.00  0.00    +0.030 C 
ENDBRANCH   5   8
ENDBRANCH   2   4
BRANCH   1  11
ATOM     11  C   LIG    1        3.828   2.275   1.873  0.00  0.00    +0.420 C 
BRANCH  11  15
ATOM     12  C   LIG    1        1.308   5.047   3.142  0.00  0.00    -0.210 A 
ATOM     13  C   LIG    1        1.725   4.245   4.126  0.00  0.00    +0.210 A 
ATOM     14  N   LIG    1        2.563   3.303   3.745  0.00  0.00    -0.440 NA
ATOM     15  C   LIG    1        2.885   3.271   2.496  0.00  0.00    +0.020 A 
ATOM     16  S   LIG    1        2.079   4.518   1.648  0.00  0.00    +0.120 S 
BRANCH  12  18
ATOM     17  C   LIG    1        1.132   7.480   3.588  0.00  0.00    +0.040 C 
ATOM     18  C   LIG    1        0.349   6.201   3.284  0.00  0.00    +0.120 C 
ENDBRANCH  12  18
ENDBRANCH  11  15
ENDBRANCH   1  11
BRANCH   1  19
ATOM     19  C   LIG    1        2.619   0.976   0.059  0.00  0.00    +0.360 C 
BRANCH  19  20
ATOM     20  C   LIG    1        3.787   0.635  -0.830  0.00  0.00    -0.090 A 
ATOM     21  C   LIG    1        3.963   1.188  -2.013  0.00  0.00    -0.020 A 
ATOM     22  S   LIG    1        5.406   0.575  -2.798  0.00  0.00    +0.090 S 
ATOM     23  C   LIG    1        5.782  -0.474  -1.437  0.00  0.00    -0.140 A 
ATOM     24  C   LIG    1        6.843  -1.364  -1.240  0.00  0.00    +0.050 A 
ATOM     25  C   LIG    1        6.926  -2.095  -0.078  0.00  0.00    +0.030 A 
ATOM     26  C   LIG    1        5.957  -1.953   0.906  0.00  0.00    +0.010 A 
ATOM     27  C   LIG    1        4.916  -1.093   0.735  0.00  0.00    +0.030 A 
ATOM     28  C   LIG    1        4.806  -0.330  -0.447  0.00  0.00    -0.050 A 
ENDBRANCH  19  20
ENDBRANCH   1  19
TORSDOF 7
