REMARK  Name = ZINCqH0000050hNb.0
REMARK                            x       y       z     vdW  Elec       q    Type
REMARK                         _______ _______ _______ _____ _____    ______ ____
ROOT
ATOM      1  C   LIG    1       -6.535   4.103  -0.600  0.00  0.00    -0.000 A 
ATOM      2  C   LIG    1       -7.745   4.567  -0.290  0.00  0.00    -0.030 A 
ATOM      3  S   LIG    1       -8.804   3.277   0.244  0.00  0.00    +0.170 S 
ATOM      4  C   LIG    1       -7.551   2.063   0.037  0.00  0.00    +0.090 A 
ATOM      5  N   LIG    1       -7.564   0.740   0.247  0.00  0.00    -0.490 NA
ATOM      6  C   LIG    1       -6.497   0.008   0.024  0.00  0.00    +0.520 A 
ATOM      7  N   LIG    1       -5.368   0.529  -0.421  0.00  0.00    -0.550 NA
ATOM      8  C   LIG    1       -5.258   1.829  -0.651  0.00  0.00    +0.410 A 
ATOM      9  C   LIG    1       -6.380   2.664  -0.426  0.00  0.00    -0.140 A 
ENDROOT
BRANCH   1  14
ATOM     10  C   LIG    1       -2.277   7.498  -2.468  0.00  0.00    +0.070 C 
ATOM     11  C   LIG    1       -3.391   6.609  -1.980  0.00  0.00    -0.070 A 
ATOM     12  C   LIG    1       -4.665   6.753  -2.499  0.00  0.00    +0.000 A 
ATOM     13  C   LIG    1       -5.690   5.942  -2.056  0.00  0.00    +0.030 A 
ATOM     14  C   LIG    1       -5.439   4.976  -1.081  0.00  0.00    -0.020 A 
ATOM     15  C   LIG    1       -4.154   4.840  -0.558  0.00  0.00    +0.100 A 
ATOM     16  C   LIG    1       -3.136   5.653  -1.013  0.00  0.00    -0.010 A 
ENDBRANCH   1  14
BRANCH   8  17
ATOM     17  N   LIG    1       -4.066   2.363  -1.110  0.00  0.00    -0.460 N 
ATOM     18  C   LIG    1       -3.733   1.838  -2.441  0.00  0.00    +0.220 C 
ATOM     19  C   LIG    1       -2.492   2.555  -2.977  0.00  0.00    -0.010 C 
ATOM     20  C   LIG    1       -1.323   2.333  -2.012  0.00  0.00    +0.030 C 
ATOM     21  C   LIG    1       -1.714   2.844  -0.623  0.00  0.00    +0.040 C 
ATOM     22  C   LIG    1       -2.978   2.119  -0.155  0.00  0.00    +0.140 C 
ATOM     23  C   LIG    1       -3.384   2.640   1.225  0.00  0.00    +0.040 C 
BRANCH  19  24
ATOM     24  C   LIG    1       -2.775   4.031  -3.093  0.00  0.00    +0.490 C 
ATOM     25  O   LIG    1       -3.862   4.467  -2.778  0.00  0.00    -0.470 OA
ATOM     26  N   LIG    1       -1.819   4.866  -3.547  0.00  0.00    -0.870 N 
ATOM     27  H   LIG    1       -0.949   4.518  -3.795  0.00  0.00    +0.390 HD
ATOM     28  H   LIG    1       -2.001   5.816  -3.622  0.00  0.00    +0.400 HD
ENDBRANCH  19  24
ENDBRANCH   8  17
TORSDOF 3
