REMARK  Name = ZINCrH000004sAmg.0
REMARK                            x       y       z     vdW  Elec       q    Type
REMARK                         _______ _______ _______ _____ _____    ______ ____
ROOT
ATOM      1  C   LIG    1        4.284   0.641  -1.471  0.00  0.00    +0.530 C 
ATOM      2  N   LIG    1        4.913   0.415  -2.641  0.00  0.00    -0.620 N 
ATOM      3  C   LIG    1        4.423   0.815  -3.973  0.00  0.00    +0.250 C 
ATOM      4  C   LIG    1        5.695   0.910  -4.852  0.00  0.00    +0.040 C 
ATOM      5  C   LIG    1        6.539  -0.272  -4.307  0.00  0.00    +0.050 C 
ATOM      6  C   LIG    1        6.207  -0.267  -2.800  0.00  0.00    +0.270 C 
ATOM      7  O   LIG    1        4.783   0.266  -0.432  0.00  0.00    -0.520 OA
ENDROOT
BRANCH   6   8
ATOM      8  C   LIG    1        6.105  -1.683  -2.296  0.00  0.00    -0.060 A 
ATOM      9  C   LIG    1        4.966  -2.425  -2.545  0.00  0.00    +0.000 A 
ATOM     10  C   LIG    1        4.874  -3.727  -2.087  0.00  0.00    +0.040 A 
ATOM     11  C   LIG    1        5.916  -4.283  -1.371  0.00  0.00    -0.010 A 
ATOM     12  C   LIG    1        7.056  -3.538  -1.116  0.00  0.00    +0.100 A 
ATOM     13  F   LIG    1        8.075  -4.081  -0.415  0.00  0.00    -0.140 F 
ATOM     14  C   LIG    1        7.149  -2.237  -1.579  0.00  0.00    -0.010 A 
ENDBRANCH   6   8
BRANCH   1  15
ATOM     15  C   LIG    1        2.959   1.360  -1.455  0.00  0.00    +0.060 C 
BRANCH  15  16
ATOM     16  C   LIG    1        2.465   1.486  -0.013  0.00  0.00    +0.140 C 
BRANCH  16  27
ATOM     17  C   LIG    1        2.381   4.397   0.003  0.00  0.00    +0.160 C 
ATOM     18  C   LIG    1        1.097   3.607   0.011  0.00  0.00    +0.220 A 
ATOM     19  N   LIG    1       -0.055   4.233   0.025  0.00  0.00    -0.470 NA
ATOM     20  C   LIG    1       -1.208   3.550   0.033  0.00  0.00    +0.260 A 
ATOM     21  C   LIG    1       -2.537   3.950   0.048  0.00  0.00    -0.110 A 
ATOM     22  C   LIG    1       -3.321   2.806   0.049  0.00  0.00    +0.290 A 
ATOM     23  N   LIG    1       -2.537   1.751   0.036  0.00  0.00    -0.320 NA
ATOM     24  N   LIG    1       -1.205   2.178   0.020  0.00  0.00    -0.310 N 
ATOM     25  C   LIG    1       -0.018   1.503   0.010  0.00  0.00    +0.200 A 
ATOM     26  C   LIG    1        0.002  -0.004   0.002  0.00  0.00    +0.160 C 
ATOM     27  C   LIG    1        1.141   2.205   0.003  0.00  0.00    -0.200 A 
ENDBRANCH  16  27
ENDBRANCH  15  16
ENDBRANCH   1  15
TORSDOF 4
