REMARK  Name = ZINCrH000004sPKv.0
REMARK                            x       y       z     vdW  Elec       q    Type
REMARK                         _______ _______ _______ _____ _____    ______ ____
ROOT
ATOM      1  C   LIG    1       -0.158   2.943   5.435  0.00  0.00    +0.110 C 
ATOM      2  C   LIG    1       -0.340   4.384   5.915  0.00  0.00    +0.040 C 
ATOM      3  C   LIG    1        0.129   5.350   4.825  0.00  0.00    +0.030 C 
ATOM      4  C   LIG    1       -0.718   5.148   3.570  0.00  0.00    +0.290 C 
ATOM      5  N   LIG    1       -0.669   3.731   3.183  0.00  0.00    -0.630 N 
ATOM      6  C   LIG    1       -0.310   3.372   1.934  0.00  0.00    +0.710 C 
ATOM      7  N   LIG    1       -0.371   2.078   1.562  0.00  0.00    -0.740 N 
ATOM      8  H   LIG    1       -0.744   1.417   2.165  0.00  0.00    +0.390 HD
ATOM      9  O   LIG    1        0.068   4.215   1.144  0.00  0.00    -0.580 OA
ATOM     10  C   LIG    1       -1.013   2.713   4.185  0.00  0.00    +0.280 C 
ENDROOT
BRANCH   1  15
ATOM     11  C   LIG    1       -0.262  -0.640   8.932  0.00  0.00    +0.200 C 
ATOM     12  C   LIG    1       -0.648   0.481   8.002  0.00  0.00    +0.170 A 
ATOM     13  N   LIG    1       -1.817   1.042   7.917  0.00  0.00    -0.380 NA
ATOM     14  O   LIG    1       -1.805   1.912   7.072  0.00  0.00    +0.080 OA
ATOM     15  C   LIG    1       -0.590   1.992   6.521  0.00  0.00    +0.180 A 
ATOM     16  N   LIG    1        0.153   1.081   7.103  0.00  0.00    -0.470 NA
ENDBRANCH   1  15
BRANCH   7  17
ATOM     17  C   LIG    1        0.127   1.671   0.245  0.00  0.00    +0.330 C 
BRANCH  17  18
ATOM     18  C   LIG    1       -0.057   0.162   0.075  0.00  0.00    -0.110 C 
ATOM     19  C   LIG    1        1.203  -0.705   0.042  0.00  0.00    +0.050 C 
ATOM     20  C   LIG    1        0.407  -0.462  -1.243  0.00  0.00    +0.070 C 
BRANCH  18  21
ATOM     21  C   LIG    1       -1.285  -0.420   0.726  0.00  0.00    -0.060 A 
ATOM     22  C   LIG    1       -1.154  -1.308   1.777  0.00  0.00    +0.070 A 
ATOM     23  C   LIG    1       -2.280  -1.843   2.376  0.00  0.00    -0.010 A 
ATOM     24  C   LIG    1       -3.539  -1.489   1.922  0.00  0.00    +0.120 A 
ATOM     25  C   LIG    1       -3.670  -0.600   0.869  0.00  0.00    +0.000 A 
ATOM     26  F   LIG    1       -4.639  -2.012   2.506  0.00  0.00    -0.130 F 
ATOM     27  C   LIG    1       -2.543  -0.062   0.275  0.00  0.00    +0.010 A 
ATOM     28 CL   LIG    1       -2.707   1.059  -1.041  0.00  0.00    -0.040 Cl
ENDBRANCH  18  21
ENDBRANCH  17  18
ENDBRANCH   7  17
TORSDOF 4
