REMARK  Name = ZINCvU0000000Itk.0
REMARK                            x       y       z     vdW  Elec       q    Type
REMARK                         _______ _______ _______ _____ _____    ______ ____
ROOT
ATOM      1  C   LIG    1       -2.472  -0.013   0.015  0.00  0.00    +0.330 C 
ENDROOT
BRANCH   1   5
ATOM      2  C   LIG    1       -5.654  -2.866   0.040  0.00  0.00    +0.160 A 
ATOM      3  C   LIG    1       -4.645  -2.940   0.992  0.00  0.00    +0.010 A 
ATOM      4  C   LIG    1       -3.619  -2.016   0.981  0.00  0.00    +0.040 A 
ATOM      5  C   LIG    1       -3.594  -1.019   0.024  0.00  0.00    -0.110 A 
ATOM      6  C   LIG    1       -4.600  -0.939  -0.922  0.00  0.00    +0.040 A 
ATOM      7  C   LIG    1       -5.627  -1.863  -0.920  0.00  0.00    +0.010 A 
BRANCH   2   8
ATOM      8  N   LIG    1       -6.694  -3.799   0.048  0.00  0.00    -0.590 N 
BRANCH   8   9
ATOM      9  C   LIG    1       -6.561  -5.000  -0.654  0.00  0.00    +0.210 A 
ATOM     10  C   LIG    1       -5.359  -5.313  -1.276  0.00  0.00    -0.070 A 
ATOM     11  C   LIG    1       -5.229  -6.503  -1.965  0.00  0.00    +0.040 A 
ATOM     12  C   LIG    1       -6.297  -7.378  -2.044  0.00  0.00    -0.050 A 
ATOM     13  C   LIG    1       -7.497  -7.067  -1.431  0.00  0.00    +0.040 A 
ATOM     14  C   LIG    1       -7.632  -5.881  -0.736  0.00  0.00    -0.070 A 
ENDBRANCH   8   9
BRANCH   8  16
ATOM     15  C   LIG    1       -8.920  -2.799  -0.119  0.00  0.00    +0.020 C 
ATOM     16  C   LIG    1       -7.924  -3.519   0.793  0.00  0.00    +0.280 C 
ENDBRANCH   8  16
ENDBRANCH   2   8
ENDBRANCH   1   5
BRANCH   1  17
ATOM     17  N   LIG    1       -1.379  -0.508  -0.825  0.00  0.00    -0.710 N 
ATOM     18  H   LIG    1       -1.459  -1.367  -1.268  0.00  0.00    +0.410 HD
BRANCH  17  19
ATOM     19  C   LIG    1       -0.231   0.251  -0.987  0.00  0.00    +0.440 A 
ATOM     20  N   LIG    1       -0.112   1.428  -0.385  0.00  0.00    -0.540 NA
ATOM     21  C   LIG    1        0.986   2.156  -0.537  0.00  0.00    +0.400 A 
ATOM     22  N   LIG    1        1.996   1.742  -1.288  0.00  0.00    -0.540 NA
ATOM     23  C   LIG    1        1.944   0.578  -1.917  0.00  0.00    +0.200 A 
ATOM     24  C   LIG    1        3.101   0.120  -2.768  0.00  0.00    +0.140 C 
ATOM     25  C   LIG    1        0.819  -0.212  -1.786  0.00  0.00    -0.250 A 
ATOM     26  C   LIG    1        0.725  -1.543  -2.486  0.00  0.00    +0.110 C 
BRANCH  21  27
ATOM     27  C   LIG    1        1.085   3.468   0.149  0.00  0.00    +0.170 A 
ATOM     28  C   LIG    1        2.233   4.242  -0.003  0.00  0.00    +0.030 A 
ATOM     29  C   LIG    1        2.311   5.464   0.645  0.00  0.00    +0.060 A 
ATOM     30  C   LIG    1        1.238   5.870   1.423  0.00  0.00    -0.020 A 
ATOM     31  C   LIG    1        0.128   5.050   1.530  0.00  0.00    +0.260 A 
ATOM     32  N   LIG    1        0.078   3.896   0.899  0.00  0.00    -0.440 NA
ENDBRANCH  21  27
ENDBRANCH  17  19
ENDBRANCH   1  17
TORSDOF 7
