REMARK  Name = ZINCpk000000pHjo.0
REMARK                            x       y       z     vdW  Elec       q    Type
REMARK                         _______ _______ _______ _____ _____    ______ ____
ROOT
ATOM      1  C   LIG    1        1.484  -0.443   0.053  0.00  0.00    -0.010 C 
ATOM      2  C   LIG    1        2.196   0.812   0.617  0.00  0.00    +0.280 C 
ATOM      3  N   LIG    1        1.462   1.932  -0.018  0.00  0.00    -0.610 N 
ATOM      4  C   LIG    1        0.042   1.535  -0.021  0.00  0.00    +0.270 C 
ATOM      5  C   LIG    1        1.986   3.079  -0.495  0.00  0.00    +0.620 C 
ATOM      6  O   LIG    1        1.261   3.917  -0.995  0.00  0.00    -0.530 OA
ATOM      7  C   LIG    1        0.002  -0.004   0.002  0.00  0.00    +0.130 C 
ENDROOT
BRANCH   5   8
ATOM      8  C   LIG    1        3.442   3.317  -0.411  0.00  0.00    -0.010 A 
ATOM      9  N   LIG    1        4.346   2.504   0.108  0.00  0.00    -0.270 NA
ATOM     10  N   LIG    1        5.520   3.027   0.011  0.00  0.00    -0.270 N 
ATOM     11  C   LIG    1        5.440   4.231  -0.578  0.00  0.00    +0.010 A 
ATOM     12  C   LIG    1        6.546   5.204  -0.897  0.00  0.00    +0.110 C 
ATOM     13  C   LIG    1        6.018   6.216  -1.921  0.00  0.00    +0.020 C 
ATOM     14  C   LIG    1        4.680   6.784  -1.440  0.00  0.00    +0.010 C 
ATOM     15  C   LIG    1        3.602   5.695  -1.523  0.00  0.00    +0.120 C 
ATOM     16  C   LIG    1        6.759   2.401   0.480  0.00  0.00    +0.370 C 
ATOM     17  C   LIG    1        4.133   4.454  -0.861  0.00  0.00    -0.140 A 
ENDBRANCH   5   8
BRANCH   7  18
ATOM     18  N   LIG    1       -0.640  -0.516  -1.216  0.00  0.00    -0.530 NA
ATOM     19  C   LIG    1       -2.049  -0.101  -1.282  0.00  0.00    +0.150 C 
ATOM     20  C   LIG    1       -2.662  -0.605  -2.592  0.00  0.00    +0.220 C 
ATOM     21  O   LIG    1       -2.512  -2.025  -2.668  0.00  0.00    -0.380 OA
ATOM     22  C   LIG    1       -1.153  -2.464  -2.606  0.00  0.00    +0.220 C 
ATOM     23  C   LIG    1       -0.524  -1.980  -1.297  0.00  0.00    +0.150 C 
ENDBRANCH   7  18
BRANCH   1  25
ATOM     24  C   LIG    1        3.112  -2.125   0.927  0.00  0.00    +0.020 C 
ATOM     25  C   LIG    1        1.663  -1.636   0.994  0.00  0.00    +0.020 C 
ENDBRANCH   1  25
TORSDOF 3
