REMARK  Name = ZINCtV00000vAhIn.0
REMARK                            x       y       z     vdW  Elec       q    Type
REMARK                         _______ _______ _______ _____ _____    ______ ____
ROOT
ATOM      1  C   LIG    1        6.732   0.146  -0.057  0.00  0.00    +0.250 C 
ATOM      2  C   LIG    1        7.653   0.137  -1.290  0.00  0.00    +0.020 C 
ATOM      3  C   LIG    1        9.101   0.095  -0.759  0.00  0.00    +0.030 C 
ATOM      4  C   LIG    1        8.969  -0.519   0.656  0.00  0.00    +0.040 C 
ATOM      5  C   LIG    1        7.652   0.108   1.181  0.00  0.00    +0.030 C 
ENDROOT
BRANCH   5   6
ATOM      6  C   LIG    1        7.049  -0.754   2.260  0.00  0.00    -0.040 A 
ATOM      7  C   LIG    1        6.785  -2.088   2.012  0.00  0.00    +0.020 A 
ATOM      8  C   LIG    1        6.237  -2.880   3.003  0.00  0.00    +0.080 A 
ATOM      9  C   LIG    1        5.942  -2.335   4.239  0.00  0.00    -0.180 A 
ATOM     10  C   LIG    1        6.200  -0.999   4.485  0.00  0.00    +0.070 A 
ATOM     11  C   LIG    1        6.754  -0.209   3.495  0.00  0.00    +0.020 A 
BRANCH   9  12
ATOM     12  C   LIG    1        5.338  -3.196   5.318  0.00  0.00    +0.510 C 
ATOM     13  F   LIG    1        5.737  -2.722   6.572  0.00  0.00    -0.180 F 
ATOM     14  F   LIG    1        5.772  -4.517   5.158  0.00  0.00    -0.180 F 
ATOM     15  F   LIG    1        3.943  -3.151   5.225  0.00  0.00    -0.180 F 
ENDBRANCH   9  12
ENDBRANCH   5   6
BRANCH   1  17
ATOM     16  C   LIG    1        6.575   2.678  -0.043  0.00  0.00    +0.320 C 
ATOM     17  N   LIG    1        5.923   1.366  -0.044  0.00  0.00    -0.550 N 
BRANCH  17  18
ATOM     18  C   LIG    1        4.551   1.281  -0.032  0.00  0.00    +0.430 A 
ATOM     19  N   LIG    1        3.701   2.290  -0.020  0.00  0.00    -0.530 NA
ATOM     20  C   LIG    1        2.473   1.727  -0.011  0.00  0.00    +0.230 A 
ATOM     21  N   LIG    1        2.640   0.430  -0.013  0.00  0.00    -0.360 NA
ATOM     22  O   LIG    1        3.821   0.157  -0.031  0.00  0.00    +0.040 OA
BRANCH  20  23
ATOM     23  C   LIG    1        1.176   2.447   0.004  0.00  0.00    -0.010 A 
ATOM     24  C   LIG    1        1.149   3.840   0.011  0.00  0.00    +0.080 A 
ATOM     25  C   LIG    1       -0.061   4.504   0.026  0.00  0.00    +0.020 A 
ATOM     26  C   LIG    1       -1.246   3.791   0.033  0.00  0.00    +0.050 A 
ATOM     27  C   LIG    1       -1.226   2.408   0.021  0.00  0.00    +0.030 A 
ATOM     28  C   LIG    1       -0.021   1.732   0.012  0.00  0.00    -0.010 A 
ATOM     29 CL   LIG    1        0.002  -0.004   0.002  0.00  0.00    -0.040 Cl
ENDBRANCH  20  23
ENDBRANCH  17  18
ENDBRANCH   1  17
TORSDOF 5
