REMARK  Name = ZINCpk00000y6yFN.0
REMARK                            x       y       z     vdW  Elec       q    Type
REMARK                         _______ _______ _______ _____ _____    ______ ____
ROOT
ATOM      1  C   LIG    1       -4.854   0.015  -0.517  0.00  0.00    +0.150 C 
ATOM      2  C   LIG    1       -5.843   0.117   0.668  0.00  0.00    +0.210 C 
ATOM      3  O   LIG    1       -5.569  -1.046   1.480  0.00  0.00    -0.360 OA
ATOM      4  C   LIG    1       -4.130  -1.176   1.483  0.00  0.00    +0.210 C 
ATOM      5  C   LIG    1       -3.701  -0.854   0.034  0.00  0.00    +0.240 C 
ENDROOT
BRANCH   5   6
ATOM      6  N   LIG    1       -2.443  -0.104   0.026  0.00  0.00    -0.710 N 
ATOM      7  H   LIG    1       -2.457   0.866   0.031  0.00  0.00    +0.410 HD
ATOM      8  C   LIG    1       -1.267  -0.761   0.011  0.00  0.00    +0.560 C 
ATOM      9  O   LIG    1       -1.250  -1.976   0.004  0.00  0.00    -0.530 OA
BRANCH   8  10
ATOM     10  C   LIG    1        0.002  -0.004   0.002  0.00  0.00    -0.150 A 
ATOM     11  C   LIG    1       -0.017   1.393   0.010  0.00  0.00    +0.120 A 
ATOM     12  C   LIG    1        1.165   2.103   0.002  0.00  0.00    +0.000 A 
ATOM     13  C   LIG    1        2.379   1.438  -0.013  0.00  0.00    +0.170 A 
ATOM     14  C   LIG    1        2.412   0.038  -0.021  0.00  0.00    -0.060 A 
ATOM     15  F   LIG    1        3.534   2.139  -0.020  0.00  0.00    -0.120 F 
ATOM     16  C   LIG    1        1.219  -0.683  -0.013  0.00  0.00    +0.180 A 
BRANCH  14  17
ATOM     17  C   LIG    1        3.667  -0.652  -0.036  0.00  0.00    +0.240 C 
ATOM     18  N   LIG    1        4.662  -1.198  -0.048  0.00  0.00    -0.390 NA
ENDBRANCH  14  17
ENDBRANCH   8  10
ENDBRANCH   5   6
BRANCH   1  19
ATOM     19  O   LIG    1       -4.374   1.310  -0.883  0.00  0.00    -0.290 OA
BRANCH  19  22
ATOM     20  N   LIG    1       -5.595   3.434  -3.400  0.00  0.00    -0.360 N 
ATOM     21  C   LIG    1       -4.718   3.170  -2.396  0.00  0.00    +0.210 A 
ATOM     22  C   LIG    1       -5.019   1.944  -1.902  0.00  0.00    -0.030 A 
ATOM     23  C   LIG    1       -6.106   1.441  -2.629  0.00  0.00    +0.170 A 
ATOM     24  N   LIG    1       -6.454   2.334  -3.520  0.00  0.00    -0.260 NA
BRANCH  20  26
ATOM     25  C   LIG    1       -5.551   4.278  -5.695  0.00  0.00    +0.040 C 
ATOM     26  C   LIG    1       -5.634   4.652  -4.214  0.00  0.00    +0.320 C 
ENDBRANCH  20  26
ENDBRANCH  19  22
ENDBRANCH   1  19
TORSDOF 6
