REMARK  Name = ZINCrD00000hQ4j2.0
REMARK                            x       y       z     vdW  Elec       q    Type
REMARK                         _______ _______ _______ _____ _____    ______ ____
ROOT
ATOM      1  O   LIG    1        5.060  -7.769  -0.251  0.00  0.00    -0.530 OA
ATOM      2  C   LIG    1        3.918  -7.819   0.155  0.00  0.00    +0.540 C 
ATOM      3  N   LIG    1        3.009  -6.923  -0.279  0.00  0.00    -0.620 N 
ATOM      4  C   LIG    1        3.287  -5.774  -1.160  0.00  0.00    +0.250 C 
ATOM      5  C   LIG    1        1.932  -5.461  -1.842  0.00  0.00    +0.030 C 
ATOM      6  C   LIG    1        0.932  -5.738  -0.689  0.00  0.00    +0.250 C 
ATOM      7  C   LIG    1        1.576  -6.930   0.049  0.00  0.00    +0.260 C 
ENDROOT
BRANCH   2   8
ATOM      8  C   LIG    1        3.516  -8.882   1.144  0.00  0.00    -0.010 C 
ATOM      9  C   LIG    1        3.813  -8.396   2.564  0.00  0.00    +0.020 C 
ATOM     10  C   LIG    1        3.405  -9.476   3.568  0.00  0.00    +0.020 C 
ATOM     11  C   LIG    1        4.196 -10.756   3.291  0.00  0.00    -0.010 C 
ATOM     12  C   LIG    1        5.693 -10.471   3.429  0.00  0.00    +0.010 C 
ATOM     13  C   LIG    1        6.483 -11.751   3.152  0.00  0.00    +0.000 C 
ATOM     14  C   LIG    1        6.186 -12.236   1.732  0.00  0.00    +0.010 C 
ATOM     15  C   LIG    1        4.689 -12.522   1.594  0.00  0.00    +0.010 C 
ATOM     16  C   LIG    1        3.898 -11.242   1.871  0.00  0.00    -0.010 C 
ATOM     17  C   LIG    1        4.307 -10.162   0.867  0.00  0.00    +0.040 C 
ENDBRANCH   2   8
BRANCH   6  18
ATOM     18  N   LIG    1       -0.383  -6.106  -1.221  0.00  0.00    -0.700 N 
ATOM     19  H   LIG    1       -0.611  -7.040  -1.347  0.00  0.00    +0.420 HD
BRANCH  18  20
ATOM     20  C   LIG    1       -1.305  -5.115  -1.546  0.00  0.00    +0.420 A 
ATOM     21  N   LIG    1       -0.989  -3.854  -1.373  0.00  0.00    -0.350 NA
ATOM     22  N   LIG    1       -1.900  -2.842  -1.693  0.00  0.00    -0.250 N 
ATOM     23  C   LIG    1       -1.840  -1.483  -1.616  0.00  0.00    +0.170 A 
ATOM     24  C   LIG    1       -3.025  -1.004  -2.064  0.00  0.00    +0.200 A 
ATOM     25  N   LIG    1       -3.797  -2.034  -2.408  0.00  0.00    -0.460 NA
ATOM     26  C   LIG    1       -3.135  -3.163  -2.192  0.00  0.00    +0.140 A 
ATOM     27  C   LIG    1       -3.473  -4.518  -2.377  0.00  0.00    +0.180 A 
ATOM     28  C   LIG    1       -2.565  -5.478  -2.057  0.00  0.00    -0.050 A 
ENDBRANCH  18  20
ENDBRANCH   6  18
TORSDOF 3
