REMARK  Name = ZINCrH000004mnvt.0
REMARK                            x       y       z     vdW  Elec       q    Type
REMARK                         _______ _______ _______ _____ _____    ______ ____
ROOT
ATOM      1  C   LIG    1       -5.056   8.332   3.747  0.00  0.00    +0.150 A 
ATOM      2  C   LIG    1       -5.383   7.189   4.376  0.00  0.00    -0.120 A 
ATOM      3  S   LIG    1       -4.574   5.857   3.555  0.00  0.00    +0.190 S 
ATOM      4  C   LIG    1       -3.848   6.995   2.424  0.00  0.00    +0.270 A 
ATOM      5  N   LIG    1       -4.238   8.197   2.713  0.00  0.00    -0.480 NA
ENDROOT
BRANCH   1   9
ATOM      6  C   LIG    1       -6.541  12.122   4.995  0.00  0.00    +0.180 A 
ATOM      7  C   LIG    1       -6.910  10.971   5.678  0.00  0.00    -0.120 A 
ATOM      8  C   LIG    1       -6.430   9.741   5.276  0.00  0.00    +0.120 A 
ATOM      9  C   LIG    1       -5.573   9.653   4.182  0.00  0.00    -0.100 A 
ATOM     10  C   LIG    1       -5.197  10.813   3.497  0.00  0.00    +0.200 A 
ATOM     11  C   LIG    1       -5.687  12.042   3.904  0.00  0.00    -0.110 A 
BRANCH   6  13
ATOM     12  C   LIG    1       -7.891  13.340   6.526  0.00  0.00    +0.250 C 
ATOM     13  O   LIG    1       -7.016  13.330   5.396  0.00  0.00    -0.320 OA
ENDBRANCH   6  13
BRANCH  10  14
ATOM     14  O   LIG    1       -4.357  10.734   2.432  0.00  0.00    -0.270 OA
ATOM     15  C   LIG    1       -4.016  11.960   1.782  0.00  0.00    +0.240 C 
ENDBRANCH  10  14
ENDBRANCH   1   9
BRANCH   4  16
ATOM     16  N   LIG    1       -2.995   6.656   1.380  0.00  0.00    -0.620 N 
ATOM     17  H   LIG    1       -2.641   7.347   0.799  0.00  0.00    +0.420 HD
ATOM     18  C   LIG    1       -2.659   5.367   1.176  0.00  0.00    +0.510 C 
ATOM     19  O   LIG    1       -3.101   4.503   1.903  0.00  0.00    -0.480 OA
BRANCH  18  20
ATOM     20  C   LIG    1       -1.734   5.000   0.044  0.00  0.00    +0.230 C 
BRANCH  20  21
ATOM     21  N   LIG    1       -1.525   3.546   0.035  0.00  0.00    -0.520 NA
ATOM     22  C   LIG    1       -0.826   3.122  -1.185  0.00  0.00    +0.180 C 
ATOM     23  C   LIG    1       -0.756   1.594  -1.230  0.00  0.00    -0.010 C 
ATOM     24  C   LIG    1       -0.013   1.086   0.008  0.00  0.00    +0.020 C 
ATOM     25  C   LIG    1       -0.732   1.581   1.266  0.00  0.00    -0.010 C 
ATOM     26  C   LIG    1        0.039   1.127   2.507  0.00  0.00    +0.020 C 
ATOM     27  C   LIG    1       -0.009   1.154  -2.491  0.00  0.00    +0.020 C 
ATOM     28  C   LIG    1       -0.804   3.109   1.238  0.00  0.00    +0.170 C 
ENDBRANCH  20  21
ENDBRANCH  18  20
ENDBRANCH   4  16
TORSDOF 6
