REMARK  Name = ZINCtj00000030Fv.1
REMARK                            x       y       z     vdW  Elec       q    Type
REMARK                         _______ _______ _______ _____ _____    ______ ____
ROOT
ATOM      1  N   LIG    1       -1.245   5.794   2.704  0.00  0.00    -0.730 N 
ATOM      2  H   LIG    1       -1.051   6.547   2.124  0.00  0.00    +0.410 HD
ATOM      3  C   LIG    1       -0.782   4.567   2.393  0.00  0.00    +0.520 C 
ATOM      4  O   LIG    1       -1.024   3.626   3.118  0.00  0.00    -0.530 OA
ENDROOT
BRANCH   1   5
ATOM      5  C   LIG    1       -2.042   5.990   3.917  0.00  0.00    +0.270 C 
BRANCH   5   7
ATOM      6  C   LIG    1       -1.183   8.336   3.981  0.00  0.00    +0.100 C 
ATOM      7  C   LIG    1       -2.439   7.463   4.034  0.00  0.00    +0.100 C 
BRANCH   7   8
ATOM      8  O   LIG    1       -3.306   7.810   2.952  0.00  0.00    -0.540 OA
ATOM      9  H   LIG    1       -4.124   7.295   2.923  0.00  0.00    +0.400 HD
ENDBRANCH   7   8
BRANCH   7  10
ATOM     10  C   LIG    1       -3.164   7.692   5.362  0.00  0.00    +0.250 C 
BRANCH  10  11
ATOM     11  N   LIG    1       -3.398   9.130   5.550  0.00  0.00    -0.380 N 
ATOM     12  C   LIG    1       -3.939   9.367   6.895  0.00  0.00    +0.230 C 
ATOM     13  C   LIG    1       -4.183  10.866   7.089  0.00  0.00    +0.260 C 
ATOM     14  O   LIG    1       -5.075  11.333   6.074  0.00  0.00    -0.360 OA
ATOM     15  C   LIG    1       -4.602  11.104   4.744  0.00  0.00    +0.260 C 
ATOM     16  C   LIG    1       -4.360   9.605   4.546  0.00  0.00    +0.230 C 
ATOM     17  H   LIG    1       -2.528   9.630   5.445  0.00  0.00    +0.420 HD
ENDBRANCH  10  11
ENDBRANCH   7  10
ENDBRANCH   5   7
ENDBRANCH   1   5
BRANCH   3  18
ATOM     18  C   LIG    1        0.038   4.365   1.145  0.00  0.00    +0.060 C 
BRANCH  18  19
ATOM     19  C   LIG    1        0.435   2.892   1.028  0.00  0.00    +0.050 C 
BRANCH  19  20
ATOM     20  C   LIG    1        1.268   2.687  -0.239  0.00  0.00    +0.190 C 
BRANCH  20  21
ATOM     21  C   LIG    1        1.659   1.237  -0.354  0.00  0.00    +0.180 A 
ATOM     22  N   LIG    1        0.981   0.294  -0.960  0.00  0.00    -0.470 NA
ATOM     23  C   LIG    1        1.711  -0.834  -0.807  0.00  0.00    +0.220 A 
ATOM     24  N   LIG    1        2.779  -0.513  -0.124  0.00  0.00    -0.370 NA
ATOM     25  O   LIG    1        2.765   0.671   0.138  0.00  0.00    +0.090 OA
BRANCH  23  26
ATOM     26  C   LIG    1        1.365  -2.183  -1.318  0.00  0.00    -0.040 A 
ATOM     27  C   LIG    1        0.183  -2.379  -2.030  0.00  0.00    +0.110 A 
ATOM     28  C   LIG    1       -0.132  -3.634  -2.509  0.00  0.00    -0.010 A 
ATOM     29  C   LIG    1        0.720  -4.702  -2.272  0.00  0.00    +0.120 A 
ATOM     30  C   LIG    1        1.893  -4.513  -1.560  0.00  0.00    +0.000 A 
ATOM     31  F   LIG    1        0.405  -5.930  -2.738  0.00  0.00    -0.130 F 
ATOM     32  C   LIG    1        2.218  -3.260  -1.083  0.00  0.00    +0.090 A 
ENDBRANCH  23  26
ENDBRANCH  20  21
ENDBRANCH  19  20
ENDBRANCH  18  19
ENDBRANCH   3  18
TORSDOF 10
