REMARK  Name = ZINCah0000002Bos.0
REMARK                            x       y       z     vdW  Elec       q    Type
REMARK                         _______ _______ _______ _____ _____    ______ ____
ROOT
ATOM      1  C   LIG    1       -0.017   1.393   0.010  0.00  0.00    +0.270 A 
ATOM      2  C   LIG    1       -1.228   2.072   0.019  0.00  0.00    -0.060 A 
ATOM      3  C   LIG    1       -1.243   3.453   0.031  0.00  0.00    +0.150 A 
ATOM      4  C   LIG    1       -0.054   4.159   0.024  0.00  0.00    -0.110 A 
ATOM      5  C   LIG    1        1.153   3.486   0.009  0.00  0.00    +0.150 A 
ATOM      6  C   LIG    1        1.176   2.105   0.002  0.00  0.00    -0.060 A 
ENDROOT
BRANCH   1   7
ATOM      7  N   LIG    1        0.002  -0.004   0.002  0.00  0.00    -0.860 N 
ATOM      8  H   LIG    1       -0.831  -0.500   0.007  0.00  0.00    +0.410 HD
ATOM      9  H   LIG    1        0.849  -0.478  -0.009  0.00  0.00    +0.410 HD
ENDBRANCH   1   7
BRANCH   4  10
ATOM     10  N   LIG    1       -0.074   5.639   0.032  0.00  0.00    +0.040 N 
ATOM     11  O   LIG    1       -1.137   6.234   0.044  0.00  0.00    -0.170 OA
ATOM     12  O   LIG    1        0.972   6.262   0.025  0.00  0.00    -0.170 OA
ENDBRANCH   4  10
TORSDOF 2
