REMARK  Name = ZINCpk00000y6xYc.0
REMARK                            x       y       z     vdW  Elec       q    Type
REMARK                         _______ _______ _______ _____ _____    ______ ____
ROOT
ATOM      1  C   LIG    1        0.002  -0.004   0.002  0.00  0.00    +0.220 C 
ATOM      2  C   LIG    1        0.688  -0.507   1.278  0.00  0.00    +0.280 C 
ATOM      3  N   LIG    1        1.992   0.164   1.399  0.00  0.00    -0.620 N 
ATOM      4  C   LIG    1        2.030   1.630   1.276  0.00  0.00    +0.250 C 
ATOM      5  C   LIG    1        1.279   2.028   0.001  0.00  0.00    +0.230 C 
ATOM      6  C   LIG    1        3.119  -0.544   1.615  0.00  0.00    +0.520 C 
ATOM      7  O   LIG    1        3.067  -1.751   1.712  0.00  0.00    -0.530 OA
ATOM      8  O   LIG    1       -0.017   1.425   0.010  0.00  0.00    -0.370 OA
ENDROOT
BRANCH   1  13
ATOM      9  C   LIG    1       -2.887  -2.292  -0.011  0.00  0.00    +0.570 A 
ATOM     10  N   LIG    1       -3.928  -1.483  -0.140  0.00  0.00    -0.570 NA
ATOM     11  C   LIG    1       -3.761  -0.173  -0.229  0.00  0.00    +0.360 A 
ATOM     12  C   LIG    1       -2.478   0.348  -0.185  0.00  0.00    -0.110 A 
ATOM     13  C   LIG    1       -1.411  -0.526  -0.049  0.00  0.00    +0.220 A 
ATOM     14  N   LIG    1       -1.647  -1.825   0.029  0.00  0.00    -0.560 NA
BRANCH   9  16
ATOM     15  C   LIG    1       -4.462  -4.191   0.030  0.00  0.00    +0.310 C 
ATOM     16  N   LIG    1       -3.099  -3.656   0.078  0.00  0.00    -0.590 N 
ATOM     17  C   LIG    1       -1.960  -4.566   0.221  0.00  0.00    +0.300 C 
ENDBRANCH   9  16
ENDBRANCH   1  13
BRANCH   6  18
ATOM     18  C   LIG    1        4.442   0.166   1.735  0.00  0.00    +0.070 C 
BRANCH  18  19
ATOM     19  C   LIG    1        5.551  -0.861   1.976  0.00  0.00    +0.130 C 
BRANCH  19  20
ATOM     20  C   LIG    1        6.875  -0.151   2.096  0.00  0.00    +0.130 A 
ATOM     21  C   LIG    1        7.655  -0.346   3.220  0.00  0.00    -0.030 A 
ATOM     22  C   LIG    1        8.874   0.308   3.319  0.00  0.00    +0.070 A 
ATOM     23  C   LIG    1        9.259   1.145   2.283  0.00  0.00    -0.040 A 
ATOM     24  C   LIG    1        8.424   1.295   1.192  0.00  0.00    +0.260 A 
ATOM     25  N   LIG    1        7.274   0.653   1.130  0.00  0.00    -0.480 NA
ENDBRANCH  19  20
ENDBRANCH  18  19
ENDBRANCH   6  18
TORSDOF 5
