REMARK  Name = ZINCrD0000074rju.0
REMARK                            x       y       z     vdW  Elec       q    Type
REMARK                         _______ _______ _______ _____ _____    ______ ____
ROOT
ATOM      1  N   LIG    1       -3.034   3.894  -1.323  0.00  0.00    -0.730 N 
ATOM      2  H   LIG    1       -2.524   3.534  -2.065  0.00  0.00    +0.390 HD
ATOM      3  C   LIG    1       -4.203   4.524  -1.554  0.00  0.00    +0.710 C 
ATOM      4  N   LIG    1       -4.613   4.744  -2.819  0.00  0.00    -0.640 N 
ATOM      5  C   LIG    1       -5.832   5.516  -3.098  0.00  0.00    +0.320 C 
ATOM      6  C   LIG    1       -5.447   6.804  -3.843  0.00  0.00    +0.270 C 
ATOM      7  N   LIG    1       -4.517   6.477  -4.934  0.00  0.00    -0.470 N 
ATOM      8  C   LIG    1       -3.784   5.311  -5.003  0.00  0.00    +0.060 A 
ATOM      9  C   LIG    1       -3.020   5.307  -6.107  0.00  0.00    -0.030 A 
ATOM     10  C   LIG    1       -3.278   6.556  -6.802  0.00  0.00    -0.110 A 
ATOM     11  C   LIG    1       -2.777   7.094  -7.991  0.00  0.00    +0.090 A 
ATOM     12  C   LIG    1       -3.254   8.328  -8.362  0.00  0.00    -0.010 A 
ATOM     13  C   LIG    1       -4.187   9.015  -7.602  0.00  0.00    -0.010 A 
ATOM     14  C   LIG    1       -4.699   8.504  -6.420  0.00  0.00    +0.020 A 
ATOM     15 CL   LIG    1       -4.734  10.569  -8.149  0.00  0.00    -0.070 Cl
ATOM     16  C   LIG    1       -4.232   7.254  -6.019  0.00  0.00    +0.110 A 
ATOM     17  C   LIG    1       -3.856   4.211  -3.966  0.00  0.00    +0.380 C 
ATOM     18  O   LIG    1       -4.888   4.895  -0.620  0.00  0.00    -0.580 OA
ENDROOT
BRANCH   1  19
ATOM     19  C   LIG    1       -2.535   3.755   0.047  0.00  0.00    +0.370 C 
BRANCH  19  24
ATOM     20  C   LIG    1        2.461   0.892  -0.017  0.00  0.00    +0.150 C 
ATOM     21  C   LIG    1        1.157   1.647  -0.000  0.00  0.00    +0.180 A 
ATOM     22  C   LIG    1        1.166   3.000   0.005  0.00  0.00    -0.090 A 
ATOM     23  C   LIG    1       -0.044   3.709   0.020  0.00  0.00    +0.050 A 
ATOM     24  C   LIG    1       -1.220   3.019   0.030  0.00  0.00    -0.260 A 
ATOM     25  C   LIG    1       -1.194   1.613   0.019  0.00  0.00    +0.530 A 
ATOM     26  O   LIG    1       -2.239   0.984   0.022  0.00  0.00    -0.540 OA
ATOM     27  C   LIG    1       -0.044   5.216   0.025  0.00  0.00    +0.110 C 
ATOM     28  N   LIG    1       -0.015   0.962   0.010  0.00  0.00    -0.610 N 
ATOM     29  H   LIG    1       -0.004  -0.008   0.006  0.00  0.00    +0.420 HD
ENDBRANCH  19  24
ENDBRANCH   1  19
TORSDOF 2
