REMARK  Name = ZINCrD00000l0Nu6.0
REMARK                            x       y       z     vdW  Elec       q    Type
REMARK                         _______ _______ _______ _____ _____    ______ ____
ROOT
ATOM      1  C   LIG    1        7.108   6.317  -1.585  0.00  0.00    +0.540 C 
ATOM      2  O   LIG    1        6.463   7.303  -1.286  0.00  0.00    -0.480 OA
ENDROOT
BRANCH   1   7
ATOM      3  C   LIG    1        9.616   7.192  -4.104  0.00  0.00    -0.220 A 
ATOM      4  C   LIG    1        9.848   5.840  -3.925  0.00  0.00    +0.140 A 
ATOM      5  N   LIG    1        8.985   5.381  -3.005  0.00  0.00    -0.510 N 
ATOM      6  H   LIG    1        8.935   4.465  -2.690  0.00  0.00    +0.430 HD
ATOM      7  C   LIG    1        8.179   6.415  -2.582  0.00  0.00    -0.050 A 
ATOM      8  C   LIG    1       10.895   5.024  -4.637  0.00  0.00    +0.160 C 
ATOM      9  C   LIG    1        8.552   7.548  -3.244  0.00  0.00    -0.000 A 
ATOM     10  C   LIG    1        7.944   8.918  -3.090  0.00  0.00    +0.140 C 
BRANCH   3  11
ATOM     11  C   LIG    1       10.341   8.091  -5.018  0.00  0.00    +0.550 C 
ATOM     12  O   LIG    1       11.330   8.682  -4.631  0.00  0.00    -0.490 OA
BRANCH  11  14
ATOM     13  C   LIG    1       10.670   9.159  -7.128  0.00  0.00    +0.260 C 
ATOM     14  O   LIG    1        9.907   8.258  -6.283  0.00  0.00    -0.350 OA
ENDBRANCH  11  14
ENDBRANCH   3  11
ENDBRANCH   1   7
BRANCH   1  15
ATOM     15  O   LIG    1        6.837   5.132  -1.001  0.00  0.00    -0.340 OA
BRANCH  15  16
ATOM     16  C   LIG    1        5.763   5.109  -0.024  0.00  0.00    +0.320 C 
ATOM     17  C   LIG    1        6.332   5.401   1.366  0.00  0.00    +0.090 C 
BRANCH  16  18
ATOM     18  C   LIG    1        5.113   3.749  -0.025  0.00  0.00    +0.150 A 
ATOM     19  N   LIG    1        5.730   2.600  -0.036  0.00  0.00    -0.250 NA
ATOM     20  N   LIG    1        4.865   1.648  -0.027  0.00  0.00    -0.280 NA
ATOM     21  C   LIG    1        3.657   2.160  -0.020  0.00  0.00    +0.220 A 
ATOM     22  O   LIG    1        3.792   3.502  -0.014  0.00  0.00    -0.210 OA
BRANCH  21  23
ATOM     23  C   LIG    1        2.385   1.407  -0.013  0.00  0.00    -0.030 A 
ATOM     24  C   LIG    1        1.167   2.088   0.002  0.00  0.00    +0.050 A 
ATOM     25  C   LIG    1       -0.017   1.379   0.010  0.00  0.00    +0.020 A 
ATOM     26  C   LIG    1        0.002  -0.004   0.002  0.00  0.00    +0.040 A 
ATOM     27  C   LIG    1        1.206  -0.685  -0.013  0.00  0.00    +0.020 A 
ATOM     28  C   LIG    1        2.397   0.011  -0.020  0.00  0.00    +0.080 A 
ENDBRANCH  21  23
ENDBRANCH  16  18
ENDBRANCH  15  16
ENDBRANCH   1  15
TORSDOF 7
