REMARK  Name = ZINCqH0000008HPK.0
REMARK                            x       y       z     vdW  Elec       q    Type
REMARK                         _______ _______ _______ _____ _____    ______ ____
ROOT
ATOM      1  C   LIG    1       -0.990   1.945  -5.964  0.00  0.00    +0.150 A 
ATOM      2  C   LIG    1       -0.229   2.131  -7.111  0.00  0.00    +0.080 A 
ATOM      3  C   LIG    1       -0.780   2.763  -8.208  0.00  0.00    -0.160 A 
ATOM      4  C   LIG    1       -2.084   3.220  -8.162  0.00  0.00    +0.110 A 
ATOM      5  C   LIG    1       -2.843   3.042  -7.020  0.00  0.00    -0.160 A 
ATOM      6  C   LIG    1       -2.299   2.406  -5.921  0.00  0.00    +0.130 A 
ENDROOT
BRANCH   1   8
ATOM      7  C   LIG    1       -0.773   1.694  -3.608  0.00  0.00    +0.510 C 
ATOM      8  N   LIG    1       -0.437   1.300  -4.853  0.00  0.00    -0.680 N 
ATOM      9  H   LIG    1        0.189   0.570  -4.977  0.00  0.00    +0.420 HD
ATOM     10  O   LIG    1       -1.617   2.551  -3.451  0.00  0.00    -0.490 OA
BRANCH   7  11
ATOM     11  C   LIG    1       -0.100   1.071  -2.413  0.00  0.00    +0.230 C 
BRANCH  11  15
ATOM     12  C   LIG    1       -4.187   1.065   0.330  0.00  0.00    +0.050 C 
ATOM     13  C   LIG    1       -2.775   1.635   0.179  0.00  0.00    +0.160 C 
ATOM     14  C   LIG    1       -2.125   1.063  -1.084  0.00  0.00    +0.160 C 
ATOM     15  N   LIG    1       -0.743   1.553  -1.183  0.00  0.00    -0.520 NA
ATOM     16  C   LIG    1        0.034   1.164   0.004  0.00  0.00    +0.160 C 
ATOM     17  C   LIG    1       -0.637   1.736   1.256  0.00  0.00    +0.200 C 
ATOM     18  C   LIG    1       -0.621   3.265   1.191  0.00  0.00    +0.010 C 
ATOM     19  O   LIG    1       -1.990   1.275   1.318  0.00  0.00    -0.380 OA
ENDBRANCH  11  15
ENDBRANCH   7  11
ENDBRANCH   1   8
BRANCH   5  20
ATOM     20  C   LIG    1       -4.264   3.542  -6.974  0.00  0.00    +0.510 C 
ATOM     21  F   LIG    1       -5.011   2.916  -7.978  0.00  0.00    -0.170 F 
ATOM     22  F   LIG    1       -4.278   4.926  -7.177  0.00  0.00    -0.170 F 
ATOM     23  F   LIG    1       -4.822   3.247  -5.726  0.00  0.00    -0.170 F 
ENDBRANCH   5  20
BRANCH   3  24
ATOM     24  C   LIG    1        0.043   2.960  -9.455  0.00  0.00    +0.510 C 
ATOM     25  F   LIG    1       -0.798   2.963 -10.573  0.00  0.00    -0.170 F 
ATOM     26  F   LIG    1        0.970   1.919  -9.571  0.00  0.00    -0.170 F 
ATOM     27  F   LIG    1        0.721   4.182  -9.379  0.00  0.00    -0.170 F 
ENDBRANCH   3  24
TORSDOF 5
