REMARK  Name = ZINCvU0000000JMK.0
REMARK                            x       y       z     vdW  Elec       q    Type
REMARK                         _______ _______ _______ _____ _____    ______ ____
ROOT
ATOM      1  C   LIG    1       -6.357   1.542  -5.020  0.00  0.00    +0.180 C 
ENDROOT
BRANCH   1   2
ATOM      2  C   LIG    1       -5.312   1.759  -3.956  0.00  0.00    +0.460 A 
ATOM      3  N   LIG    1       -4.176   2.281  -4.318  0.00  0.00    -0.580 NA
ATOM      4  C   LIG    1       -3.164   2.522  -3.456  0.00  0.00    +0.560 A 
ATOM      5  C   LIG    1       -3.426   2.153  -2.047  0.00  0.00    -0.220 A 
ATOM      6  C   LIG    1       -4.659   1.599  -1.720  0.00  0.00    +0.050 A 
ATOM      7  S   LIG    1       -4.717   1.254  -0.011  0.00  0.00    +0.180 S 
ATOM      8  C   LIG    1       -3.085   1.859   0.238  0.00  0.00    -0.200 A 
ATOM      9  C   LIG    1       -2.379   1.886   1.581  0.00  0.00    +0.120 C 
ATOM     10  C   LIG    1       -1.177   2.832   1.492  0.00  0.00    -0.010 C 
ATOM     11  C   LIG    1       -0.308   2.679   2.743  0.00  0.00    +0.030 C 
ATOM     12  C   LIG    1       -0.356   2.472   0.250  0.00  0.00    +0.020 C 
ATOM     13  C   LIG    1       -1.139   2.869  -1.002  0.00  0.00    +0.110 C 
ATOM     14  C   LIG    1       -2.545   2.290  -0.909  0.00  0.00    -0.030 A 
ATOM     15  O   LIG    1       -2.106   3.013  -3.814  0.00  0.00    -0.470 OA
ATOM     16  N   LIG    1       -5.618   1.398  -2.690  0.00  0.00    -0.580 N 
ATOM     17  H   LIG    1       -6.481   1.013  -2.472  0.00  0.00    +0.430 HD
ENDBRANCH   1   2
BRANCH   1  18
ATOM     18  S   LIG    1       -5.713   2.100  -6.621  0.00  0.00    +0.140 S 
BRANCH  18  22
ATOM     19  C   LIG    1       -8.690   1.468  -9.582  0.00  0.00    +0.300 A 
ATOM     20  N   LIG    1       -9.094   1.086  -8.412  0.00  0.00    -0.340 NA
ATOM     21  N   LIG    1       -8.188   1.250  -7.386  0.00  0.00    -0.270 NA
ATOM     22  C   LIG    1       -7.051   1.773  -7.721  0.00  0.00    -0.010 A 
ATOM     23  S   LIG    1       -7.051   2.098  -9.451  0.00  0.00    +0.100 S 
BRANCH  19  24
ATOM     24  N   LIG    1       -9.432   1.391 -10.755  0.00  0.00    -0.620 N 
ATOM     25  H   LIG    1       -9.023   1.621 -11.604  0.00  0.00    +0.430 HD
BRANCH  24  29
ATOM     26  C   LIG    1      -13.412   0.174 -10.625  0.00  0.00    -0.100 A 
ATOM     27  C   LIG    1      -12.854   0.824  -9.540  0.00  0.00    +0.040 A 
ATOM     28  C   LIG    1      -11.534   1.229  -9.580  0.00  0.00    +0.020 A 
ATOM     29  C   LIG    1      -10.767   0.982 -10.711  0.00  0.00    +0.150 A 
ATOM     30  C   LIG    1      -11.333   0.333 -11.802  0.00  0.00    -0.010 A 
ATOM     31  C   LIG    1      -12.652  -0.073 -11.753  0.00  0.00    +0.040 A 
BRANCH  26  33
ATOM     32  C   LIG    1      -15.746   0.854 -11.114  0.00  0.00    +0.030 C 
ATOM     33  C   LIG    1      -14.852  -0.267 -10.578  0.00  0.00    +0.060 C 
ENDBRANCH  26  33
ENDBRANCH  24  29
ENDBRANCH  19  24
ENDBRANCH  18  22
ENDBRANCH   1  18
TORSDOF 6
