REMARK  Name = ZINCpe00000VVGjI.0
REMARK                            x       y       z     vdW  Elec       q    Type
REMARK                         _______ _______ _______ _____ _____    ______ ____
ROOT
ATOM      1  C   LIG    1       -3.107   3.723  -2.965  0.00  0.00    +0.210 C 
ENDROOT
BRANCH   1   2
ATOM      2  N   LIG    1       -4.340   4.520  -3.031  0.00  0.00    -0.520 NA
ATOM      3  C   LIG    1       -4.353   5.555  -1.989  0.00  0.00    +0.170 C 
ATOM      4  C   LIG    1       -5.707   6.268  -1.994  0.00  0.00    +0.030 C 
ATOM      5  C   LIG    1       -5.941   6.899  -3.369  0.00  0.00    +0.270 C 
ATOM      6  C   LIG    1       -5.874   5.808  -4.441  0.00  0.00    +0.030 C 
ATOM      7  C   LIG    1       -4.515   5.108  -4.365  0.00  0.00    +0.180 C 
BRANCH   5   8
ATOM      8  N   LIG    1       -7.261   7.533  -3.399  0.00  0.00    -0.630 N 
ATOM      9  C   LIG    1       -7.516   8.960  -3.647  0.00  0.00    +0.250 C 
ATOM     10  C   LIG    1       -9.050   9.081  -3.570  0.00  0.00    +0.250 C 
ATOM     11  N   LIG    1       -9.497   7.710  -3.277  0.00  0.00    -0.750 N 
ATOM     12  H   LIG    1      -10.419   7.433  -3.160  0.00  0.00    +0.430 HD
ATOM     13  C   LIG    1       -8.428   6.907  -3.198  0.00  0.00    +0.700 C 
ATOM     14  O   LIG    1       -8.510   5.716  -2.965  0.00  0.00    -0.570 OA
ENDBRANCH   5   8
ENDBRANCH   1   2
BRANCH   1  17
ATOM     15  N   LIG    1       -2.181   1.709  -4.063  0.00  0.00    -0.730 N 
ATOM     16  H   LIG    1       -1.335   1.899  -3.627  0.00  0.00    +0.400 HD
ATOM     17  C   LIG    1       -3.239   2.521  -3.864  0.00  0.00    +0.510 C 
ATOM     18  O   LIG    1       -4.296   2.283  -4.409  0.00  0.00    -0.520 OA
BRANCH  15  19
ATOM     19  C   LIG    1       -2.308   0.540  -4.937  0.00  0.00    +0.320 C 
BRANCH  19  25
ATOM     20  C   LIG    1       -0.631  -1.044  -3.954  0.00  0.00    +0.140 A 
ATOM     21  C   LIG    1        0.583  -1.714  -4.003  0.00  0.00    -0.080 A 
ATOM     22  C   LIG    1        1.428  -1.532  -5.080  0.00  0.00    +0.060 A 
ATOM     23  C   LIG    1        1.065  -0.685  -6.110  0.00  0.00    -0.030 A 
ATOM     24  C   LIG    1       -0.145  -0.016  -6.064  0.00  0.00    +0.070 A 
ATOM     25  C   LIG    1       -0.993  -0.194  -4.989  0.00  0.00    -0.140 A 
BRANCH  20  27
ATOM     26  C   LIG    1       -1.026  -2.110  -1.866  0.00  0.00    +0.250 C 
ATOM     27  O   LIG    1       -1.464  -1.220  -2.895  0.00  0.00    -0.310 OA
ENDBRANCH  20  27
ENDBRANCH  19  25
ENDBRANCH  15  19
ENDBRANCH   1  17
TORSDOF 6
