REMARK  Name = ZINCnE000001TxJg.0
REMARK                            x       y       z     vdW  Elec       q    Type
REMARK                         _______ _______ _______ _____ _____    ______ ____
ROOT
ATOM      1  C   LIG    1       -1.388   2.094   0.080  0.00  0.00    +0.180 A 
ATOM      2  C   LIG    1       -0.289   1.310   0.406  0.00  0.00    +0.040 A 
ATOM      3  C   LIG    1        0.977   1.862   0.408  0.00  0.00    +0.040 A 
ATOM      4  C   LIG    1        1.150   3.201   0.088  0.00  0.00    +0.040 A 
ATOM      5  C   LIG    1        0.052   3.986  -0.232  0.00  0.00    +0.020 A 
ATOM      6  C   LIG    1       -1.214   3.436  -0.233  0.00  0.00    -0.010 A 
ENDROOT
BRANCH   1   8
ATOM      7  C   LIG    1       -2.988   0.564   0.954  0.00  0.00    +0.580 C 
ATOM      8  N   LIG    1       -2.671   1.533   0.073  0.00  0.00    -0.660 N 
ATOM      9  H   LIG    1       -3.332   1.842  -0.566  0.00  0.00    +0.420 HD
ATOM     10  O   LIG    1       -2.189   0.233   1.805  0.00  0.00    -0.540 OA
BRANCH   7  11
ATOM     11  C   LIG    1       -4.335  -0.110   0.882  0.00  0.00    -0.230 C 
ATOM     12  C   LIG    1       -5.321   0.160   2.020  0.00  0.00    +0.060 C 
ATOM     13  C   LIG    1       -4.634  -1.202   1.910  0.00  0.00    +0.070 C 
BRANCH  11  15
ATOM     14  O   LIG    1       -4.153  -0.342  -1.465  0.00  0.00    -0.680 OA
ATOM     15  C   LIG    1       -4.901  -0.284  -0.504  0.00  0.00    +0.530 C 
ATOM     16  O   LIG    1       -6.106  -0.367  -0.663  0.00  0.00    -0.680 OA
ENDBRANCH  11  15
ENDBRANCH   7  11
ENDBRANCH   1   8
BRANCH   4  17
ATOM     17  O   LIG    1        2.396   3.744   0.090  0.00  0.00    -0.250 OA
BRANCH  17  18
ATOM     18  C   LIG    1        2.748   4.531   1.140  0.00  0.00    +0.160 A 
ATOM     19  C   LIG    1        4.010   5.107   1.185  0.00  0.00    -0.020 A 
ATOM     20  C   LIG    1        4.366   5.908   2.253  0.00  0.00    +0.080 A 
ATOM     21  C   LIG    1        3.467   6.136   3.278  0.00  0.00    -0.050 A 
ATOM     22  C   LIG    1        2.207   5.563   3.237  0.00  0.00    +0.140 A 
ATOM     23  F   LIG    1        1.329   5.787   4.239  0.00  0.00    -0.140 F 
ATOM     24  C   LIG    1        1.844   4.765   2.166  0.00  0.00    -0.090 A 
ENDBRANCH  17  18
ENDBRANCH   4  17
TORSDOF 5
