REMARK  Name = ZINCvU00000009cb.0
REMARK                            x       y       z     vdW  Elec       q    Type
REMARK                         _______ _______ _______ _____ _____    ______ ____
ROOT
ATOM      1  C   LIG    1        4.808   4.278  -0.129  0.00  0.00    -0.070 A 
ATOM      2  C   LIG    1        3.621   3.559  -0.139  0.00  0.00    +0.080 A 
ATOM      3  C   LIG    1        3.663   2.159  -0.039  0.00  0.00    +0.180 A 
ATOM      4  N   LIG    1        4.794   1.495   0.070  0.00  0.00    -0.420 NA
ATOM      5  C   LIG    1        5.980   2.105   0.083  0.00  0.00    +0.120 A 
ATOM      6  C   LIG    1        7.174   1.367   0.196  0.00  0.00    +0.060 A 
ATOM      7  C   LIG    1        8.369   2.018   0.212  0.00  0.00    +0.030 A 
ATOM      8  C   LIG    1        8.435   3.406   0.118  0.00  0.00    +0.030 A 
ATOM      9  C   LIG    1        7.299   4.153   0.007  0.00  0.00    +0.050 A 
ATOM     10  C   LIG    1        6.053   3.517  -0.012  0.00  0.00    -0.060 A 
ENDROOT
BRANCH   3  11
ATOM     11  C   LIG    1        2.387   1.403  -0.051  0.00  0.00    -0.040 A 
ATOM     12  C   LIG    1        1.337   1.790   0.779  0.00  0.00    +0.060 A 
ATOM     13  C   LIG    1        0.152   1.082   0.764  0.00  0.00    +0.020 A 
ATOM     14  C   LIG    1        0.005  -0.009  -0.073  0.00  0.00    +0.050 A 
ATOM     15  C   LIG    1        1.043  -0.398  -0.900  0.00  0.00    +0.030 A 
ATOM     16  C   LIG    1        2.234   0.302  -0.894  0.00  0.00    -0.000 A 
ATOM     17 CL   LIG    1        3.536  -0.187  -1.933  0.00  0.00    -0.050 Cl
ENDBRANCH   3  11
BRANCH   1  18
ATOM     18  C   LIG    1        4.815   5.752  -0.232  0.00  0.00    +0.520 C 
ATOM     19  O   LIG    1        5.868   6.350  -0.328  0.00  0.00    -0.490 OA
BRANCH  18  20
ATOM     20  O   LIG    1        3.653   6.434  -0.219  0.00  0.00    -0.340 OA
BRANCH  20  21
ATOM     21  C   LIG    1        3.735   7.879  -0.324  0.00  0.00    +0.290 C 
BRANCH  21  25
ATOM     22  C   LIG    1       -0.204   9.542  -0.235  0.00  0.00    -0.110 A 
ATOM     23  C   LIG    1        0.504   9.353   0.953  0.00  0.00    +0.080 A 
ATOM     24  C   LIG    1        1.774   8.816   0.917  0.00  0.00    +0.040 A 
ATOM     25  C   LIG    1        2.347   8.465  -0.293  0.00  0.00    -0.070 A 
ATOM     26  C   LIG    1        1.652   8.655  -1.475  0.00  0.00    +0.030 A 
ATOM     27  C   LIG    1        0.379   9.185  -1.453  0.00  0.00    +0.080 A 
BRANCH  22  28
ATOM     28  C   LIG    1       -1.564  10.117  -0.205  0.00  0.00    +0.510 C 
ATOM     29  O   LIG    1       -2.069  10.427   0.856  0.00  0.00    -0.500 OA
BRANCH  28  31
ATOM     30  C   LIG    1       -3.577  10.868  -1.247  0.00  0.00    +0.290 C 
ATOM     31  O   LIG    1       -2.245  10.298  -1.353  0.00  0.00    -0.350 OA
ENDBRANCH  28  31
ENDBRANCH  22  28
ENDBRANCH  21  25
ENDBRANCH  20  21
ENDBRANCH  18  20
ENDBRANCH   1  18
TORSDOF 7
