REMARK  Name = ZINCrD000000AESx.0
REMARK                            x       y       z     vdW  Elec       q    Type
REMARK                         _______ _______ _______ _____ _____    ______ ____
ROOT
ATOM      1  O   LIG    1       -4.283   2.007  -0.804  0.00  0.00    -0.480 OA
ATOM      2  C   LIG    1       -3.779   2.676  -1.681  0.00  0.00    +0.500 C 
ATOM      3  N   LIG    1       -2.802   3.555  -1.380  0.00  0.00    -0.580 N 
ENDROOT
BRANCH   3   4
ATOM      4  C   LIG    1       -2.114   4.280  -2.451  0.00  0.00    +0.230 C 
ATOM      5  C   LIG    1       -2.880   4.505  -3.757  0.00  0.00    +0.010 C 
ATOM      6  C   LIG    1       -1.733   3.492  -3.706  0.00  0.00    +0.020 C 
ENDBRANCH   3   4
BRANCH   3   7
ATOM      7  C   LIG    1       -2.428   3.785   0.018  0.00  0.00    +0.360 C 
BRANCH   7   8
ATOM      8  C   LIG    1       -1.337   2.823   0.410  0.00  0.00    -0.150 A 
ATOM      9  C   LIG    1       -0.035   3.268   0.536  0.00  0.00    +0.060 A 
ATOM     10  C   LIG    1        0.966   2.386   0.897  0.00  0.00    -0.010 A 
ATOM     11  C   LIG    1        0.667   1.057   1.132  0.00  0.00    +0.050 A 
ATOM     12  C   LIG    1       -0.635   0.609   1.007  0.00  0.00    -0.030 A 
ATOM     13  C   LIG    1       -1.638   1.491   0.641  0.00  0.00    +0.120 A 
ATOM     14  F   LIG    1       -2.909   1.053   0.513  0.00  0.00    -0.110 F 
ENDBRANCH   7   8
ENDBRANCH   3   7
BRANCH   2  15
ATOM     15  C   LIG    1       -4.245   2.526  -3.106  0.00  0.00    +0.400 C 
BRANCH  15  16
ATOM     16  N   LIG    1       -4.959   1.256  -3.255  0.00  0.00    -0.130 N 
ATOM     17  N   LIG    1       -6.224   1.089  -3.087  0.00  0.00    -0.040 NA
ATOM     18  N   LIG    1       -6.515  -0.150  -3.297  0.00  0.00    -0.270 NA
ATOM     19  C   LIG    1       -5.373  -0.779  -3.611  0.00  0.00    +0.210 A 
ATOM     20  N   LIG    1       -4.420   0.131  -3.580  0.00  0.00    -0.290 NA
BRANCH  19  21
ATOM     21  C   LIG    1       -5.215  -2.219  -3.936  0.00  0.00    -0.010 A 
ATOM     22  C   LIG    1       -3.957  -2.729  -4.251  0.00  0.00    +0.070 A 
ATOM     23  C   LIG    1       -3.814  -4.069  -4.547  0.00  0.00    +0.030 A 
ATOM     24  C   LIG    1       -4.918  -4.904  -4.543  0.00  0.00    -0.020 A 
ATOM     25  C   LIG    1       -6.171  -4.399  -4.237  0.00  0.00    +0.030 A 
ATOM     26 CL   LIG    1       -4.733  -6.587  -4.924  0.00  0.00    -0.060 Cl
ATOM     27  C   LIG    1       -6.324  -3.062  -3.934  0.00  0.00    +0.090 A 
ENDBRANCH  19  21
ENDBRANCH  15  16
ENDBRANCH   2  15
TORSDOF 6
