REMARK  Name = ZINCqH0000005Ygr.0
REMARK                            x       y       z     vdW  Elec       q    Type
REMARK                         _______ _______ _______ _____ _____    ______ ____
ROOT
ATOM      1  O   LIG    1       -1.956   2.570   3.398  0.00  0.00    -0.290 OA
ENDROOT
BRANCH   1   5
ATOM      2  C   LIG    1       -0.371   5.130   0.568  0.00  0.00    -0.130 A 
ATOM      3  C   LIG    1       -1.014   5.642   1.698  0.00  0.00    +0.100 A 
ATOM      4  C   LIG    1       -1.538   4.784   2.640  0.00  0.00    -0.040 A 
ATOM      5  C   LIG    1       -1.433   3.411   2.469  0.00  0.00    +0.140 A 
ATOM      6  C   LIG    1       -0.787   2.893   1.346  0.00  0.00    +0.090 A 
ATOM      7  C   LIG    1       -0.261   3.746   0.398  0.00  0.00    +0.040 A 
BRANCH   2   8
ATOM      8  C   LIG    1        0.190   6.046  -0.442  0.00  0.00    +0.510 C 
ATOM      9  O   LIG    1        0.750   5.599  -1.424  0.00  0.00    -0.510 OA
BRANCH   8  11
ATOM     10  C   LIG    1        0.658   8.220  -1.310  0.00  0.00    +0.290 C 
ATOM     11  O   LIG    1        0.083   7.379  -0.276  0.00  0.00    -0.350 OA
ENDBRANCH   8  11
ENDBRANCH   2   8
BRANCH   6  12
ATOM     12  O   LIG    1       -0.682   1.547   1.184  0.00  0.00    -0.300 OA
ATOM     13  C   LIG    1       -0.013   1.086   0.008  0.00  0.00    +0.250 C 
ENDBRANCH   6  12
ENDBRANCH   1   5
BRANCH   1  14
ATOM     14  C   LIG    1       -2.604   3.168   4.522  0.00  0.00    +0.350 C 
BRANCH  14  15
ATOM     15  C   LIG    1       -3.117   2.088   5.439  0.00  0.00    +0.170 A 
ATOM     16  N   LIG    1       -2.467   1.546   6.427  0.00  0.00    -0.350 NA
ATOM     17  O   LIG    1       -3.150   0.707   6.975  0.00  0.00    +0.100 OA
ATOM     18  C   LIG    1       -4.344   0.628   6.367  0.00  0.00    +0.220 A 
ATOM     19  N   LIG    1       -4.329   1.514   5.388  0.00  0.00    -0.440 NA
BRANCH  18  20
ATOM     20  C   LIG    1       -5.460  -0.270   6.728  0.00  0.00    -0.030 A 
ATOM     21  C   LIG    1       -5.330  -1.155   7.800  0.00  0.00    +0.080 A 
ATOM     22  C   LIG    1       -6.376  -1.992   8.132  0.00  0.00    +0.020 A 
ATOM     23  C   LIG    1       -7.553  -1.955   7.405  0.00  0.00    +0.060 A 
ATOM     24  C   LIG    1       -7.690  -1.081   6.342  0.00  0.00    +0.030 A 
ATOM     25  C   LIG    1       -6.653  -0.234   6.002  0.00  0.00    +0.010 A 
ATOM     26 CL   LIG    1       -6.830   0.868   4.673  0.00  0.00    -0.020 Cl
ENDBRANCH  18  20
ENDBRANCH  14  15
ENDBRANCH   1  14
TORSDOF 7
