REMARK  Name = ZINCrH000004ncuG.0
REMARK                            x       y       z     vdW  Elec       q    Type
REMARK                         _______ _______ _______ _____ _____    ______ ____
ROOT
ATOM      1  C   LIG    1       -0.268   1.258  -2.409  0.00  0.00    +0.530 C 
ATOM      2  N   LIG    1       -0.721   1.571  -1.179  0.00  0.00    -0.720 N 
ATOM      3  H   LIG    1       -1.516   2.118  -1.079  0.00  0.00    +0.400 HD
ATOM      4  O   LIG    1        0.726   0.575  -2.534  0.00  0.00    -0.530 OA
ENDROOT
BRANCH   1  11
ATOM      5  C   LIG    1       -4.730   0.883  -3.186  0.00  0.00    +0.130 A 
ATOM      6  C   LIG    1       -4.780  -0.166  -4.091  0.00  0.00    -0.070 A 
ATOM      7  C   LIG    1       -3.639  -0.536  -4.787  0.00  0.00    +0.060 A 
ATOM      8  C   LIG    1       -2.449   0.141  -4.579  0.00  0.00    -0.120 A 
ATOM      9  C   LIG    1       -1.084  -0.061  -5.202  0.00  0.00    +0.080 C 
ATOM     10  C   LIG    1       -0.310   1.242  -4.912  0.00  0.00    +0.070 C 
ATOM     11  C   LIG    1       -0.997   1.758  -3.630  0.00  0.00    +0.040 C 
ATOM     12  C   LIG    1       -2.399   1.189  -3.674  0.00  0.00    -0.060 A 
ATOM     13  C   LIG    1       -3.538   1.559  -2.979  0.00  0.00    +0.000 A 
BRANCH   5  15
ATOM     14  C   LIG    1       -7.040   0.505  -2.766  0.00  0.00    +0.250 C 
ATOM     15  O   LIG    1       -5.847   1.247  -2.502  0.00  0.00    -0.320 OA
ENDBRANCH   5  15
ENDBRANCH   1  11
BRANCH   2  16
ATOM     16  C   LIG    1       -0.013   1.086   0.008  0.00  0.00    +0.240 C 
BRANCH  16  17
ATOM     17  C   LIG    1       -0.729   1.579   1.267  0.00  0.00    +0.260 C 
BRANCH  17  18
ATOM     18  C   LIG    1        0.067   1.185   2.485  0.00  0.00    -0.110 A 
ATOM     19  C   LIG    1       -0.234   0.040   3.157  0.00  0.00    +0.020 A 
ATOM     20  C   LIG    1        0.490  -0.341   4.285  0.00  0.00    +0.020 A 
ATOM     21  C   LIG    1        1.519   0.420   4.747  0.00  0.00    +0.030 A 
ATOM     22  C   LIG    1        1.859   1.609   4.080  0.00  0.00    -0.050 A 
ATOM     23  C   LIG    1        2.915   2.421   4.527  0.00  0.00    +0.030 A 
ATOM     24  C   LIG    1        3.227   3.557   3.845  0.00  0.00    +0.010 A 
ATOM     25  C   LIG    1        2.503   3.938   2.717  0.00  0.00    +0.020 A 
ATOM     26  C   LIG    1        1.470   3.179   2.257  0.00  0.00    +0.020 A 
ATOM     27  C   LIG    1        1.127   1.994   2.929  0.00  0.00    -0.040 A 
ENDBRANCH  17  18
BRANCH  17  28
ATOM     28  O   LIG    1       -2.030   0.991   1.336  0.00  0.00    -0.550 OA
ATOM     29  H   LIG    1       -2.023   0.025   1.372  0.00  0.00    +0.380 HD
ENDBRANCH  17  28
ENDBRANCH  16  17
ENDBRANCH   2  16
TORSDOF 6
