REMARK  Name = ZINCpe000000YdvZ.0
REMARK                            x       y       z     vdW  Elec       q    Type
REMARK                         _______ _______ _______ _____ _____    ______ ____
ROOT
ATOM      1  C   LIG    1        0.956  -4.107  -0.029  0.00  0.00    +0.350 C 
ATOM      2  N   LIG    1        0.641  -2.676  -0.019  0.00  0.00    -0.550 N 
ATOM      3  C   LIG    1        1.645  -1.775  -0.023  0.00  0.00    +0.600 A 
ATOM      4  C   LIG    1        1.334  -0.398  -0.013  0.00  0.00    -0.150 A 
ATOM      5  C   LIG    1        0.002  -0.004   0.002  0.00  0.00    +0.320 A 
ATOM      6  N   LIG    1       -0.983  -0.978   0.006  0.00  0.00    -0.510 N 
ATOM      7  C   LIG    1       -2.396  -0.590   0.021  0.00  0.00    +0.340 C 
ATOM      8  N   LIG    1       -0.016   1.331   0.009  0.00  0.00    -0.490 NA
ATOM      9  C   LIG    1        1.209   1.791   0.000  0.00  0.00    +0.510 A 
ATOM     10  N   LIG    1        2.080   0.764  -0.014  0.00  0.00    -0.410 N 
ATOM     11  O   LIG    1        2.805  -2.145  -0.035  0.00  0.00    -0.510 OA
ATOM     12  C   LIG    1       -0.644  -2.281  -0.004  0.00  0.00    +0.710 A 
ATOM     13  O   LIG    1       -1.523  -3.122  -0.001  0.00  0.00    -0.530 OA
ENDROOT
BRANCH  10  14
ATOM     14  C   LIG    1        3.542   0.861  -0.028  0.00  0.00    +0.340 C 
BRANCH  14  15
ATOM     15  C   LIG    1        4.037   0.779  -1.449  0.00  0.00    +0.390 C 
ATOM     16  O   LIG    1        3.247   0.651  -2.360  0.00  0.00    -0.430 OA
BRANCH  15  17
ATOM     17  C   LIG    1        5.480   0.853  -1.731  0.00  0.00    -0.170 A 
ATOM     18  C   LIG    1        6.395   0.999  -0.684  0.00  0.00    +0.060 A 
ATOM     19  C   LIG    1        7.743   1.067  -0.959  0.00  0.00    +0.010 A 
ATOM     20  C   LIG    1        8.199   0.991  -2.266  0.00  0.00    -0.060 A 
ATOM     21  C   LIG    1        9.609   1.042  -2.814  0.00  0.00    +0.080 C 
ATOM     22  C   LIG    1        9.507   0.475  -4.246  0.00  0.00    +0.030 C 
ATOM     23  C   LIG    1        8.045   0.790  -4.624  0.00  0.00    +0.080 C 
ATOM     24  C   LIG    1        7.298   0.846  -3.308  0.00  0.00    -0.110 A 
ATOM     25  C   LIG    1        5.944   0.771  -3.046  0.00  0.00    +0.090 A 
ENDBRANCH  15  17
ENDBRANCH  14  15
ENDBRANCH  10  14
TORSDOF 3
