REMARK  Name = ZINCrg000009ISVs.0
REMARK                            x       y       z     vdW  Elec       q    Type
REMARK                         _______ _______ _______ _____ _____    ______ ____
ROOT
ATOM      1  C   LIG    1       -6.862   7.336   1.080  0.00  0.00    +0.530 C 
ATOM      2  N   LIG    1       -5.694   7.841   0.635  0.00  0.00    -0.610 N 
ATOM      3  C   LIG    1       -5.263   7.622  -0.752  0.00  0.00    +0.280 C 
ATOM      4  C   LIG    1       -3.854   7.021  -0.741  0.00  0.00    +0.020 C 
ATOM      5  C   LIG    1       -2.924   7.925   0.070  0.00  0.00    +0.040 C 
ATOM      6  C   LIG    1       -3.424   8.009   1.514  0.00  0.00    +0.020 C 
ATOM      7  C   LIG    1       -4.828   8.622   1.530  0.00  0.00    +0.270 C 
ATOM      8  O   LIG    1       -7.568   6.693   0.332  0.00  0.00    -0.530 OA
ENDROOT
BRANCH   1  13
ATOM      9  C   LIG    1       -7.503   5.855   6.455  0.00  0.00    +0.110 C 
ATOM     10  C   LIG    1       -8.469   6.236   5.363  0.00  0.00    +0.530 C 
ATOM     11  N   LIG    1       -8.011   6.529   4.130  0.00  0.00    -0.650 N 
ATOM     12  C   LIG    1       -8.645   6.929   2.859  0.00  0.00    +0.320 C 
ATOM     13  C   LIG    1       -7.290   7.569   2.506  0.00  0.00    -0.020 C 
ATOM     14  C   LIG    1       -6.673   6.577   3.508  0.00  0.00    +0.300 C 
ATOM     15  O   LIG    1       -9.659   6.280   5.594  0.00  0.00    -0.540 OA
ENDBRANCH   1  13
BRANCH   5  16
ATOM     16  C   LIG    1       -1.508   7.345   0.054  0.00  0.00    +0.100 C 
ATOM     17  C   LIG    1       -0.437   8.118  -0.717  0.00  0.00    +0.040 C 
ATOM     18  C   LIG    1       -0.423   8.110   0.814  0.00  0.00    +0.040 C 
BRANCH  16  19
ATOM     19  N   LIG    1       -1.424   5.882   0.046  0.00  0.00    -0.680 N 
ATOM     20  H   LIG    1       -2.235   5.350   0.050  0.00  0.00    +0.410 HD
ATOM     21  C   LIG    1       -0.221   5.276   0.032  0.00  0.00    +0.570 C 
ATOM     22  O   LIG    1        0.795   5.943   0.026  0.00  0.00    -0.520 OA
BRANCH  21  23
ATOM     23  C   LIG    1       -0.136   3.797   0.023  0.00  0.00    +0.070 A 
ATOM     24  C   LIG    1        1.111   3.177   0.008  0.00  0.00    +0.040 A 
ATOM     25  C   LIG    1        1.174   1.792   0.001  0.00  0.00    +0.060 A 
ATOM     26  C   LIG    1       -0.013   1.076   0.008  0.00  0.00    -0.010 A 
ATOM     27  C   LIG    1       -1.218   1.759   0.017  0.00  0.00    +0.270 A 
ATOM     28  N   LIG    1       -1.249   3.074   0.030  0.00  0.00    -0.460 NA
ENDBRANCH  21  23
ENDBRANCH  16  19
ENDBRANCH   5  16
TORSDOF 4
