REMARK  Name = ZINCrD00000e0FaM.2
REMARK                            x       y       z     vdW  Elec       q    Type
REMARK                         _______ _______ _______ _____ _____    ______ ____
ROOT
ATOM      1  C   LIG    1        0.044   0.436   0.174  0.00  0.00    +0.160 A 
ATOM      2  C   LIG    1        1.332  -0.082   0.126  0.00  0.00    -0.030 A 
ATOM      3  C   LIG    1        2.422   0.767   0.159  0.00  0.00    +0.050 A 
ATOM      4  C   LIG    1        2.234   2.133   0.240  0.00  0.00    +0.010 A 
ATOM      5  C   LIG    1        0.949   2.658   0.288  0.00  0.00    +0.160 A 
ATOM      6  C   LIG    1       -0.147   1.808   0.255  0.00  0.00    -0.010 A 
ENDROOT
BRANCH   1   8
ATOM      7  C   LIG    1       -2.168  -0.125   0.844  0.00  0.00    +0.520 C 
ATOM      8  N   LIG    1       -1.059  -0.424   0.140  0.00  0.00    -0.680 N 
ATOM      9  H   LIG    1       -1.025  -1.235  -0.391  0.00  0.00    +0.410 HD
ATOM     10  O   LIG    1       -2.243   0.929   1.440  0.00  0.00    -0.490 OA
BRANCH   7  16
ATOM     11  C   LIG    1       -3.772  -1.263   3.278  0.00  0.00    +0.190 C 
ATOM     12  N   LIG    1       -4.252  -0.747   1.990  0.00  0.00    -0.490 NA
ATOM     13  C   LIG    1       -5.532  -1.393   1.601  0.00  0.00    +0.170 C 
ATOM     14  C   LIG    1       -5.624  -1.188   0.074  0.00  0.00    +0.040 C 
ATOM     15  C   LIG    1       -4.166  -0.995  -0.393  0.00  0.00    +0.050 C 
ATOM     16  C   LIG    1       -3.316  -1.101   0.891  0.00  0.00    +0.120 C 
ENDBRANCH   7  16
ENDBRANCH   1   8
BRANCH   5  17
ATOM     17  N   LIG    1        0.760   4.042   0.369  0.00  0.00    -0.670 N 
ATOM     18  H   LIG    1        0.020   4.401   0.884  0.00  0.00    +0.410 HD
ATOM     19  C   LIG    1        1.606   4.876  -0.267  0.00  0.00    +0.530 C 
ATOM     20  O   LIG    1        2.577   4.432  -0.842  0.00  0.00    -0.510 OA
BRANCH  19  21
ATOM     21  C   LIG    1        1.345   6.360  -0.264  0.00  0.00    +0.050 C 
ATOM     22  C   LIG    1        2.446   7.099  -1.054  0.00  0.00    +0.070 C 
ATOM     23  C   LIG    1        2.589   8.419  -0.268  0.00  0.00    +0.090 C 
ATOM     24  C   LIG    1        2.149   8.090   1.142  0.00  0.00    -0.080 A 
ATOM     25  C   LIG    1        2.357   8.771   2.330  0.00  0.00    +0.010 A 
ATOM     26  C   LIG    1        1.852   8.273   3.515  0.00  0.00    +0.020 A 
ATOM     27  C   LIG    1        1.137   7.090   3.517  0.00  0.00    +0.010 A 
ATOM     28  C   LIG    1        0.929   6.409   2.333  0.00  0.00    +0.020 A 
ATOM     29  C   LIG    1        1.434   6.907   1.144  0.00  0.00    -0.100 A 
ENDBRANCH  19  21
ENDBRANCH   5  17
TORSDOF 4
