REMARK  Name = ZINCvU00000006Yu.0
REMARK                            x       y       z     vdW  Elec       q    Type
REMARK                         _______ _______ _______ _____ _____    ______ ____
ROOT
ATOM      1  C   LIG    1       -2.430  -2.690   0.621  0.00  0.00    +0.140 C 
ENDROOT
BRANCH   1   2
ATOM      2  C   LIG    1       -2.488  -2.300   2.075  0.00  0.00    +0.080 A 
ATOM      3  C   LIG    1       -3.513  -1.622   2.602  0.00  0.00    -0.080 A 
ATOM      4  S   LIG    1       -3.179  -1.380   4.315  0.00  0.00    +0.120 S 
ATOM      5  C   LIG    1       -1.692  -2.207   4.151  0.00  0.00    +0.060 A 
ATOM      6  N   LIG    1       -1.530  -2.594   2.931  0.00  0.00    -0.440 NA
BRANCH   5   7
ATOM      7  C   LIG    1       -0.711  -2.448   5.269  0.00  0.00    +0.280 C 
BRANCH   7   8
ATOM      8  C   LIG    1        0.264  -1.301   5.338  0.00  0.00    +0.270 A 
ATOM      9  N   LIG    1        0.999  -0.886   4.347  0.00  0.00    -0.460 NA
ATOM     10  C   LIG    1        1.759   0.164   4.751  0.00  0.00    +0.050 A 
ATOM     11  C   LIG    1        2.701   0.973   4.111  0.00  0.00    +0.070 A 
ATOM     12  C   LIG    1        3.320   1.975   4.804  0.00  0.00    +0.000 A 
ATOM     13  C   LIG    1        3.023   2.200   6.140  0.00  0.00    +0.030 A 
ATOM     14  C   LIG    1        2.097   1.413   6.792  0.00  0.00    +0.000 A 
ATOM     15  C   LIG    1        1.458   0.391   6.105  0.00  0.00    +0.050 A 
ATOM     16  N   LIG    1        0.509  -0.552   6.447  0.00  0.00    -0.600 N 
ATOM     17  H   LIG    1        0.095  -0.660   7.317  0.00  0.00    +0.420 HD
ENDBRANCH   7   8
ENDBRANCH   5   7
ENDBRANCH   1   2
BRANCH   1  19
ATOM     18  C   LIG    1       -1.017  -2.659  -1.440  0.00  0.00    +0.030 C 
ATOM     19  C   LIG    1       -1.136  -2.159   0.001  0.00  0.00    +0.250 C 
BRANCH  19  20
ATOM     20  N   LIG    1       -1.156  -0.694   0.009  0.00  0.00    -0.720 N 
ATOM     21  H   LIG    1       -2.002  -0.220   0.020  0.00  0.00    +0.390 HD
ATOM     22  C   LIG    1        0.002  -0.004   0.002  0.00  0.00    +0.560 C 
ATOM     23  O   LIG    1        1.063  -0.597  -0.011  0.00  0.00    -0.530 OA
BRANCH  22  24
ATOM     24  C   LIG    1       -0.018   1.474   0.010  0.00  0.00    -0.130 A 
ATOM     25  C   LIG    1       -1.234   2.159   0.020  0.00  0.00    +0.030 A 
ATOM     26  C   LIG    1       -1.246   3.538   0.033  0.00  0.00    +0.010 A 
ATOM     27  C   LIG    1       -0.056   4.243   0.025  0.00  0.00    +0.040 A 
ATOM     28  C   LIG    1        1.154   3.571   0.010  0.00  0.00    -0.070 A 
ATOM     29  C   LIG    1        1.179   2.192   0.003  0.00  0.00    +0.070 A 
BRANCH  28  30
ATOM     30  C   LIG    1        2.446   4.347   0.002  0.00  0.00    +0.030 C 
ATOM     31  C   LIG    1        2.419   5.596   0.898  0.00  0.00    +0.020 C 
ATOM     32  C   LIG    1        3.202   6.314  -0.216  0.00  0.00    +0.010 C 
ATOM     33  C   LIG    1        2.583   5.302  -1.195  0.00  0.00    +0.020 C 
ENDBRANCH  28  30
ENDBRANCH  22  24
ENDBRANCH  19  20
ENDBRANCH   1  19
TORSDOF 7
