REMARK  Name = ZINCrg00000fRFm7.0
REMARK                            x       y       z     vdW  Elec       q    Type
REMARK                         _______ _______ _______ _____ _____    ______ ____
ROOT
ATOM      1  C   LIG    1        1.924   1.094   5.984  0.00  0.00    +0.520 C 
ATOM      2  N   LIG    1        1.258   0.720   4.874  0.00  0.00    -0.620 N 
ATOM      3  C   LIG    1        1.978   0.405   3.631  0.00  0.00    +0.290 C 
ATOM      4  C   LIG    1        1.347   1.206   2.486  0.00  0.00    +0.170 C 
ATOM      5  N   LIG    1       -0.098   0.946   2.450  0.00  0.00    -0.520 NA
ATOM      6  C   LIG    1       -0.754   1.408   3.681  0.00  0.00    +0.170 C 
ATOM      7  C   LIG    1       -0.209   0.615   4.874  0.00  0.00    +0.280 C 
ATOM      8  O   LIG    1        3.134   1.175   5.966  0.00  0.00    -0.540 OA
ENDROOT
BRANCH   5   9
ATOM      9  C   LIG    1       -0.713   1.558   1.264  0.00  0.00    +0.190 C 
ATOM     10  C   LIG    1       -0.302   3.029   1.178  0.00  0.00    +0.000 C 
BRANCH   9  11
ATOM     11  C   LIG    1       -0.242   0.822   0.008  0.00  0.00    +0.100 C 
BRANCH  11  12
ATOM     12  C   LIG    1       -0.741  -0.599   0.042  0.00  0.00    +0.460 C 
ATOM     13  O   LIG    1       -1.488  -0.957   0.922  0.00  0.00    -0.490 OA
BRANCH  12  14
ATOM     14  O   LIG    1       -0.355  -1.468  -0.906  0.00  0.00    -0.370 OA
ATOM     15  C   LIG    1       -0.875  -2.821  -0.810  0.00  0.00    +0.260 C 
ENDBRANCH  12  14
ENDBRANCH  11  12
ENDBRANCH   9  11
ENDBRANCH   5   9
BRANCH   1  16
ATOM     16  C   LIG    1        1.167   1.412   7.247  0.00  0.00    +0.060 C 
BRANCH  16  17
ATOM     17  C   LIG    1        2.153   1.806   8.348  0.00  0.00    +0.090 C 
BRANCH  17  22
ATOM     18  C   LIG    1        0.428   1.422  11.694  0.00  0.00    -0.130 A 
ATOM     19  C   LIG    1       -0.002   2.728  11.931  0.00  0.00    +0.040 A 
ATOM     20  C   LIG    1        0.270   3.718  11.009  0.00  0.00    +0.010 A 
ATOM     21  C   LIG    1        0.971   3.419   9.854  0.00  0.00    +0.040 A 
ATOM     22  C   LIG    1        1.395   2.124   9.611  0.00  0.00    -0.090 A 
ATOM     23  C   LIG    1        1.130   1.126  10.525  0.00  0.00    +0.090 A 
BRANCH  18  27
ATOM     24  C   LIG    1       -0.823  -0.410  14.780  0.00  0.00    +0.290 C 
ATOM     25  N   LIG    1       -0.538   0.646  13.806  0.00  0.00    -0.730 N 
ATOM     26  H   LIG    1       -0.837   1.553  13.973  0.00  0.00    +0.400 HD
ATOM     27  C   LIG    1        0.140   0.356  12.678  0.00  0.00    +0.560 C 
ATOM     28  O   LIG    1        0.515  -0.781  12.469  0.00  0.00    -0.530 OA
ENDBRANCH  18  27
ENDBRANCH  17  22
ENDBRANCH  16  17
ENDBRANCH   1  16
TORSDOF 8
