REMARK  Name = ZINCvU0000000FWD.0
REMARK                            x       y       z     vdW  Elec       q    Type
REMARK                         _______ _______ _______ _____ _____    ______ ____
ROOT
ATOM      1  C   LIG    1       -2.595   6.903   0.474  0.00  0.00    +0.560 C 
ATOM      2  N   LIG    1       -1.313   6.774   0.079  0.00  0.00    -0.610 N 
ATOM      3  C   LIG    1       -0.972   6.439  -1.311  0.00  0.00    +0.320 C 
ATOM      4  C   LIG    1        0.121   5.407  -1.315  0.00  0.00    -0.050 C 
ATOM      5  C   LIG    1        0.798   5.066  -0.243  0.00  0.00    -0.030 C 
ATOM      6  C   LIG    1        0.562   5.637   1.123  0.00  0.00    +0.070 C 
ATOM      7  C   LIG    1       -0.198   6.964   1.022  0.00  0.00    +0.290 C 
ATOM      8  O   LIG    1       -2.854   7.088   1.648  0.00  0.00    -0.510 OA
ENDROOT
BRANCH   5   9
ATOM      9  C   LIG    1        1.858   4.050  -0.392  0.00  0.00    -0.150 A 
ATOM     10  C   LIG    1        3.198   4.271  -0.400  0.00  0.00    +0.240 A 
ATOM     11  N   LIG    1        3.859   3.088  -0.558  0.00  0.00    -0.590 N 
ATOM     12  H   LIG    1        4.824   2.992  -0.595  0.00  0.00    +0.420 HD
ATOM     13  C   LIG    1        2.958   2.050  -0.660  0.00  0.00    +0.090 A 
ATOM     14  C   LIG    1        3.103   0.676  -0.828  0.00  0.00    -0.010 A 
ATOM     15  C   LIG    1        1.988  -0.130  -0.895  0.00  0.00    +0.030 A 
ATOM     16  C   LIG    1        0.715   0.415  -0.797  0.00  0.00    -0.020 A 
ATOM     17  C   LIG    1        0.550   1.772  -0.631  0.00  0.00    +0.050 A 
ATOM     18  C   LIG    1        1.669   2.600  -0.562  0.00  0.00    -0.090 A 
ENDBRANCH   5   9
BRANCH   1  24
ATOM     19  C   LIG    1       -4.824   6.045  -0.250  0.00  0.00    -0.050 A 
ATOM     20  C   LIG    1       -5.844   5.975  -1.192  0.00  0.00    -0.010 A 
ATOM     21  C   LIG    1       -5.734   6.665  -2.381  0.00  0.00    +0.060 A 
ATOM     22  C   LIG    1       -4.610   7.431  -2.647  0.00  0.00    +0.000 A 
ATOM     23  C   LIG    1       -3.591   7.516  -1.724  0.00  0.00    +0.070 A 
ATOM     24  C   LIG    1       -3.684   6.820  -0.516  0.00  0.00    -0.120 A 
BRANCH  19  25
ATOM     25  S   LIG    1       -4.962   5.165   1.271  0.00  0.00    -0.020 S 
BRANCH  25  26
ATOM     26  C   LIG    1       -6.574   4.346   1.124  0.00  0.00    +0.190 C 
BRANCH  26  30
ATOM     27  C   LIG    1       -6.795   0.636   4.481  0.00  0.00    +0.260 C 
ATOM     28  C   LIG    1       -6.929   1.962   3.777  0.00  0.00    +0.180 A 
ATOM     29  N   LIG    1       -6.510   2.251   2.568  0.00  0.00    -0.470 NA
ATOM     30  C   LIG    1       -6.842   3.538   2.368  0.00  0.00    +0.180 A 
ATOM     31  N   LIG    1       -7.442   3.957   3.442  0.00  0.00    -0.360 NA
ATOM     32  O   LIG    1       -7.502   3.067   4.264  0.00  0.00    +0.090 OA
ENDBRANCH  26  30
ENDBRANCH  25  26
ENDBRANCH  19  25
ENDBRANCH   1  24
TORSDOF 5
