REMARK  Name = ZINCrD000000AvwZ.0
REMARK                            x       y       z     vdW  Elec       q    Type
REMARK                         _______ _______ _______ _____ _____    ______ ____
ROOT
ATOM      1  O   LIG    1        5.453   3.413   2.158  0.00  0.00    -0.520 OA
ATOM      2  C   LIG    1        5.029   2.540   2.885  0.00  0.00    +0.520 C 
ATOM      3  N   LIG    1        4.838   2.788   4.196  0.00  0.00    -0.720 N 
ATOM      4  H   LIG    1        4.499   2.090   4.778  0.00  0.00    +0.400 HD
ENDROOT
BRANCH   3   5
ATOM      5  C   LIG    1        5.142   4.113   4.742  0.00  0.00    +0.330 C 
BRANCH   5   6
ATOM      6  C   LIG    1        4.843   4.128   6.219  0.00  0.00    -0.140 A 
ATOM      7  C   LIG    1        5.831   3.781   7.124  0.00  0.00    +0.120 A 
ATOM      8  C   LIG    1        5.554   3.795   8.483  0.00  0.00    -0.020 A 
ATOM      9  C   LIG    1        4.295   4.151   8.920  0.00  0.00    +0.040 A 
ATOM     10  C   LIG    1        3.303   4.497   8.012  0.00  0.00    -0.090 A 
ATOM     11  C   LIG    1        1.949   4.867   8.561  0.00  0.00    +0.080 C 
ATOM     12  C   LIG    1        1.133   5.623   7.515  0.00  0.00    +0.020 C 
ATOM     13  C   LIG    1        1.145   4.812   6.213  0.00  0.00    +0.020 C 
ATOM     14  C   LIG    1        2.554   4.868   5.624  0.00  0.00    +0.070 C 
ATOM     15  C   LIG    1        3.579   4.495   6.663  0.00  0.00    -0.040 A 
BRANCH   7  16
ATOM     16  O   LIG    1        7.068   3.429   6.683  0.00  0.00    -0.490 OA
ATOM     17  H   LIG    1        7.681   4.172   6.599  0.00  0.00    +0.390 HD
ENDBRANCH   7  16
ENDBRANCH   5   6
ENDBRANCH   3   5
BRANCH   2  18
ATOM     18  C   LIG    1        4.717   1.177   2.323  0.00  0.00    +0.080 C 
BRANCH  18  19
ATOM     19  C   LIG    1        5.021   1.162   0.824  0.00  0.00    +0.080 C 
ATOM     20  S   LIG    1        3.899   2.304  -0.038  0.00  0.00    -0.040 S 
ATOM     21  C   LIG    1        2.380   1.404  -0.013  0.00  0.00    -0.140 A 
ATOM     22  C   LIG    1        1.173   2.084   0.002  0.00  0.00    +0.080 A 
ATOM     23  C   LIG    1       -0.017   1.378   0.010  0.00  0.00    +0.000 A 
ATOM     24  C   LIG    1        0.002  -0.004   0.002  0.00  0.00    +0.050 A 
ATOM     25  C   LIG    1        1.203  -0.686  -0.009  0.00  0.00    -0.010 A 
ATOM     26  C   LIG    1        2.406   0.009  -0.013  0.00  0.00    +0.160 A 
ATOM     27  N   LIG    1        3.604  -0.701  -0.035  0.00  0.00    -0.650 N 
ATOM     28  H   LIG    1        3.556  -1.632  -0.303  0.00  0.00    +0.410 HD
ATOM     29  C   LIG    1        4.805  -0.226   0.278  0.00  0.00    +0.530 C 
ATOM     30  O   LIG    1        5.771  -0.942   0.117  0.00  0.00    -0.510 OA
ENDBRANCH  18  19
ENDBRANCH   2  18
TORSDOF 5
