REMARK  Name = ZINCrD00000742V0.0
REMARK                            x       y       z     vdW  Elec       q    Type
REMARK                         _______ _______ _______ _____ _____    ______ ____
ROOT
ATOM      1  C   LIG    1       -0.364   1.946   2.007  0.00  0.00    +0.030 C 
ATOM      2  C   LIG    1       -0.015   1.437   0.608  0.00  0.00    +0.190 C 
ATOM      3  C   LIG    1        0.137  -0.102   0.606  0.00  0.00    +0.090 C 
ATOM      4  C   LIG    1        1.622  -0.294   0.844  0.00  0.00    -0.160 A 
ATOM      5  C   LIG    1        2.352  -1.398   1.230  0.00  0.00    +0.160 A 
ATOM      6  C   LIG    1        3.723  -1.304   1.383  0.00  0.00    -0.700 A 
ATOM      7  C   LIG    1        4.362  -0.100   1.147  0.00  0.00    +0.160 A 
ATOM      8  C   LIG    1        3.637   1.007   0.757  0.00  0.00    -0.030 A 
ATOM      9  C   LIG    1        2.255   0.919   0.598  0.00  0.00    +0.160 A 
ATOM     10  N   LIG    1        1.332   1.895   0.203  0.00  0.00    -0.470 N 
ENDROOT
BRANCH   6  11
ATOM     11  S   LIG    1        4.655  -2.715   1.879  0.00  0.00    +2.710 S 
ATOM     12  O   LIG    1        5.984  -2.497   1.427  0.00  0.00    -0.960 OA
ATOM     13  O   LIG    1        3.886  -3.852   1.513  0.00  0.00    -0.960 OA
BRANCH  11  14
ATOM     14  N   LIG    1        4.717  -2.705   3.534  0.00  0.00    -1.250 NA
ATOM     15  H   LIG    1        4.693  -1.863   4.015  0.00  0.00    +0.420 HD
ATOM     16  H   LIG    1        4.776  -3.541   4.022  0.00  0.00    +0.420 HD
ENDBRANCH  11  14
ENDBRANCH   6  11
BRANCH  10  17
ATOM     17  C   LIG    1        1.649   3.196   0.808  0.00  0.00    +0.210 C 
BRANCH  17  18
ATOM     18  C   LIG    1        0.798   4.285   0.151  0.00  0.00    +0.220 C 
BRANCH  18  19
ATOM     19  O   LIG    1       -0.585   4.016   0.388  0.00  0.00    -0.300 OA
BRANCH  19  20
ATOM     20  C   LIG    1       -1.477   4.944  -0.046  0.00  0.00    +0.140 A 
ATOM     21  C   LIG    1       -1.051   6.020  -0.772  0.00  0.00    -0.090 A 
ATOM     22  C   LIG    1       -1.953   6.977  -1.229  0.00  0.00    +0.040 A 
ATOM     23  C   LIG    1       -3.283   6.875  -0.958  0.00  0.00    -0.010 A 
ATOM     24  C   LIG    1       -3.761   5.785  -0.209  0.00  0.00    -0.020 A 
ATOM     25  C   LIG    1       -5.127   5.648   0.089  0.00  0.00    +0.010 A 
ATOM     26  C   LIG    1       -5.554   4.580   0.817  0.00  0.00    +0.020 A 
ATOM     27  C   LIG    1       -4.655   3.616   1.271  0.00  0.00    -0.010 A 
ATOM     28  C   LIG    1       -3.325   3.717   1.000  0.00  0.00    +0.040 A 
ATOM     29  C   LIG    1       -2.848   4.806   0.254  0.00  0.00    -0.070 A 
ENDBRANCH  19  20
ENDBRANCH  18  19
ENDBRANCH  17  18
ENDBRANCH  10  17
TORSDOF 6
