REMARK  Name = ZINCqH0000050fhl.0
REMARK                            x       y       z     vdW  Elec       q    Type
REMARK                         _______ _______ _______ _____ _____    ______ ____
ROOT
ATOM      1  N   LIG    1       -1.236   2.068   0.021  0.00  0.00    -0.730 N 
ATOM      2  H   LIG    1       -2.070   1.573   0.016  0.00  0.00    +0.410 HD
ENDROOT
BRANCH   1   6
ATOM      3  C   LIG    1        1.224  -2.187  -0.013  0.00  0.00    +0.090 C 
ATOM      4  C   LIG    1        1.206  -0.680  -0.001  0.00  0.00    -0.020 A 
ATOM      5  C   LIG    1        0.002  -0.005   0.007  0.00  0.00    -0.050 A 
ATOM      6  C   LIG    1       -0.016   1.384   0.019  0.00  0.00    +0.230 A 
ATOM      7  C   LIG    1        1.178   2.093   0.021  0.00  0.00    -0.070 A 
ATOM      8  C   LIG    1        2.382   1.417   0.011  0.00  0.00    +0.060 A 
ATOM      9  C   LIG    1        2.399   0.029   0.001  0.00  0.00    +0.080 A 
BRANCH   9  10
ATOM     10  N   LIG    1        3.622  -0.656  -0.008  0.00  0.00    -0.570 N 
ATOM     11  C   LIG    1        4.348  -1.071   1.198  0.00  0.00    +0.250 C 
ATOM     12  C   LIG    1        5.787  -1.376   0.728  0.00  0.00    +0.040 C 
ATOM     13  C   LIG    1        5.565  -1.730  -0.761  0.00  0.00    +0.050 C 
ATOM     14  C   LIG    1        4.277  -1.024  -1.123  0.00  0.00    +0.520 C 
ATOM     15  O   LIG    1        3.893  -0.817  -2.255  0.00  0.00    -0.520 OA
ENDBRANCH   9  10
ENDBRANCH   1   6
BRANCH   1  16
ATOM     16  C   LIG    1       -1.254   3.533   0.033  0.00  0.00    +0.250 C 
ATOM     17  C   LIG    1       -1.132   4.056  -1.399  0.00  0.00    +0.050 C 
BRANCH  16  18
ATOM     18  C   LIG    1       -2.550   4.014   0.635  0.00  0.00    +0.510 C 
ATOM     19  N   LIG    1       -2.789   5.336   0.749  0.00  0.00    -0.670 N 
ATOM     20  H   LIG    1       -2.102   5.976   0.506  0.00  0.00    +0.420 HD
ATOM     21  O   LIG    1       -3.376   3.213   1.016  0.00  0.00    -0.510 OA
BRANCH  19  22
ATOM     22  C   LIG    1       -4.029   5.784   1.217  0.00  0.00    +0.170 A 
ATOM     23  C   LIG    1       -4.582   6.953   0.712  0.00  0.00    -0.020 A 
ATOM     24  C   LIG    1       -5.810   7.391   1.171  0.00  0.00    +0.070 A 
ATOM     25  C   LIG    1       -6.483   6.673   2.141  0.00  0.00    -0.030 A 
ATOM     26  C   LIG    1       -5.933   5.508   2.652  0.00  0.00    +0.120 A 
ATOM     27  F   LIG    1       -6.593   4.808   3.599  0.00  0.00    -0.130 F 
ATOM     28  C   LIG    1       -4.707   5.063   2.191  0.00  0.00    -0.010 A 
ENDBRANCH  19  22
ENDBRANCH  16  18
ENDBRANCH   1  16
TORSDOF 5
