REMARK  Name = ZINCqH0000004WG9.0
REMARK                            x       y       z     vdW  Elec       q    Type
REMARK                         _______ _______ _______ _____ _____    ______ ____
ROOT
ATOM      1  C   LIG    1        1.211   2.665   2.337  0.00  0.00    +0.290 C 
ATOM      2  N   LIG    1        0.051   1.772   2.393  0.00  0.00    -0.610 N 
ATOM      3  C   LIG    1       -0.219   1.087   3.521  0.00  0.00    +0.530 C 
ATOM      4  O   LIG    1       -1.179   0.348   3.567  0.00  0.00    -0.530 OA
ENDROOT
BRANCH   2   5
ATOM      5  C   LIG    1       -0.816   1.624   1.221  0.00  0.00    +0.250 C 
ATOM      6  C   LIG    1       -0.013   1.086   0.008  0.00  0.00    +0.020 C 
ATOM      7  C   LIG    1       -0.838   1.637  -1.182  0.00  0.00    +0.280 C 
ATOM      8  N   LIG    1       -1.288   2.970  -0.744  0.00  0.00    -0.610 N 
ATOM      9  C   LIG    1       -1.628   3.990  -1.556  0.00  0.00    +0.670 C 
ATOM     10  O   LIG    1       -1.987   5.050  -1.082  0.00  0.00    -0.560 OA
ATOM     11  C   LIG    1       -1.307   3.002   0.726  0.00  0.00    +0.280 C 
BRANCH   9  12
ATOM     12  O   LIG    1       -1.570   3.836  -2.892  0.00  0.00    -0.360 OA
BRANCH  12  13
ATOM     13  C   LIG    1       -1.950   4.977  -3.705  0.00  0.00    +0.140 C 
ATOM     14  C   LIG    1       -3.399   5.361  -3.399  0.00  0.00    +0.040 C 
ATOM     15  C   LIG    1       -1.821   4.614  -5.186  0.00  0.00    +0.080 C 
ATOM     16  C   LIG    1       -1.032   6.158  -3.387  0.00  0.00    +0.040 C 
ENDBRANCH  12  13
ENDBRANCH   9  12
ENDBRANCH   2   5
BRANCH   3  17
ATOM     17  C   LIG    1        0.673   1.239   4.727  0.00  0.00    +0.100 C 
BRANCH  17  18
ATOM     18  C   LIG    1        0.149   0.359   5.863  0.00  0.00    +0.100 C 
BRANCH  18  19
ATOM     19  S   LIG    1        1.223   0.542   7.314  0.00  0.00    -0.090 S 
BRANCH  19  20
ATOM     20  C   LIG    1        0.474  -0.526   8.499  0.00  0.00    -0.120 A 
ATOM     21  C   LIG    1       -0.673  -1.236   8.169  0.00  0.00    +0.030 A 
ATOM     22  C   LIG    1       -1.254  -2.077   9.098  0.00  0.00    +0.020 A 
ATOM     23  C   LIG    1       -0.703  -2.204  10.360  0.00  0.00    +0.050 A 
ATOM     24  C   LIG    1        0.436  -1.494  10.695  0.00  0.00    +0.000 A 
ATOM     25  C   LIG    1        1.027  -0.655   9.769  0.00  0.00    +0.110 A 
ATOM     26  F   LIG    1        2.140   0.038  10.097  0.00  0.00    -0.130 F 
ENDBRANCH  19  20
ENDBRANCH  18  19
ENDBRANCH  17  18
ENDBRANCH   3  17
TORSDOF 7
