REMARK  Name = ZINCrH00000tj1o2.0
REMARK                            x       y       z     vdW  Elec       q    Type
REMARK                         _______ _______ _______ _____ _____    ______ ____
ROOT
ATOM      1  N   LIG    1        4.903   7.584   4.976  0.00  0.00    -0.490 N 
ATOM      2  C   LIG    1        6.207   7.096   4.508  0.00  0.00    +0.190 C 
ATOM      3  C   LIG    1        6.077   6.584   3.072  0.00  0.00    +0.030 C 
ATOM      4  C   LIG    1        5.043   5.455   3.030  0.00  0.00    +0.230 C 
ATOM      5  C   LIG    1        3.708   5.976   3.567  0.00  0.00    +0.030 C 
ATOM      6  C   LIG    1        3.907   6.505   4.989  0.00  0.00    +0.200 C 
ENDROOT
BRANCH   1  11
ATOM      7  C   LIG    1        4.002   9.294   8.101  0.00  0.00    -0.060 A 
ATOM      8  C   LIG    1        5.232   9.357   8.729  0.00  0.00    -0.020 A 
ATOM      9  C   LIG    1        6.354   8.833   8.113  0.00  0.00    +0.030 A 
ATOM     10  C   LIG    1        6.248   8.240   6.870  0.00  0.00    -0.050 A 
ATOM     11  C   LIG    1        5.014   8.179   6.234  0.00  0.00    +0.110 A 
ATOM     12  C   LIG    1        3.889   8.707   6.856  0.00  0.00    -0.020 A 
BRANCH   7  14
ATOM     13  C   LIG    1        2.116   8.785   9.629  0.00  0.00    +0.020 C 
ATOM     14  C   LIG    1        2.782   9.866   8.776  0.00  0.00    +0.050 C 
ENDBRANCH   7  14
ENDBRANCH   1  11
BRANCH   4  15
ATOM     15  N   LIG    1        4.872   5.000   1.648  0.00  0.00    -0.720 N 
ATOM     16  H   LIG    1        5.069   5.600   0.912  0.00  0.00    +0.400 HD
ATOM     17  C   LIG    1        4.439   3.748   1.399  0.00  0.00    +0.520 C 
ATOM     18  O   LIG    1        4.192   2.998   2.320  0.00  0.00    -0.520 OA
BRANCH  17  19
ATOM     19  C   LIG    1        4.262   3.280  -0.022  0.00  0.00    +0.180 C 
BRANCH  19  20
ATOM     20  C   LIG    1        3.772   1.855  -0.024  0.00  0.00    +0.150 A 
ATOM     21  N   LIG    1        4.512   0.789  -0.037  0.00  0.00    -0.270 NA
ATOM     22  O   LIG    1        3.691  -0.362  -0.035  0.00  0.00    -0.090 OA
ATOM     23  C   LIG    1        2.396   0.013  -0.021  0.00  0.00    +0.090 A 
ATOM     24  C   LIG    1        1.198  -0.690  -0.013  0.00  0.00    +0.020 A 
ATOM     25  C   LIG    1        0.002  -0.004   0.002  0.00  0.00    +0.080 A 
ATOM     26  C   LIG    1       -0.017   1.383   0.010  0.00  0.00    -0.010 A 
ATOM     27  C   LIG    1        1.151   2.093   0.002  0.00  0.00    +0.090 A 
ATOM     28  C   LIG    1        2.373   1.418  -0.013  0.00  0.00    -0.190 A 
ENDBRANCH  19  20
ENDBRANCH  17  19
ENDBRANCH   4  15
TORSDOF 5
