REMARK  Name = ZINCrH000004jdPy.0
REMARK                            x       y       z     vdW  Elec       q    Type
REMARK                         _______ _______ _______ _____ _____    ______ ____
ROOT
ATOM      1  C   LIG    1        1.884   3.118  -0.448  0.00  0.00    +0.530 C 
ATOM      2  N   LIG    1        1.401   1.942  -0.001  0.00  0.00    -0.610 N 
ATOM      3  C   LIG    1       -0.019   1.545   0.011  0.00  0.00    +0.240 C 
ATOM      4  C   LIG    1        0.002  -0.004   0.002  0.00  0.00    +0.040 C 
ATOM      5  C   LIG    1        1.229  -0.304   0.904  0.00  0.00    +0.050 C 
ATOM      6  C   LIG    1        2.202   0.841   0.555  0.00  0.00    +0.280 C 
ATOM      7  O   LIG    1        3.076   3.337  -0.409  0.00  0.00    -0.500 OA
ENDROOT
BRANCH   6   8
ATOM      8  C   LIG    1        2.916   1.304   1.799  0.00  0.00    -0.080 A 
ATOM      9  C   LIG    1        2.274   2.143   2.690  0.00  0.00    +0.020 A 
ATOM     10  C   LIG    1        2.923   2.567   3.835  0.00  0.00    +0.020 A 
ATOM     11  C   LIG    1        4.225   2.160   4.086  0.00  0.00    +0.050 A 
ATOM     12  O   LIG    1        4.855   2.593   5.212  0.00  0.00    -0.310 OA
ATOM     13  C   LIG    1        6.020   1.867   5.617  0.00  0.00    +0.220 C 
ATOM     14  C   LIG    1        6.902   1.647   4.380  0.00  0.00    +0.220 C 
ATOM     15  O   LIG    1        6.147   0.904   3.417  0.00  0.00    -0.310 OA
ATOM     16  C   LIG    1        4.872   1.319   3.187  0.00  0.00    +0.050 A 
ATOM     17  C   LIG    1        4.213   0.894   2.044  0.00  0.00    +0.030 A 
ENDBRANCH   6   8
BRANCH   1  18
ATOM     18  C   LIG    1        0.943   4.160  -0.995  0.00  0.00    +0.230 C 
BRANCH  18  19
ATOM     19  O   LIG    1        1.690   5.309  -1.401  0.00  0.00    -0.290 OA
BRANCH  19  25
ATOM     20  C   LIG    1        1.647   7.497  -2.335  0.00  0.00    -0.110 A 
ATOM     21  C   LIG    1        0.930   8.553  -2.863  0.00  0.00    +0.050 A 
ATOM     22  C   LIG    1       -0.445   8.467  -2.978  0.00  0.00    -0.030 A 
ATOM     23  C   LIG    1       -1.106   7.325  -2.565  0.00  0.00    +0.040 A 
ATOM     24  C   LIG    1       -0.393   6.264  -2.042  0.00  0.00    -0.080 A 
ATOM     25  C   LIG    1        0.986   6.349  -1.920  0.00  0.00    +0.130 A 
BRANCH  20  27
ATOM     26  C   LIG    1        3.801   6.948  -3.434  0.00  0.00    +0.030 C 
ATOM     27  C   LIG    1        3.146   7.591  -2.210  0.00  0.00    +0.070 C 
ENDBRANCH  20  27
ENDBRANCH  19  25
ENDBRANCH  18  19
ENDBRANCH   1  18
TORSDOF 5
