REMARK  Name = ZINCvU00000007go.0
REMARK                            x       y       z     vdW  Elec       q    Type
REMARK                         _______ _______ _______ _____ _____    ______ ____
ROOT
ATOM      1  C   LIG    1       -1.222   1.762   0.017  0.00  0.00    -0.010 A 
ATOM      2  C   LIG    1       -1.181   3.176   0.030  0.00  0.00    -0.180 A 
ATOM      3  C   LIG    1       -2.172   4.180   0.045  0.00  0.00    +0.300 A 
ATOM      4  N   LIG    1       -1.585   5.343   0.045  0.00  0.00    -0.220 NA
ATOM      5  N   LIG    1       -0.195   5.172   0.031  0.00  0.00    -0.380 N 
ATOM      6  C   LIG    1        0.070   3.827   0.022  0.00  0.00    +0.320 A 
ATOM      7  N   LIG    1        1.190   3.121   0.007  0.00  0.00    -0.470 NA
ATOM      8  C   LIG    1        1.183   1.799   0.000  0.00  0.00    +0.240 A 
ATOM      9  C   LIG    1       -0.013   1.076   0.008  0.00  0.00    -0.010 A 
ENDROOT
BRANCH   8  10
ATOM     10  C   LIG    1        2.473   1.067  -0.016  0.00  0.00    -0.060 A 
ATOM     11  C   LIG    1        2.487  -0.327  -0.018  0.00  0.00    +0.040 A 
ATOM     12  C   LIG    1        3.690  -1.003  -0.039  0.00  0.00    +0.010 A 
ATOM     13  C   LIG    1        4.881  -0.299  -0.047  0.00  0.00    +0.030 A 
ATOM     14  C   LIG    1        4.874   1.084  -0.039  0.00  0.00    +0.000 A 
ATOM     15  C   LIG    1        3.677   1.770  -0.024  0.00  0.00    +0.070 A 
ENDBRANCH   8  10
BRANCH   1  18
ATOM     16  N   LIG    1       -2.525  -0.310   0.011  0.00  0.00    -0.610 N 
ATOM     17  H   LIG    1       -1.690  -0.804   0.004  0.00  0.00    +0.430 HD
ATOM     18  C   LIG    1       -2.510   1.037   0.019  0.00  0.00    +0.570 C 
ATOM     19  O   LIG    1       -3.556   1.657   0.027  0.00  0.00    -0.480 OA
BRANCH  16  24
ATOM     20  C   LIG    1       -5.396  -4.236   0.000  0.00  0.00    +0.160 C 
ATOM     21  C   LIG    1       -5.104  -2.757   0.008  0.00  0.00    +0.120 A 
ATOM     22  C   LIG    1       -6.079  -1.837   0.018  0.00  0.00    -0.300 A 
ATOM     23  S   LIG    1       -5.329  -0.242   0.032  0.00  0.00    +0.210 S 
ATOM     24  C   LIG    1       -3.736  -0.993   0.013  0.00  0.00    +0.280 A 
ATOM     25  N   LIG    1       -3.872  -2.283   0.005  0.00  0.00    -0.480 NA
BRANCH  22  26
ATOM     26  S   LIG    1       -7.810  -2.165   0.025  0.00  0.00    +0.030 S 
BRANCH  26  27
ATOM     27  C   LIG    1       -8.540  -0.504   0.037  0.00  0.00    +0.240 C 
BRANCH  27  28
ATOM     28  C   LIG    1      -10.008  -0.614   0.044  0.00  0.00    +0.220 C 
ATOM     29  N   LIG    1      -11.141  -0.699   0.049  0.00  0.00    -0.390 NA
ENDBRANCH  27  28
ENDBRANCH  26  27
ENDBRANCH  22  26
ENDBRANCH  16  24
ENDBRANCH   1  18
BRANCH   5  30
ATOM     30  C   LIG    1        0.803   6.245   0.027  0.00  0.00    +0.270 C 
ATOM     31  C   LIG    1        0.634   7.103   1.282  0.00  0.00    +0.050 C 
ATOM     32  C   LIG    1        0.611   7.116  -1.216  0.00  0.00    +0.050 C 
ENDBRANCH   5  30
TORSDOF 7
