REMARK  Name = ZINCtV00000L6jAb.0
REMARK                            x       y       z     vdW  Elec       q    Type
REMARK                         _______ _______ _______ _____ _____    ______ ____
ROOT
ATOM      1  C   LIG    1        3.309   2.294  -1.416  0.00  0.00    +0.120 A 
ATOM      2  N   LIG    1        3.433   3.569  -1.188  0.00  0.00    -0.430 NA
ATOM      3  C   LIG    1        4.455   4.183  -1.756  0.00  0.00    +0.120 A 
ATOM      4  C   LIG    1        5.253   3.401  -2.512  0.00  0.00    -0.040 A 
ATOM      5  S   LIG    1        4.619   1.758  -2.464  0.00  0.00    +0.110 S 
ENDROOT
BRANCH   3   6
ATOM      6  C   LIG    1        4.707   5.633  -1.575  0.00  0.00    -0.020 A 
ATOM      7  C   LIG    1        5.738   6.256  -2.279  0.00  0.00    +0.030 A 
ATOM      8  C   LIG    1        5.974   7.602  -2.111  0.00  0.00    +0.030 A 
ATOM      9  C   LIG    1        5.181   8.349  -1.235  0.00  0.00    -0.050 A 
ATOM     10  C   LIG    1        4.152   7.723  -0.534  0.00  0.00    -0.090 A 
ATOM     11  C   LIG    1        3.481   8.770   0.321  0.00  0.00    +0.160 C 
ATOM     12  C   LIG    1        4.215  10.061   0.052  0.00  0.00    -0.090 A 
ATOM     13  C   LIG    1        4.050  11.338   0.541  0.00  0.00    +0.030 A 
ATOM     14  C   LIG    1        4.883  12.358   0.114  0.00  0.00    +0.020 A 
ATOM     15  C   LIG    1        5.883  12.097  -0.805  0.00  0.00    +0.010 A 
ATOM     16  C   LIG    1        6.056  10.821  -1.301  0.00  0.00    +0.030 A 
ATOM     17  C   LIG    1        5.219   9.788  -0.874  0.00  0.00    -0.060 A 
ATOM     18  C   LIG    1        3.911   6.379  -0.705  0.00  0.00    +0.080 A 
ENDBRANCH   3   6
BRANCH   1  29
ATOM     19  O   LIG    1        1.390   2.944   0.700  0.00  0.00    -0.400 OA
ATOM     20  C   LIG    1        1.185   1.968   0.001  0.00  0.00    +0.530 A 
ATOM     21  O   LIG    1       -0.016   1.350   0.009  0.00  0.00    -0.270 OA
ATOM     22  C   LIG    1        0.002  -0.004   0.002  0.00  0.00    +0.140 A 
ATOM     23  C   LIG    1       -1.038  -0.728   0.567  0.00  0.00    +0.020 A 
ATOM     24  C   LIG    1       -1.005  -2.108   0.547  0.00  0.00    +0.080 A 
ATOM     25  C   LIG    1        0.059  -2.781  -0.035  0.00  0.00    +0.000 A 
ATOM     26  C   LIG    1        1.096  -2.090  -0.596  0.00  0.00    +0.090 A 
ATOM     27  C   LIG    1        1.083  -0.690  -0.584  0.00  0.00    -0.150 A 
ATOM     28  C   LIG    1        2.184   0.076  -1.173  0.00  0.00    +0.180 A 
ATOM     29  C   LIG    1        2.240   1.431  -0.877  0.00  0.00    -0.140 A 
ENDBRANCH   1  29
TORSDOF 2
