REMARK  Name = ZINCpk00000KfLj5.0
REMARK                            x       y       z     vdW  Elec       q    Type
REMARK                         _______ _______ _______ _____ _____    ______ ____
ROOT
ATOM      1  C   LIG    1       -4.811   4.436   6.054  0.00  0.00    +0.280 C 
ATOM      2  C   LIG    1       -6.157   4.920   6.598  0.00  0.00    +0.060 C 
ATOM      3  C   LIG    1       -6.891   3.750   7.256  0.00  0.00    +0.010 C 
ATOM      4  C   LIG    1       -7.125   2.647   6.222  0.00  0.00    +0.030 C 
ATOM      5  C   LIG    1       -5.779   2.164   5.679  0.00  0.00    +0.020 C 
ATOM      6  C   LIG    1       -5.045   3.333   5.020  0.00  0.00    +0.200 C 
ENDROOT
BRANCH   1   9
ATOM      7  C   LIG    1       -3.079   3.591   9.105  0.00  0.00    -0.090 A 
ATOM      8  C   LIG    1       -3.964   4.375   8.420  0.00  0.00    +0.310 A 
ATOM      9  N   LIG    1       -4.001   3.910   7.155  0.00  0.00    -0.350 N 
ATOM     10  N   LIG    1       -3.120   2.820   7.098  0.00  0.00    -0.030 NA
ATOM     11  N   LIG    1       -2.590   2.665   8.261  0.00  0.00    -0.190 NA
BRANCH   7  12
ATOM     12  C   LIG    1       -2.720   3.736  10.527  0.00  0.00    +0.560 C 
ATOM     13  O   LIG    1       -3.228   4.614  11.195  0.00  0.00    -0.510 OA
BRANCH  12  15
ATOM     14  C   LIG    1       -1.525   3.095  12.492  0.00  0.00    +0.290 C 
ATOM     15  O   LIG    1       -1.830   2.893  11.086  0.00  0.00    -0.340 OA
ENDBRANCH  12  15
ENDBRANCH   7  12
ENDBRANCH   1   9
BRANCH   6  16
ATOM     16  O   LIG    1       -3.767   2.874   4.505  0.00  0.00    -0.330 OA
BRANCH  16  17
ATOM     17  C   LIG    1       -3.748   2.415   3.238  0.00  0.00    +0.550 C 
ATOM     18  O   LIG    1       -4.771   2.399   2.582  0.00  0.00    -0.520 OA
BRANCH  17  19
ATOM     19  C   LIG    1       -2.487   1.933   2.648  0.00  0.00    -0.290 A 
ATOM     20  C   LIG    1       -2.315   1.442   1.369  0.00  0.00    +0.170 A 
ATOM     21  N   LIG    1       -1.021   1.111   1.237  0.00  0.00    -0.360 N 
ATOM     22  N   LIG    1       -0.363   1.401   2.437  0.00  0.00    -0.300 NA
ATOM     23  C   LIG    1       -0.401   0.547   0.035  0.00  0.00    +0.360 C 
ATOM     24  C   LIG    1       -3.384   1.300   0.316  0.00  0.00    +0.180 C 
ATOM     25  C   LIG    1       -1.226   1.891   3.284  0.00  0.00    +0.310 A 
ENDBRANCH  17  19
ENDBRANCH  16  17
ENDBRANCH   6  16
TORSDOF 6
