REMARK  Name = ZINCqH0000036iqP.1
REMARK                            x       y       z     vdW  Elec       q    Type
REMARK                         _______ _______ _______ _____ _____    ______ ____
ROOT
ATOM      1  C   LIG    1        3.594   2.699   0.138  0.00  0.00    +0.170 C 
ENDROOT
BRANCH   1   6
ATOM      2  C   LIG    1        6.776   1.028  -1.030  0.00  0.00    +0.130 A 
ATOM      3  C   LIG    1        7.297   0.563   0.168  0.00  0.00    -0.080 A 
ATOM      4  C   LIG    1        6.619   0.792   1.350  0.00  0.00    +0.050 A 
ATOM      5  C   LIG    1        5.422   1.483   1.339  0.00  0.00    +0.000 A 
ATOM      6  C   LIG    1        4.900   1.947   0.146  0.00  0.00    -0.050 A 
ATOM      7  C   LIG    1        5.571   1.717  -1.039  0.00  0.00    -0.020 A 
BRANCH   2   9
ATOM      8  C   LIG    1        8.671   0.083  -2.110  0.00  0.00    +0.250 C 
ATOM      9  O   LIG    1        7.440   0.804  -2.194  0.00  0.00    -0.320 OA
ENDBRANCH   2   9
ENDBRANCH   1   6
BRANCH   1  10
ATOM     10  N   LIG    1        3.542   3.604   1.294  0.00  0.00    -0.500 NA
ATOM     11  C   LIG    1        4.699   4.536   1.291  0.00  0.00    +0.180 C 
ATOM     12  C   LIG    1        4.222   5.694   2.203  0.00  0.00    +0.030 C 
ATOM     13  C   LIG    1        2.723   5.822   1.845  0.00  0.00    +0.010 C 
ATOM     14  C   LIG    1        2.336   4.458   1.245  0.00  0.00    +0.170 C 
ENDBRANCH   1  10
BRANCH   1  15
ATOM     15  C   LIG    1        2.433   1.706   0.215  0.00  0.00    +0.310 C 
BRANCH  15  16
ATOM     16  N   LIG    1        2.400   0.896  -1.005  0.00  0.00    -0.740 N 
ATOM     17  H   LIG    1        3.098   0.995  -1.672  0.00  0.00    +0.400 HD
ATOM     18  C   LIG    1        1.399   0.015  -1.202  0.00  0.00    +0.710 C 
ATOM     19  N   LIG    1        1.372  -0.734  -2.323  0.00  0.00    -0.680 N 
ATOM     20  H   LIG    1        2.029  -0.586  -3.021  0.00  0.00    +0.410 HD
ATOM     21  O   LIG    1        0.524  -0.109  -0.367  0.00  0.00    -0.570 OA
BRANCH  19  22
ATOM     22  C   LIG    1        0.394  -1.724  -2.480  0.00  0.00    +0.130 A 
ATOM     23  C   LIG    1       -0.871  -1.544  -1.939  0.00  0.00    +0.050 A 
ATOM     24  C   LIG    1       -1.834  -2.523  -2.095  0.00  0.00    +0.020 A 
ATOM     25  C   LIG    1       -1.539  -3.682  -2.788  0.00  0.00    +0.020 A 
ATOM     26  C   LIG    1       -0.279  -3.866  -3.329  0.00  0.00    +0.010 A 
ATOM     27  C   LIG    1        0.687  -2.888  -3.182  0.00  0.00    +0.070 A 
ATOM     28  F   LIG    1        1.916  -3.066  -3.715  0.00  0.00    -0.140 F 
ENDBRANCH  19  22
ENDBRANCH  15  16
ENDBRANCH   1  15
TORSDOF 6
