REMARK  Name = ZINCrH000004k644.0
REMARK                            x       y       z     vdW  Elec       q    Type
REMARK                         _______ _______ _______ _____ _____    ______ ____
ROOT
ATOM      1  N   LIG    1        4.731   4.741  -0.897  0.00  0.00    -0.670 NA
ATOM      2  C   LIG    1        5.444   4.978  -1.997  0.00  0.00    +0.340 A 
ATOM      3  N   LIG    1        5.051   4.802  -3.280  0.00  0.00    -0.400 NA
ATOM      4  N   LIG    1        5.973   5.120  -4.254  0.00  0.00    -0.230 NA
ATOM      5  C   LIG    1        7.132   5.558  -3.853  0.00  0.00    +0.020 A 
ATOM      6  S   LIG    1        7.055   5.580  -2.084  0.00  0.00    -0.000 S 
ENDROOT
BRANCH   5   7
ATOM      7  C   LIG    1        8.271   5.959  -4.698  0.00  0.00    +0.140 A 
ATOM      8  C   LIG    1        8.284   5.931  -6.054  0.00  0.00    +0.000 A 
ATOM      9  C   LIG    1        9.607   6.411  -6.457  0.00  0.00    -0.120 A 
ATOM     10  C   LIG    1       10.235   6.615  -7.686  0.00  0.00    +0.060 A 
ATOM     11  C   LIG    1       11.517   7.090  -7.722  0.00  0.00    -0.010 A 
ATOM     12  C   LIG    1       12.195   7.369  -6.544  0.00  0.00    +0.030 A 
ATOM     13  C   LIG    1       11.591   7.174  -5.320  0.00  0.00    +0.030 A 
ATOM     14  C   LIG    1       10.290   6.693  -5.260  0.00  0.00    +0.060 A 
ATOM     15  O   LIG    1        9.454   6.414  -4.239  0.00  0.00    -0.190 OA
ENDBRANCH   5   7
BRANCH   1  18
ATOM     16  C   LIG    1        3.347   4.284   1.435  0.00  0.00    +0.270 C 
ATOM     17  N   LIG    1        2.762   4.036   0.115  0.00  0.00    -0.620 N 
ATOM     18  C   LIG    1        3.483   4.276  -0.998  0.00  0.00    +0.670 C 
ATOM     19  O   LIG    1        2.996   4.070  -2.096  0.00  0.00    -0.600 OA
BRANCH  17  20
ATOM     20  C   LIG    1        1.393   3.527   0.005  0.00  0.00    +0.310 C 
BRANCH  20  21
ATOM     21  C   LIG    1        1.416   1.997  -0.001  0.00  0.00    -0.040 C 
ATOM     22  C   LIG    1        2.130   1.502  -1.262  0.00  0.00    +0.070 C 
ATOM     23  C   LIG    1        2.079  -0.029  -1.297  0.00  0.00    +0.040 C 
ATOM     24  C   LIG    1        0.621  -0.487  -1.238  0.00  0.00    +0.250 C 
ATOM     25  N   LIG    1        0.002  -0.004   0.002  0.00  0.00    -0.380 N 
ATOM     26  C   LIG    1       -1.374  -0.511   0.091  0.00  0.00    +0.310 C 
ATOM     27  H   LIG    1        0.534  -0.337   0.792  0.00  0.00    +0.420 HD
ATOM     28  C   LIG    1       -0.018   1.464   0.010  0.00  0.00    +0.260 C 
ENDBRANCH  20  21
ENDBRANCH  17  20
ENDBRANCH   1  18
TORSDOF 4
