REMARK  Name = ZINCrH000004k644.1
REMARK                            x       y       z     vdW  Elec       q    Type
REMARK                         _______ _______ _______ _____ _____    ______ ____
ROOT
ATOM      1  N   LIG    1       -8.529   1.147   0.049  0.00  0.00    -0.670 NA
ATOM      2  C   LIG    1       -7.312   1.687   0.046  0.00  0.00    +0.340 A 
ATOM      3  N   LIG    1       -7.001   3.005   0.051  0.00  0.00    -0.390 NA
ATOM      4  N   LIG    1       -5.659   3.319   0.052  0.00  0.00    -0.230 NA
ATOM      5  C   LIG    1       -4.817   2.326   0.037  0.00  0.00    +0.020 A 
ATOM      6  S   LIG    1       -5.804   0.855   0.035  0.00  0.00    -0.000 S 
ENDROOT
BRANCH   5   7
ATOM      7  C   LIG    1       -3.346   2.409   0.031  0.00  0.00    +0.140 A 
ATOM      8  C   LIG    1       -2.630   3.561   0.043  0.00  0.00    +0.000 A 
ATOM      9  C   LIG    1       -1.221   3.162   0.029  0.00  0.00    -0.120 A 
ATOM     10  C   LIG    1       -0.012   3.860   0.021  0.00  0.00    +0.060 A 
ATOM     11  C   LIG    1        1.168   3.170   0.007  0.00  0.00    -0.010 A 
ATOM     12  C   LIG    1        1.171   1.783   0.000  0.00  0.00    +0.030 A 
ATOM     13  C   LIG    1       -0.013   1.076   0.008  0.00  0.00    +0.020 A 
ATOM     14  C   LIG    1       -1.224   1.755   0.017  0.00  0.00    +0.060 A 
ATOM     15  O   LIG    1       -2.510   1.351   0.022  0.00  0.00    -0.190 OA
ENDBRANCH   5   7
BRANCH   1  18
ATOM     16  C   LIG    1      -10.996  -0.069   0.054  0.00  0.00    +0.260 C 
ATOM     17  N   LIG    1      -10.841   1.388   0.061  0.00  0.00    -0.620 N 
ATOM     18  C   LIG    1       -9.609   1.934   0.058  0.00  0.00    +0.670 C 
ATOM     19  O   LIG    1       -9.479   3.146   0.063  0.00  0.00    -0.600 OA
BRANCH  17  20
ATOM     20  C   LIG    1      -12.024   2.251   0.070  0.00  0.00    +0.300 C 
BRANCH  20  21
ATOM     21  C   LIG    1      -12.443   2.558  -1.369  0.00  0.00    -0.040 C 
ATOM     22  C   LIG    1      -11.351   3.385  -2.054  0.00  0.00    +0.070 C 
ATOM     23  C   LIG    1      -11.814   3.754  -3.466  0.00  0.00    +0.040 C 
ATOM     24  C   LIG    1      -13.144   4.506  -3.381  0.00  0.00    +0.250 C 
ATOM     25  N   LIG    1      -14.153   3.653  -2.741  0.00  0.00    -0.380 N 
ATOM     26  C   LIG    1      -14.280   2.399  -3.495  0.00  0.00    +0.310 C 
ATOM     27  H   LIG    1      -15.040   4.133  -2.735  0.00  0.00    +0.420 HD
ATOM     28  C   LIG    1      -13.750   3.355  -1.362  0.00  0.00    +0.260 C 
ENDBRANCH  20  21
ENDBRANCH  17  20
ENDBRANCH   1  18
TORSDOF 4
