REMARK  Name = ZINCrg00000fRgpy.0
REMARK                            x       y       z     vdW  Elec       q    Type
REMARK                         _______ _______ _______ _____ _____    ______ ____
ROOT
ATOM      1  C   LIG    1        1.228   3.579   0.010  0.00  0.00    +0.420 C 
ENDROOT
BRANCH   1   2
ATOM      2  N   LIG    1        2.627   4.014  -0.002  0.00  0.00    -0.570 N 
ATOM      3  C   LIG    1        3.335   4.243  -1.114  0.00  0.00    +0.710 C 
ATOM      4  N   LIG    1        4.597   4.633  -0.850  0.00  0.00    -0.710 N 
ATOM      5  H   LIG    1        5.285   4.853  -1.497  0.00  0.00    +0.440 HD
ATOM      6  C   LIG    1        4.724   4.661   0.613  0.00  0.00    +0.130 C 
ATOM      7  C   LIG    1        5.792   3.675   1.074  0.00  0.00    +0.050 C 
ATOM      8  C   LIG    1        7.157   4.109   0.532  0.00  0.00    +0.030 C 
ATOM      9  C   LIG    1        7.482   5.515   1.040  0.00  0.00    +0.010 C 
ATOM     10  C   LIG    1        6.415   6.496   0.552  0.00  0.00    +0.040 C 
ATOM     11  C   LIG    1        5.047   6.071   1.095  0.00  0.00    +0.010 C 
ATOM     12  C   LIG    1        3.976   7.040   0.591  0.00  0.00    +0.020 C 
ATOM     13  O   LIG    1        2.889   4.114  -2.237  0.00  0.00    -0.530 OA
ATOM     14  C   LIG    1        3.361   4.238   1.109  0.00  0.00    +0.540 C 
ATOM     15  O   LIG    1        3.002   4.122   2.261  0.00  0.00    -0.460 OA
ENDBRANCH   1   2
BRANCH   1  16
ATOM     16  C   LIG    1        1.170   2.073   0.002  0.00  0.00    +0.460 C 
ATOM     17  O   LIG    1        2.192   1.429  -0.011  0.00  0.00    -0.490 OA
BRANCH  16  18
ATOM     18  O   LIG    1       -0.018   1.448   0.010  0.00  0.00    -0.350 OA
BRANCH  18  19
ATOM     19  C   LIG    1        0.002  -0.004   0.002  0.00  0.00    +0.380 C 
BRANCH  19  24
ATOM     20  N   LIG    1       -2.154  -0.815   1.098  0.00  0.00    -0.290 N 
ATOM     21  N   LIG    1       -3.300  -1.229   0.675  0.00  0.00    -0.080 NA
ATOM     22  N   LIG    1       -3.297  -1.216  -0.612  0.00  0.00    -0.070 NA
ATOM     23  N   LIG    1       -2.156  -0.791  -1.033  0.00  0.00    -0.270 NA
ATOM     24  C   LIG    1       -1.412  -0.526   0.013  0.00  0.00    +0.170 A 
BRANCH  20  25
ATOM     25  C   LIG    1       -1.738  -0.681   2.497  0.00  0.00    +0.340 C 
BRANCH  25  26
ATOM     26  C   LIG    1       -2.093   0.719   3.002  0.00  0.00    +0.020 C 
BRANCH  26  28
ATOM     27  C   LIG    1       -2.014   2.258   4.969  0.00  0.00    +0.030 C 
ATOM     28  C   LIG    1       -1.659   0.858   4.463  0.00  0.00    +0.020 C 
ENDBRANCH  26  28
ENDBRANCH  25  26
ENDBRANCH  20  25
ENDBRANCH  19  24
ENDBRANCH  18  19
ENDBRANCH  16  18
ENDBRANCH   1  16
TORSDOF 8
