REMARK  Name = ZINCpk00000eaIzz.0
REMARK                            x       y       z     vdW  Elec       q    Type
REMARK                         _______ _______ _______ _____ _____    ______ ____
ROOT
ATOM      1  C   LIG    1        2.764   3.776  -2.140  0.00  0.00    +0.090 A 
ATOM      2  C   LIG    1        3.209   4.914  -2.747  0.00  0.00    -0.220 A 
ATOM      3  C   LIG    1        2.663   4.874  -4.112  0.00  0.00    -0.030 A 
ATOM      4  C   LIG    1        1.956   3.737  -4.193  0.00  0.00    +0.190 A 
ATOM      5  O   LIG    1        2.027   3.090  -3.019  0.00  0.00    -0.170 OA
ENDROOT
BRANCH   2   6
ATOM      6  C   LIG    1        4.058   5.964  -2.158  0.00  0.00    +0.590 C 
ATOM      7  N   LIG    1        4.497   6.983  -2.922  0.00  0.00    -0.640 N 
ATOM      8  H   LIG    1        4.255   7.025  -3.861  0.00  0.00    +0.420 HD
ATOM      9  O   LIG    1        4.362   5.911  -0.982  0.00  0.00    -0.440 OA
BRANCH   7  10
ATOM     10  C   LIG    1        5.293   7.966  -2.370  0.00  0.00    +0.550 C 
ATOM     11  N   LIG    1        5.659   7.979  -1.127  0.00  0.00    -0.490 NA
ATOM     12  C   LIG    1        6.492   9.174  -0.921  0.00  0.00    +0.270 C 
ATOM     13  C   LIG    1        6.526   9.833  -2.286  0.00  0.00    +0.510 C 
ATOM     14  O   LIG    1        7.098  10.856  -2.597  0.00  0.00    -0.480 OA
ATOM     15  N   LIG    1        5.785   9.032  -3.081  0.00  0.00    -0.690 N 
ATOM     16  H   LIG    1        5.621   9.190  -4.024  0.00  0.00    +0.420 HD
ENDBRANCH   7  10
ENDBRANCH   2   6
BRANCH   1  17
ATOM     17  C   LIG    1        3.059   3.359  -0.722  0.00  0.00    +0.320 C 
BRANCH  17  27
ATOM     18  C   LIG    1        0.159   4.777  -1.134  0.00  0.00    +0.060 C 
ATOM     19  C   LIG    1        0.713   3.704  -0.195  0.00  0.00    +0.140 C 
ATOM     20  C   LIG    1       -0.024   3.732   1.164  0.00  0.00    +0.090 C 
ATOM     21  C   LIG    1        1.078   3.406   2.152  0.00  0.00    -0.140 A 
ATOM     22  C   LIG    1        1.036   2.997   3.468  0.00  0.00    +0.040 A 
ATOM     23  C   LIG    1        2.211   2.744   4.154  0.00  0.00    -0.020 A 
ATOM     24  C   LIG    1        3.428   2.913   3.520  0.00  0.00    +0.040 A 
ATOM     25  C   LIG    1        3.476   3.325   2.204  0.00  0.00    -0.010 A 
ATOM     26  C   LIG    1        2.297   3.579   1.506  0.00  0.00    +0.100 A 
ATOM     27  N   LIG    1        2.108   4.011   0.188  0.00  0.00    -0.450 N 
ENDBRANCH  17  27
ENDBRANCH   1  17
TORSDOF 4
