REMARK  Name = ZINCtV00000L6kwO.0
REMARK                            x       y       z     vdW  Elec       q    Type
REMARK                         _______ _______ _______ _____ _____    ______ ____
ROOT
ATOM      1  C   LIG    1        1.140   3.195   0.054  0.00  0.00    -0.060 A 
ATOM      2  C   LIG    1        1.165   1.803  -0.061  0.00  0.00    +0.100 A 
ATOM      3  C   LIG    1       -0.015   1.093  -0.069  0.00  0.00    -0.010 A 
ATOM      4  C   LIG    1       -1.231   1.760   0.033  0.00  0.00    +0.180 A 
ATOM      5  C   LIG    1       -1.259   3.146   0.154  0.00  0.00    +0.020 A 
ATOM      6  C   LIG    1       -0.082   3.862   0.162  0.00  0.00    +0.070 A 
ENDROOT
BRANCH   1  13
ATOM      7  C   LIG    1        7.640   7.341   0.109  0.00  0.00    +0.100 C 
ATOM      8  C   LIG    1        6.584   6.266   0.068  0.00  0.00    -0.070 A 
ATOM      9  C   LIG    1        6.954   4.935  -0.058  0.00  0.00    +0.030 A 
ATOM     10  C   LIG    1        6.013   3.952  -0.096  0.00  0.00    +0.080 A 
ATOM     11  C   LIG    1        4.640   4.268  -0.011  0.00  0.00    +0.080 A 
ATOM     12  N   LIG    1        3.582   3.439  -0.032  0.00  0.00    -0.460 NA
ATOM     13  C   LIG    1        2.404   3.960   0.062  0.00  0.00    +0.160 A 
ATOM     14  S   LIG    1        2.518   5.710   0.194  0.00  0.00    +0.070 S 
ATOM     15  C   LIG    1        4.275   5.614   0.116  0.00  0.00    -0.170 A 
ATOM     16  C   LIG    1        5.252   6.606   0.154  0.00  0.00    +0.050 A 
ENDBRANCH   1  13
BRANCH   4  17
ATOM     17  N   LIG    1       -2.424   1.039   0.020  0.00  0.00    -0.620 N 
ATOM     18  H   LIG    1       -2.445   0.130   0.359  0.00  0.00    +0.430 HD
BRANCH  17  19
ATOM     19  C   LIG    1       -3.581   1.620  -0.480  0.00  0.00    +0.280 A 
ATOM     20  N   LIG    1       -3.668   2.783  -1.059  0.00  0.00    -0.320 NA
ATOM     21  N   LIG    1       -4.806   3.156  -1.454  0.00  0.00    -0.210 NA
ATOM     22  C   LIG    1       -5.807   2.360  -1.257  0.00  0.00    +0.020 A 
ATOM     23  S   LIG    1       -5.198   0.913  -0.450  0.00  0.00    +0.050 S 
BRANCH  22  24
ATOM     24  C   LIG    1       -7.238   2.620  -1.651  0.00  0.00    +0.270 C 
BRANCH  24  25
ATOM     25  C   LIG    1       -7.478   2.095  -3.044  0.00  0.00    +0.070 A 
ATOM     26  C   LIG    1       -8.451   1.225  -3.331  0.00  0.00    -0.080 A 
ATOM     27  S   LIG    1       -8.379   0.881  -5.057  0.00  0.00    +0.130 S 
ATOM     28  C   LIG    1       -7.048   1.941  -5.221  0.00  0.00    +0.050 A 
ATOM     29  C   LIG    1       -6.330   2.231  -6.515  0.00  0.00    +0.180 C 
ATOM     30  N   LIG    1       -6.750   2.462  -4.079  0.00  0.00    -0.460 NA
ENDBRANCH  24  25
ENDBRANCH  22  24
ENDBRANCH  17  19
ENDBRANCH   4  17
TORSDOF 5
