REMARK  Name = ZINCrD000000At7A.0
REMARK                            x       y       z     vdW  Elec       q    Type
REMARK                         _______ _______ _______ _____ _____    ______ ____
ROOT
ATOM      1  C   LIG    1       -3.821   9.184  -0.008  0.00  0.00    +0.130 A 
ATOM      2  C   LIG    1       -2.787  10.106  -0.113  0.00  0.00    +0.050 A 
ATOM      3  C   LIG    1       -3.073  11.455  -0.195  0.00  0.00    +0.020 A 
ATOM      4  C   LIG    1       -4.385  11.888  -0.172  0.00  0.00    +0.100 A 
ATOM      5  C   LIG    1       -5.417  10.972  -0.068  0.00  0.00    -0.660 A 
ATOM      6  C   LIG    1       -5.139   9.622   0.008  0.00  0.00    +0.130 A 
ENDROOT
BRANCH   1   9
ATOM      7  O   LIG    1       -5.231   7.474   1.463  0.00  0.00    -0.490 OA
ATOM      8  C   LIG    1       -4.328   7.006   0.803  0.00  0.00    +0.530 C 
ATOM      9  N   LIG    1       -3.535   7.817   0.075  0.00  0.00    -0.670 N 
ATOM     10  H   LIG    1       -2.767   7.453  -0.392  0.00  0.00    +0.420 HD
BRANCH   8  11
ATOM     11  C   LIG    1       -4.092   5.518   0.797  0.00  0.00    +0.120 C 
BRANCH  11  12
ATOM     12  S   LIG    1       -5.313   4.707   1.866  0.00  0.00    +0.010 S 
BRANCH  12  13
ATOM     13  C   LIG    1       -4.886   3.003   1.735  0.00  0.00    +0.100 A 
ATOM     14  C   LIG    1       -5.622   2.051   2.435  0.00  0.00    -0.010 A 
ATOM     15  C   LIG    1       -5.275   0.717   2.323  0.00  0.00    +0.080 A 
ATOM     16  C   LIG    1       -4.201   0.377   1.511  0.00  0.00    -0.040 A 
ATOM     17  C   LIG    1       -3.511   1.373   0.849  0.00  0.00    +0.270 A 
ATOM     18  N   LIG    1       -3.867   2.638   0.971  0.00  0.00    -0.500 NA
ENDBRANCH  12  13
ENDBRANCH  11  12
ENDBRANCH   8  11
ENDBRANCH   1   9
BRANCH   5  19
ATOM     19  S   LIG    1       -7.088  11.530  -0.040  0.00  0.00    +2.680 S 
ATOM     20  O   LIG    1       -7.055  12.876   0.413  0.00  0.00    -0.950 OA
ATOM     21  O   LIG    1       -7.840  10.511   0.606  0.00  0.00    -0.950 OA
BRANCH  19  22
ATOM     22  N   LIG    1       -7.616  11.577  -1.608  0.00  0.00    -0.990 NA
ATOM     23  C   LIG    1       -7.444  12.799  -2.361  0.00  0.00    +0.280 C 
ATOM     24  C   LIG    1       -8.672  13.713  -2.166  0.00  0.00    +0.010 C 
ATOM     25  C   LIG    1       -9.838  13.158  -2.869  0.00  0.00    +0.000 C 
ATOM     26  C   LIG    1      -10.294  11.796  -2.351  0.00  0.00    +0.010 C 
ATOM     27  C   LIG    1       -9.490  10.711  -3.024  0.00  0.00    +0.030 C 
ATOM     28  C   LIG    1       -8.249  10.371  -2.179  0.00  0.00    +0.270 C 
ENDBRANCH  19  22
ENDBRANCH   5  19
TORSDOF 6
