REMARK  Name = ZINCpe00000gN5S2.0
REMARK                            x       y       z     vdW  Elec       q    Type
REMARK                         _______ _______ _______ _____ _____    ______ ____
ROOT
ATOM      1  C   LIG    1       -0.740   1.700   1.231  0.00  0.00    +0.210 C 
ATOM      2  C   LIG    1       -0.012   1.104   0.010  0.00  0.00    +0.130 C 
ATOM      3  C   LIG    1       -0.767   1.659  -1.176  0.00  0.00    +0.030 C 
ATOM      4  N   LIG    1       -1.731   2.416  -0.758  0.00  0.00    -0.160 NA
ATOM      5  N   LIG    1       -1.813   2.513   0.630  0.00  0.00    -0.440 N 
ENDROOT
BRANCH   3   6
ATOM      6  C   LIG    1       -0.458   1.384  -2.579  0.00  0.00    +0.600 C 
ATOM      7  N   LIG    1       -1.286   1.819  -3.550  0.00  0.00    -0.590 N 
ATOM      8  C   LIG    1       -1.006   1.503  -4.959  0.00  0.00    +0.270 C 
ATOM      9  C   LIG    1       -2.300   0.930  -5.565  0.00  0.00    +0.220 C 
ATOM     10  O   LIG    1       -3.351   1.873  -5.358  0.00  0.00    -0.370 OA
ATOM     11  C   LIG    1       -3.699   2.115  -3.994  0.00  0.00    +0.160 C 
ATOM     12  C   LIG    1       -4.629   3.358  -3.967  0.00  0.00    +0.040 C 
ATOM     13  C   LIG    1       -3.666   4.554  -4.130  0.00  0.00    +0.020 C 
ATOM     14  C   LIG    1       -2.285   4.074  -3.645  0.00  0.00    +0.010 C 
ATOM     15  C   LIG    1       -2.463   2.611  -3.211  0.00  0.00    +0.220 C 
ATOM     16  O   LIG    1        0.547   0.763  -2.870  0.00  0.00    -0.520 OA
ENDBRANCH   3   6
BRANCH   5  17
ATOM     17  C   LIG    1       -2.756   3.261   1.337  0.00  0.00    +0.220 A 
ATOM     18  C   LIG    1       -2.736   3.273   2.726  0.00  0.00    -0.050 A 
ATOM     19  C   LIG    1       -3.668   4.019   3.421  0.00  0.00    +0.050 A 
ATOM     20  C   LIG    1       -4.626   4.744   2.737  0.00  0.00    -0.030 A 
ATOM     21  C   LIG    1       -4.652   4.729   1.355  0.00  0.00    +0.050 A 
ATOM     22  C   LIG    1       -3.721   3.991   0.652  0.00  0.00    -0.020 A 
ENDBRANCH   5  17
BRANCH   1  26
ATOM     23  N   LIG    1        1.069   1.997   2.892  0.00  0.00    -0.850 N 
ATOM     24  H   LIG    1        1.671   2.554   3.410  0.00  0.00    +0.410 HD
ATOM     25  H   LIG    1        1.094   1.032   2.990  0.00  0.00    +0.400 HD
ATOM     26  C   LIG    1        0.196   2.564   2.036  0.00  0.00    +0.510 C 
ATOM     27  O   LIG    1        0.164   3.770   1.913  0.00  0.00    -0.510 OA
ENDBRANCH   1  26
TORSDOF 3
