REMARK  Name = ZINCrD000000fO2A.0
REMARK                            x       y       z     vdW  Elec       q    Type
REMARK                         _______ _______ _______ _____ _____    ______ ____
ROOT
ATOM      1  C   LIG    1       -3.610   2.736   3.120  0.00  0.00    +0.590 C 
ATOM      2  N   LIG    1       -4.666   2.779   2.284  0.00  0.00    -0.730 N 
ATOM      3  H   LIG    1       -4.560   2.521   1.355  0.00  0.00    +0.400 HD
ATOM      4  O   LIG    1       -3.743   3.060   4.285  0.00  0.00    -0.520 OA
ENDROOT
BRANCH   1   9
ATOM      5  C   LIG    1       -0.138   1.751   2.494  0.00  0.00    -0.260 A 
ATOM      6  C   LIG    1       -0.717   1.577   1.247  0.00  0.00    +0.100 A 
ATOM      7  N   LIG    1       -2.013   1.914   1.333  0.00  0.00    -0.530 N 
ATOM      8  H   LIG    1       -2.648   1.888   0.601  0.00  0.00    +0.420 HD
ATOM      9  C   LIG    1       -2.299   2.299   2.625  0.00  0.00    -0.070 A 
ATOM     10  C   LIG    1       -0.010   1.098   0.005  0.00  0.00    +0.160 C 
ATOM     11  C   LIG    1       -1.157   2.211   3.363  0.00  0.00    -0.020 A 
ATOM     12  C   LIG    1       -1.007   2.541   4.825  0.00  0.00    +0.120 C 
BRANCH   5  14
ATOM     13  C   LIG    1        1.711   0.119   3.235  0.00  0.00    +0.060 C 
ATOM     14  C   LIG    1        1.264   1.505   2.847  0.00  0.00    +0.430 C 
ATOM     15  O   LIG    1        2.063   2.417   2.827  0.00  0.00    -0.450 OA
ENDBRANCH   5  14
ENDBRANCH   1   9
BRANCH   2  16
ATOM     16  C   LIG    1       -5.975   3.215   2.778  0.00  0.00    +0.340 C 
BRANCH  16  17
ATOM     17  C   LIG    1       -6.976   3.172   1.653  0.00  0.00    -0.070 A 
ATOM     18  C   LIG    1       -7.169   4.287   0.858  0.00  0.00    +0.050 A 
ATOM     19  C   LIG    1       -8.082   4.250  -0.178  0.00  0.00    +0.070 A 
ATOM     20  C   LIG    1       -8.816   3.097  -0.414  0.00  0.00    +0.090 A 
ATOM     21  C   LIG    1       -8.625   1.979   0.390  0.00  0.00    +0.110 A 
ATOM     22  F   LIG    1       -9.337   0.853   0.163  0.00  0.00    -0.120 F 
ATOM     23  C   LIG    1       -7.705   2.020   1.422  0.00  0.00    +0.030 A 
BRANCH  20  24
ATOM     24  N   LIG    1       -9.748   3.059  -1.462  0.00  0.00    -0.420 N 
ATOM     25  C   LIG    1       -9.473   3.158  -2.802  0.00  0.00    +0.130 A 
ATOM     26  C   LIG    1      -10.650   3.070  -3.449  0.00  0.00    +0.160 A 
ATOM     27  N   LIG    1      -11.622   2.931  -2.535  0.00  0.00    -0.480 NA
ATOM     28  C   LIG    1      -11.094   2.923  -1.341  0.00  0.00    +0.220 A 
ATOM     29  C   LIG    1      -11.851   2.786  -0.045  0.00  0.00    +0.180 C 
ENDBRANCH  20  24
ENDBRANCH  16  17
ENDBRANCH   2  16
TORSDOF 5
