REMARK  Name = ZINCpe00000Rfk1W.0
REMARK                            x       y       z     vdW  Elec       q    Type
REMARK                         _______ _______ _______ _____ _____    ______ ____
ROOT
ATOM      1  C   LIG    1       -1.466   3.591  -0.011  0.00  0.00    +0.010 C 
ATOM      2  C   LIG    1       -0.764   3.110   1.262  0.00  0.00    +0.040 C 
ATOM      3  C   LIG    1       -0.729   1.579   1.267  0.00  0.00    +0.050 C 
ATOM      4  C   LIG    1       -0.013   1.086   0.008  0.00  0.00    +0.190 C 
ATOM      5  N   LIG    1       -0.723   1.572  -1.182  0.00  0.00    -0.500 N 
ATOM      6  C   LIG    1       -0.729   3.040  -1.234  0.00  0.00    +0.240 C 
ENDROOT
BRANCH   5   7
ATOM      7  C   LIG    1       -0.180   1.038  -2.334  0.00  0.00    +0.450 A 
ATOM      8  C   LIG    1        1.188   1.196  -2.627  0.00  0.00    -0.310 A 
ATOM      9  C   LIG    1        2.276   1.825  -1.984  0.00  0.00    +0.300 A 
ATOM     10  N   LIG    1        3.341   1.659  -2.714  0.00  0.00    -0.230 NA
ATOM     11  N   LIG    1        3.016   0.922  -3.860  0.00  0.00    -0.380 N 
ATOM     12  C   LIG    1        1.686   0.629  -3.817  0.00  0.00    +0.350 A 
ATOM     13  N   LIG    1        0.846  -0.030  -4.614  0.00  0.00    -0.540 NA
ATOM     14  C   LIG    1       -0.424  -0.151  -4.298  0.00  0.00    +0.570 A 
ATOM     15  N   LIG    1       -0.935   0.360  -3.191  0.00  0.00    -0.530 NA
BRANCH  11  16
ATOM     16  C   LIG    1        3.947   0.532  -4.923  0.00  0.00    +0.360 C 
BRANCH  16  17
ATOM     17  C   LIG    1        4.563  -0.827  -4.587  0.00  0.00    +0.160 C 
BRANCH  17  18
ATOM     18  O   LIG    1        5.471  -1.207  -5.623  0.00  0.00    -0.570 OA
ATOM     19  H   LIG    1        5.900  -2.062  -5.477  0.00  0.00    +0.390 HD
ENDBRANCH  17  18
ENDBRANCH  16  17
ENDBRANCH  11  16
ENDBRANCH   5   7
BRANCH   1  22
ATOM     20  N   LIG    1       -2.049   5.804   0.927  0.00  0.00    -0.730 N 
ATOM     21  H   LIG    1       -2.484   5.343   1.662  0.00  0.00    +0.400 HD
ATOM     22  C   LIG    1       -1.454   5.098  -0.054  0.00  0.00    +0.520 C 
ATOM     23  O   LIG    1       -0.910   5.674  -0.972  0.00  0.00    -0.540 OA
BRANCH  20  24
ATOM     24  C   LIG    1       -2.038   7.269   0.886  0.00  0.00    +0.260 C 
BRANCH  24  26
ATOM     25  C   LIG    1       -2.007   7.445   3.378  0.00  0.00    +0.020 C 
ATOM     26  C   LIG    1       -2.775   7.819   2.108  0.00  0.00    -0.030 C 
ATOM     27  C   LIG    1       -2.872   9.343   2.002  0.00  0.00    +0.030 C 
ENDBRANCH  24  26
ENDBRANCH  20  24
ENDBRANCH   1  22
TORSDOF 7
