REMARK  Name = ZINCzw00000003Rt.0
REMARK                            x       y       z     vdW  Elec       q    Type
REMARK                         _______ _______ _______ _____ _____    ______ ____
ROOT
ATOM      1  N   LIG    1       -4.605  -2.735  -6.208  0.00  0.00    -0.680 N 
ATOM      2  H   LIG    1       -4.732  -1.824  -6.516  0.00  0.00    +0.410 HD
ATOM      3  C   LIG    1       -4.300  -2.975  -4.917  0.00  0.00    +0.710 C 
ATOM      4  N   LIG    1       -4.059  -1.946  -4.080  0.00  0.00    -0.740 N 
ATOM      5  H   LIG    1       -4.106  -1.034  -4.406  0.00  0.00    +0.400 HD
ATOM      6  O   LIG    1       -4.241  -4.118  -4.508  0.00  0.00    -0.560 OA
ENDROOT
BRANCH   1   9
ATOM      7  C   LIG    1       -6.220  -2.352  -8.518  0.00  0.00    +0.110 C 
ATOM      8  C   LIG    1       -5.517  -3.657  -8.244  0.00  0.00    -0.100 A 
ATOM      9  C   LIG    1       -4.739  -3.801  -7.105  0.00  0.00    +0.170 A 
ATOM     10  C   LIG    1       -4.089  -5.004  -6.858  0.00  0.00    +0.040 A 
ATOM     11  C   LIG    1       -4.226  -6.059  -7.739  0.00  0.00    +0.050 A 
ATOM     12  C   LIG    1       -5.000  -5.917  -8.875  0.00  0.00    +0.020 A 
ATOM     13  C   LIG    1       -5.647  -4.716  -9.131  0.00  0.00    +0.130 A 
BRANCH  13  14
ATOM     14  N   LIG    1       -6.433  -4.574 -10.283  0.00  0.00    -0.530 N 
ATOM     15  C   LIG    1       -5.940  -4.130 -11.446  0.00  0.00    +0.530 C 
ATOM     16  C   LIG    1       -7.047  -4.101 -12.477  0.00  0.00    +0.090 C 
ATOM     17  C   LIG    1       -8.280  -4.601 -11.698  0.00  0.00    +0.100 C 
ATOM     18  O   LIG    1       -4.789  -3.805 -11.642  0.00  0.00    -0.470 OA
ATOM     19  C   LIG    1       -7.739  -4.865 -10.310  0.00  0.00    +0.520 C 
ATOM     20  O   LIG    1       -8.387  -5.276  -9.371  0.00  0.00    -0.470 OA
ENDBRANCH  13  14
ENDBRANCH   1   9
BRANCH   4  21
ATOM     21  C   LIG    1       -3.728  -2.207  -2.677  0.00  0.00    +0.340 C 
BRANCH  21  22
ATOM     22  C   LIG    1       -3.507  -0.898  -1.962  0.00  0.00    -0.100 A 
ATOM     23  C   LIG    1       -4.568  -0.257  -1.351  0.00  0.00    +0.080 A 
ATOM     24  C   LIG    1       -4.365   0.943  -0.695  0.00  0.00    +0.030 A 
ATOM     25  C   LIG    1       -3.102   1.501  -0.649  0.00  0.00    +0.040 A 
ATOM     26  C   LIG    1       -2.040   0.859  -1.260  0.00  0.00    -0.160 A 
ATOM     27  C   LIG    1       -2.244  -0.338  -1.921  0.00  0.00    +0.060 A 
BRANCH  26  28
ATOM     28  C   LIG    1       -0.662   1.468  -1.210  0.00  0.00    +0.320 C 
BRANCH  28  29
ATOM     29  N   LIG    1        0.046   0.979  -0.020  0.00  0.00    -0.380 N 
ATOM     30  C   LIG    1       -0.640   1.459   1.186  0.00  0.00    +0.240 C 
ATOM     31  C   LIG    1        0.045   0.888   2.429  0.00  0.00    +0.070 C 
ATOM     32  C   LIG    1        1.507   1.346   2.455  0.00  0.00    +0.060 C 
ATOM     33  C   LIG    1        2.193   0.904   1.159  0.00  0.00    -0.010 C 
ATOM     34  C   LIG    1        1.428   1.474  -0.037  0.00  0.00    +0.290 C 
ATOM     35  H   LIG    1        0.051  -0.030  -0.023  0.00  0.00    +0.420 HD
BRANCH  33  36
ATOM     36  C   LIG    1        3.611   1.414   1.139  0.00  0.00    +0.530 C 
ATOM     37  O   LIG    1        3.974   2.161   0.256  0.00  0.00    -0.530 OA
ATOM     38  N   LIG    1        4.475   1.041   2.104  0.00  0.00    -0.840 N 
ATOM     39  H   LIG    1        5.387   1.370   2.091  0.00  0.00    +0.420 HD
ATOM     40  H   LIG    1        4.184   0.444   2.811  0.00  0.00    +0.410 HD
ENDBRANCH  33  36
ENDBRANCH  28  29
ENDBRANCH  26  28
ENDBRANCH  21  22
ENDBRANCH   4  21
TORSDOF 7
