REMARK  Name = ZINCzw00000003Rt.1
REMARK                            x       y       z     vdW  Elec       q    Type
REMARK                         _______ _______ _______ _____ _____    ______ ____
ROOT
ATOM      1  N   LIG    1       -8.938   6.173  -6.934  0.00  0.00    -0.680 N 
ATOM      2  H   LIG    1       -9.562   6.130  -6.193  0.00  0.00    +0.410 HD
ATOM      3  C   LIG    1       -7.836   5.397  -6.933  0.00  0.00    +0.710 C 
ATOM      4  N   LIG    1       -7.541   4.647  -5.852  0.00  0.00    -0.740 N 
ATOM      5  H   LIG    1       -8.122   4.666  -5.076  0.00  0.00    +0.400 HD
ATOM      6  O   LIG    1       -7.108   5.374  -7.906  0.00  0.00    -0.560 OA
ENDROOT
BRANCH   1   9
ATOM      7  C   LIG    1      -11.626   6.950  -7.446  0.00  0.00    +0.110 C 
ATOM      8  C   LIG    1      -10.479   7.444  -8.290  0.00  0.00    -0.100 A 
ATOM      9  C   LIG    1       -9.183   7.039  -8.006  0.00  0.00    +0.170 A 
ATOM     10  C   LIG    1       -8.127   7.500  -8.783  0.00  0.00    +0.040 A 
ATOM     11  C   LIG    1       -8.369   8.351  -9.844  0.00  0.00    +0.050 A 
ATOM     12  C   LIG    1       -9.659   8.756 -10.129  0.00  0.00    +0.020 A 
ATOM     13  C   LIG    1      -10.717   8.303  -9.352  0.00  0.00    +0.130 A 
BRANCH  13  14
ATOM     14  N   LIG    1      -12.026   8.714  -9.643  0.00  0.00    -0.530 N 
ATOM     15  C   LIG    1      -12.579   9.806  -9.102  0.00  0.00    +0.530 C 
ATOM     16  C   LIG    1      -13.990   9.962  -9.627  0.00  0.00    +0.090 C 
ATOM     17  C   LIG    1      -14.161   8.752 -10.568  0.00  0.00    +0.100 C 
ATOM     18  O   LIG    1      -12.036  10.554  -8.318  0.00  0.00    -0.470 OA
ATOM     19  C   LIG    1      -12.827   8.043 -10.479  0.00  0.00    +0.520 C 
ATOM     20  O   LIG    1      -12.531   7.027 -11.072  0.00  0.00    -0.470 OA
ENDBRANCH  13  14
ENDBRANCH   1   9
BRANCH   4  21
ATOM     21  C   LIG    1       -6.343   3.804  -5.851  0.00  0.00    +0.340 C 
BRANCH  21  22
ATOM     22  C   LIG    1       -6.244   3.075  -4.536  0.00  0.00    -0.100 A 
ATOM     23  C   LIG    1       -6.835   1.835  -4.387  0.00  0.00    +0.070 A 
ATOM     24  C   LIG    1       -6.745   1.165  -3.181  0.00  0.00    +0.030 A 
ATOM     25  C   LIG    1       -6.062   1.736  -2.123  0.00  0.00    +0.050 A 
ATOM     26  C   LIG    1       -5.470   2.977  -2.272  0.00  0.00    -0.160 A 
ATOM     27  C   LIG    1       -5.564   3.648  -3.477  0.00  0.00    +0.050 A 
BRANCH  26  28
ATOM     28  C   LIG    1       -4.725   3.599  -1.119  0.00  0.00    +0.320 C 
BRANCH  28  29
ATOM     29  N   LIG    1       -3.315   3.192  -1.170  0.00  0.00    -0.380 N 
ATOM     30  C   LIG    1       -2.691   3.744  -2.379  0.00  0.00    +0.240 C 
ATOM     31  C   LIG    1       -1.243   3.257  -2.478  0.00  0.00    +0.050 C 
ATOM     32  C   LIG    1       -0.468   3.725  -1.242  0.00  0.00    +0.070 C 
ATOM     33  C   LIG    1       -1.170   3.206   0.016  0.00  0.00    +0.010 C 
ATOM     34  C   LIG    1       -2.621   3.694   0.022  0.00  0.00    +0.290 C 
ATOM     35  H   LIG    1       -3.257   2.185  -1.192  0.00  0.00    +0.430 HD
BRANCH  33  36
ATOM     36  C   LIG    1       -1.147   1.699   0.020  0.00  0.00    +0.520 C 
ATOM     37  O   LIG    1       -2.187   1.076   0.031  0.00  0.00    -0.560 OA
ATOM     38  N   LIG    1        0.031   1.044   0.011  0.00  0.00    -0.830 N 
ATOM     39  H   LIG    1        0.863   1.542  -0.002  0.00  0.00    +0.410 HD
ATOM     40  H   LIG    1        0.047   0.074   0.014  0.00  0.00    +0.420 HD
ENDBRANCH  33  36
ENDBRANCH  28  29
ENDBRANCH  26  28
ENDBRANCH  21  22
ENDBRANCH   4  21
TORSDOF 7
