REMARK  Name = ZINCvU0000000AlW.0
REMARK                            x       y       z     vdW  Elec       q    Type
REMARK                         _______ _______ _______ _____ _____    ______ ____
ROOT
ATOM      1  N   LIG    1        1.435  -7.102  -0.059  0.00  0.00    -0.610 N 
ATOM      2  H   LIG    1        1.357  -7.008   0.903  0.00  0.00    +0.430 HD
ATOM      3  C   LIG    1        1.229  -6.038  -0.860  0.00  0.00    +0.540 C 
ATOM      4  O   LIG    1        1.327  -6.156  -2.063  0.00  0.00    -0.490 OA
ENDROOT
BRANCH   1   8
ATOM      5  C   LIG    1        2.278 -10.510  -0.639  0.00  0.00    +0.130 A 
ATOM      6  C   LIG    1        2.317 -10.346  -1.974  0.00  0.00    -0.110 A 
ATOM      7  S   LIG    1        1.938  -8.663  -2.333  0.00  0.00    +0.210 S 
ATOM      8  C   LIG    1        1.760  -8.335  -0.612  0.00  0.00    +0.270 A 
ATOM      9  N   LIG    1        1.984  -9.422   0.059  0.00  0.00    -0.490 NA
BRANCH   5  14
ATOM     10  C   LIG    1        3.341 -15.582   1.873  0.00  0.00    +0.090 C 
ATOM     11  C   LIG    1        3.062 -14.255   1.215  0.00  0.00    -0.080 A 
ATOM     12  C   LIG    1        2.754 -13.152   1.992  0.00  0.00    +0.010 A 
ATOM     13  C   LIG    1        2.499 -11.934   1.396  0.00  0.00    +0.050 A 
ATOM     14  C   LIG    1        2.552 -11.816   0.008  0.00  0.00    -0.030 A 
ATOM     15  C   LIG    1        2.857 -12.932  -0.770  0.00  0.00    +0.030 A 
ATOM     16  C   LIG    1        3.116 -14.143  -0.163  0.00  0.00    +0.010 A 
ENDBRANCH   5  14
ENDBRANCH   1   8
BRANCH   3  17
ATOM     17  C   LIG    1        0.877  -4.701  -0.260  0.00  0.00    +0.120 C 
BRANCH  17  18
ATOM     18  S   LIG    1        0.664  -3.483  -1.582  0.00  0.00    +0.100 S 
BRANCH  18  19
ATOM     19  C   LIG    1        0.271  -2.058  -0.625  0.00  0.00    +0.140 A 
ATOM     20  N   LIG    1        0.179  -1.996   0.683  0.00  0.00    -0.290 NA
ATOM     21  N   LIG    1       -0.125  -0.801   1.044  0.00  0.00    -0.270 NA
ATOM     22  C   LIG    1       -0.245  -0.035  -0.003  0.00  0.00    +0.200 A 
ATOM     23  N   LIG    1       -0.003  -0.808  -1.104  0.00  0.00    -0.430 N 
BRANCH  23  24
ATOM     24  C   LIG    1       -0.028  -0.385  -2.506  0.00  0.00    +0.190 C 
ATOM     25  C   LIG    1       -0.116  -1.478  -3.573  0.00  0.00    +0.070 C 
ATOM     26  C   LIG    1        1.194  -0.713  -3.366  0.00  0.00    +0.060 C 
ENDBRANCH  23  24
BRANCH  22  27
ATOM     27  C   LIG    1       -0.594   1.431  -0.001  0.00  0.00    +0.250 C 
BRANCH  27  28
ATOM     28  C   LIG    1        0.670   2.248   0.080  0.00  0.00    -0.190 A 
ATOM     29  C   LIG    1        1.378   2.676  -0.966  0.00  0.00    +0.020 A 
ATOM     30  C   LIG    1        2.504   3.414  -0.646  0.00  0.00    +0.000 A 
ATOM     31  C   LIG    1        2.716   3.578   0.660  0.00  0.00    -0.040 A 
ATOM     32  S   LIG    1        1.442   2.776   1.570  0.00  0.00    +0.130 S 
ENDBRANCH  27  28
ENDBRANCH  22  27
ENDBRANCH  18  19
ENDBRANCH  17  18
ENDBRANCH   3  17
TORSDOF 8
