REMARK  Name = ZINCc70000003YRQ.0
REMARK                            x       y       z     vdW  Elec       q    Type
REMARK                         _______ _______ _______ _____ _____    ______ ____
ROOT
ATOM      1  C   LIG    1       -2.524   4.029  -0.201  0.00  0.00    +0.160 C 
ATOM      2  C   LIG    1       -1.232   3.262  -0.087  0.00  0.00    +0.210 A 
ATOM      3  C   LIG    1       -1.241   1.912  -0.101  0.00  0.00    -0.140 A 
ATOM      4  C   LIG    1       -0.015   1.214   0.013  0.00  0.00    +0.550 A 
ATOM      5  N   LIG    1        1.135   1.909   0.121  0.00  0.00    -0.660 N 
ATOM      6  H   LIG    1        1.980   1.438   0.196  0.00  0.00    +0.430 HD
ATOM      7  C   LIG    1        1.116   3.255   0.126  0.00  0.00    +0.700 A 
ATOM      8  O   LIG    1        2.161   3.869   0.224  0.00  0.00    -0.530 OA
ATOM      9  O   LIG    1        0.002  -0.004   0.009  0.00  0.00    -0.520 OA
ATOM     10  N   LIG    1       -0.043   3.930   0.024  0.00  0.00    -0.510 N 
ENDROOT
BRANCH  10  11
ATOM     11  C   LIG    1       -0.032   5.396   0.032  0.00  0.00    +0.190 C 
ATOM     12  C   LIG    1        0.831   6.090   1.087  0.00  0.00    +0.080 C 
ATOM     13  C   LIG    1       -0.694   6.100   1.217  0.00  0.00    +0.040 C 
ENDBRANCH  10  11
TORSDOF 1
