REMARK  Name = ZINCpk00000y6x3h.0
REMARK                            x       y       z     vdW  Elec       q    Type
REMARK                         _______ _______ _______ _____ _____    ______ ____
ROOT
ATOM      1  C   LIG    1        1.482  -0.442   0.013  0.00  0.00    +0.210 C 
ATOM      2  C   LIG    1        2.207   0.798   0.598  0.00  0.00    +0.090 C 
ATOM      3  C   LIG    1        1.372   1.958  -0.001  0.00  0.00    +0.250 C 
ATOM      4  N   LIG    1       -0.018   1.466   0.010  0.00  0.00    -0.610 N 
ATOM      5  C   LIG    1       -1.124   2.236   0.020  0.00  0.00    +0.530 C 
ATOM      6  O   LIG    1       -2.222   1.722   0.022  0.00  0.00    -0.510 OA
ATOM      7  C   LIG    1        0.002  -0.004   0.002  0.00  0.00    +0.260 C 
ENDROOT
BRANCH   1  10
ATOM      8  N   LIG    1        1.608  -3.638   1.740  0.00  0.00    -0.280 N 
ATOM      9  C   LIG    1        1.184  -2.890   0.695  0.00  0.00    +0.160 A 
ATOM     10  C   LIG    1        1.675  -1.645   0.900  0.00  0.00    -0.050 A 
ATOM     11  N   LIG    1        2.371  -1.694   2.042  0.00  0.00    -0.250 NA
ATOM     12  N   LIG    1        2.307  -2.887   2.517  0.00  0.00    -0.080 NA
BRANCH   8  14
ATOM     13  C   LIG    1       -0.034  -5.208   2.647  0.00  0.00    +0.060 C 
ATOM     14  C   LIG    1        1.320  -5.059   1.950  0.00  0.00    +0.250 C 
ATOM     15  C   LIG    1        1.279  -5.777   0.599  0.00  0.00    +0.060 C 
ENDBRANCH   8  14
ENDBRANCH   1  10
BRANCH   1  16
ATOM     16  O   LIG    1        1.938  -0.716  -1.314  0.00  0.00    -0.530 OA
ATOM     17  H   LIG    1        1.462  -1.434  -1.753  0.00  0.00    +0.380 HD
ENDBRANCH   1  16
BRANCH   5  18
ATOM     18  C   LIG    1       -0.996   3.738   0.027  0.00  0.00    +0.250 C 
BRANCH  18  19
ATOM     19  O   LIG    1       -2.298   4.327   0.037  0.00  0.00    -0.280 OA
BRANCH  19  20
ATOM     20  C   LIG    1       -2.361   5.685   0.044  0.00  0.00    +0.090 A 
ATOM     21  C   LIG    1       -1.194   6.434   0.043  0.00  0.00    -0.040 A 
ATOM     22  C   LIG    1       -1.261   7.815   0.051  0.00  0.00    +0.040 A 
ATOM     23  C   LIG    1       -2.489   8.450   0.060  0.00  0.00    +0.010 A 
ATOM     24  C   LIG    1       -3.655   7.706   0.062  0.00  0.00    +0.020 A 
ATOM     25  C   LIG    1       -3.594   6.325   0.048  0.00  0.00    +0.070 A 
ATOM     26  F   LIG    1       -4.733   5.598   0.044  0.00  0.00    -0.130 F 
ENDBRANCH  19  20
ENDBRANCH  18  19
ENDBRANCH   5  18
TORSDOF 6
