REMARK  Name = ZINCnE00000dSMvJ.0
REMARK                            x       y       z     vdW  Elec       q    Type
REMARK                         _______ _______ _______ _____ _____    ______ ____
ROOT
ATOM      1  C   LIG    1        3.182   1.249  -2.800  0.00  0.00    -0.030 C 
ATOM      2  C   LIG    1        2.521   0.603  -4.019  0.00  0.00    +0.010 C 
ATOM      3  C   LIG    1        1.013   0.490  -3.785  0.00  0.00    +0.010 C 
ATOM      4  C   LIG    1        0.423   1.892  -3.601  0.00  0.00    +0.250 C 
ATOM      5  N   LIG    1        1.152   2.574  -2.523  0.00  0.00    -0.600 N 
ATOM      6  C   LIG    1        0.490   3.113  -1.480  0.00  0.00    +0.520 C 
ATOM      7  O   LIG    1        1.093   3.745  -0.640  0.00  0.00    -0.520 OA
ATOM      8  C   LIG    1        2.616   2.664  -2.607  0.00  0.00    +0.280 C 
ENDROOT
BRANCH   6   9
ATOM      9  C   LIG    1       -1.001   2.929  -1.358  0.00  0.00    -0.010 C 
ATOM     10  C   LIG    1       -1.298   1.843  -0.322  0.00  0.00    +0.050 C 
ATOM     11  C   LIG    1       -0.723   2.260   1.033  0.00  0.00    +0.020 C 
ATOM     12  C   LIG    1       -1.365   3.576   1.476  0.00  0.00    +0.030 C 
ATOM     13  C   LIG    1       -1.067   4.663   0.440  0.00  0.00    +0.050 C 
ATOM     14  C   LIG    1       -1.643   4.246  -0.915  0.00  0.00    +0.010 C 
BRANCH  14  15
ATOM     15  C   LIG    1       -1.345   5.332  -1.951  0.00  0.00    +0.450 C 
ATOM     16  F   LIG    1        0.029   5.595  -1.970  0.00  0.00    -0.170 F 
ATOM     17  F   LIG    1       -2.039   6.499  -1.615  0.00  0.00    -0.180 F 
ATOM     18  F   LIG    1       -1.754   4.894  -3.216  0.00  0.00    -0.190 F 
ENDBRANCH  14  15
ENDBRANCH   6   9
BRANCH   1  19
ATOM     19  C   LIG    1        4.694   1.331  -3.021  0.00  0.00    +0.030 C 
BRANCH  19  20
ATOM     20  C   LIG    1        5.275  -0.083  -3.095  0.00  0.00    -0.070 C 
BRANCH  20  22
ATOM     21  O   LIG    1        7.310   1.085  -3.401  0.00  0.00    -0.700 OA
ATOM     22  C   LIG    1        6.764  -0.002  -3.313  0.00  0.00    +0.490 C 
ATOM     23  O   LIG    1        7.423  -1.024  -3.401  0.00  0.00    -0.710 OA
ENDBRANCH  20  22
ENDBRANCH  19  20
ENDBRANCH   1  19
TORSDOF 5
