REMARK  Name = ZINCpe00000MJIsa.0
REMARK                            x       y       z     vdW  Elec       q    Type
REMARK                         _______ _______ _______ _____ _____    ______ ____
ROOT
ATOM      1  C   LIG    1        4.778   0.024  -3.571  0.00  0.00    +0.120 C 
ATOM      2  C   LIG    1        6.161   0.710  -3.599  0.00  0.00    +0.050 C 
ATOM      3  C   LIG    1        6.931   0.015  -4.740  0.00  0.00    +0.050 C 
ATOM      4  C   LIG    1        5.949  -1.033  -5.306  0.00  0.00    +0.120 C 
ATOM      5  N   LIG    1        5.009  -1.308  -4.189  0.00  0.00    -0.450 NA
ENDROOT
BRANCH   4   6
ATOM      6  C   LIG    1        6.686  -2.289  -5.693  0.00  0.00    +0.520 C 
ATOM      7  O   LIG    1        6.465  -3.328  -5.106  0.00  0.00    -0.500 OA
ATOM      8  N   LIG    1        7.592  -2.259  -6.691  0.00  0.00    -0.860 N 
ATOM      9  H   LIG    1        8.066  -3.068  -6.940  0.00  0.00    +0.400 HD
ATOM     10  H   LIG    1        7.769  -1.429  -7.160  0.00  0.00    +0.400 HD
ENDBRANCH   4   6
BRANCH   1  13
ATOM     11  C   LIG    1        4.201   2.296  -1.980  0.00  0.00    +0.290 C 
ATOM     12  N   LIG    1        4.027   0.959  -1.408  0.00  0.00    -0.610 N 
ATOM     13  C   LIG    1        4.296  -0.132  -2.152  0.00  0.00    +0.530 C 
ATOM     14  O   LIG    1        4.152  -1.240  -1.679  0.00  0.00    -0.510 OA
BRANCH  12  15
ATOM     15  C   LIG    1        3.558   0.807  -0.028  0.00  0.00    +0.390 C 
BRANCH  15  16
ATOM     16  C   LIG    1        2.053   0.735  -0.014  0.00  0.00    -0.020 A 
ATOM     17  C   LIG    1        1.315  -0.391  -0.013  0.00  0.00    +0.150 A 
ATOM     18  N   LIG    1        0.002  -0.004   0.002  0.00  0.00    -0.570 N 
ATOM     19  H   LIG    1       -0.771  -0.590   0.006  0.00  0.00    +0.420 HD
ATOM     20  C   LIG    1       -0.016   1.346   0.009  0.00  0.00    +0.390 A 
ATOM     21  N   LIG    1        1.214   1.781   0.000  0.00  0.00    -0.480 NA
ENDBRANCH  15  16
ENDBRANCH  12  15
ENDBRANCH   1  13
BRANCH   5  22
ATOM     22  C   LIG    1        3.752  -1.881  -4.688  0.00  0.00    +0.220 C 
BRANCH  22  23
ATOM     23  C   LIG    1        4.052  -3.103  -5.518  0.00  0.00    -0.070 A 
ATOM     24  C   LIG    1        4.260  -2.979  -6.879  0.00  0.00    -0.020 A 
ATOM     25  C   LIG    1        4.539  -4.099  -7.640  0.00  0.00    -0.010 A 
ATOM     26  C   LIG    1        4.602  -5.343  -7.042  0.00  0.00    -0.010 A 
ATOM     27  C   LIG    1        4.389  -5.468  -5.681  0.00  0.00    +0.010 A 
ATOM     28  C   LIG    1        4.113  -4.347  -4.920  0.00  0.00    +0.060 A 
ENDBRANCH  22  23
ENDBRANCH   5  22
TORSDOF 6
