REMARK  Name = ZINCpe00000MJIsa.1
REMARK                            x       y       z     vdW  Elec       q    Type
REMARK                         _______ _______ _______ _____ _____    ______ ____
ROOT
ATOM      1  C   LIG    1       -0.162   0.900   2.426  0.00  0.00    +0.130 C 
ATOM      2  C   LIG    1       -1.336   0.724   3.406  0.00  0.00    +0.040 C 
ATOM      3  C   LIG    1       -2.568   1.293   2.665  0.00  0.00    +0.050 C 
ATOM      4  C   LIG    1       -2.145   1.215   1.177  0.00  0.00    +0.130 C 
ATOM      5  N   LIG    1       -0.700   1.560   1.217  0.00  0.00    -0.460 NA
ENDROOT
BRANCH   4   6
ATOM      6  C   LIG    1       -2.909   2.220   0.353  0.00  0.00    +0.520 C 
ATOM      7  O   LIG    1       -2.325   3.148  -0.165  0.00  0.00    -0.490 OA
ATOM      8  N   LIG    1       -4.240   2.086   0.192  0.00  0.00    -0.860 N 
ATOM      9  H   LIG    1       -4.732   2.733  -0.338  0.00  0.00    +0.400 HD
ATOM     10  H   LIG    1       -4.707   1.343   0.607  0.00  0.00    +0.400 HD
ENDBRANCH   4   6
BRANCH   1  13
ATOM     11  C   LIG    1        1.182   0.069   4.779  0.00  0.00    +0.280 C 
ATOM     12  N   LIG    1        1.532   1.355   4.170  0.00  0.00    -0.620 N 
ATOM     13  C   LIG    1        0.903   1.764   3.051  0.00  0.00    +0.520 C 
ATOM     14  O   LIG    1        1.193   2.829   2.547  0.00  0.00    -0.490 OA
BRANCH  12  15
ATOM     15  C   LIG    1        2.567   2.195   4.778  0.00  0.00    +0.380 C 
BRANCH  15  16
ATOM     16  C   LIG    1        1.934   3.128   5.778  0.00  0.00    -0.050 A 
ATOM     17  C   LIG    1        1.545   4.398   5.557  0.00  0.00    +0.180 A 
ATOM     18  N   LIG    1        1.029   4.878   6.697  0.00  0.00    -0.490 NA
ATOM     19  C   LIG    1        1.091   3.957   7.620  0.00  0.00    +0.400 A 
ATOM     20  N   LIG    1        1.649   2.848   7.087  0.00  0.00    -0.570 N 
ATOM     21  H   LIG    1        1.817   2.011   7.547  0.00  0.00    +0.420 HD
ENDBRANCH  15  16
ENDBRANCH  12  15
ENDBRANCH   1  13
BRANCH   5  22
ATOM     22  C   LIG    1       -0.013   1.086   0.008  0.00  0.00    +0.220 C 
BRANCH  22  23
ATOM     23  C   LIG    1       -0.742   1.585  -1.213  0.00  0.00    -0.070 A 
ATOM     24  C   LIG    1       -1.750   0.825  -1.775  0.00  0.00    -0.020 A 
ATOM     25  C   LIG    1       -2.422   1.285  -2.892  0.00  0.00    -0.010 A 
ATOM     26  C   LIG    1       -2.078   2.501  -3.453  0.00  0.00    -0.010 A 
ATOM     27  C   LIG    1       -1.066   3.259  -2.894  0.00  0.00    +0.010 A 
ATOM     28  C   LIG    1       -0.398   2.801  -1.774  0.00  0.00    +0.070 A 
ENDBRANCH  22  23
ENDBRANCH   5  22
TORSDOF 6
