REMARK  Name = ZINCrD00000camou.0
REMARK                            x       y       z     vdW  Elec       q    Type
REMARK                         _______ _______ _______ _____ _____    ______ ____
ROOT
ATOM      1  C   LIG    1        4.841   3.953   0.385  0.00  0.00    +0.290 C 
ENDROOT
BRANCH   1   2
ATOM      2  N   LIG    1        3.605   3.227   0.087  0.00  0.00    -0.610 N 
ATOM      3  C   LIG    1        2.472   3.906  -0.181  0.00  0.00    +0.560 C 
ATOM      4  O   LIG    1        2.496   5.119  -0.263  0.00  0.00    -0.520 OA
ATOM      5  C   LIG    1        3.599   1.762   0.080  0.00  0.00    +0.290 C 
BRANCH   3   6
ATOM      6  C   LIG    1        1.202   3.177  -0.376  0.00  0.00    -0.130 A 
ATOM      7  C   LIG    1        1.194   1.982  -1.078  0.00  0.00    +0.080 A 
ATOM      8  C   LIG    1       -0.016   1.298  -1.258  0.00  0.00    -0.110 A 
ATOM      9  C   LIG    1       -0.068   0.080  -1.965  0.00  0.00    +0.090 A 
ATOM     10  C   LIG    1       -1.280  -0.534  -2.102  0.00  0.00    -0.040 A 
ATOM     11  C   LIG    1       -2.420   0.047  -1.550  0.00  0.00    +0.300 A 
ATOM     12  N   LIG    1       -2.367   1.181  -0.893  0.00  0.00    -0.480 NA
ATOM     13  C   LIG    1       -1.213   1.831  -0.717  0.00  0.00    +0.140 A 
ATOM     14  C   LIG    1       -1.171   3.049  -0.013  0.00  0.00    +0.050 A 
ATOM     15  C   LIG    1        0.008   3.699   0.152  0.00  0.00    +0.080 A 
ENDBRANCH   3   6
ENDBRANCH   1   2
BRANCH   1  16
ATOM     16  C   LIG    1        4.937   4.200   1.892  0.00  0.00    +0.240 C 
BRANCH  16  18
ATOM     17  C   LIG    1        6.471   5.256   3.463  0.00  0.00    +0.560 C 
ATOM     18  N   LIG    1        6.173   4.927   2.191  0.00  0.00    -0.730 N 
ATOM     19  H   LIG    1        6.778   5.171   1.473  0.00  0.00    +0.400 HD
ATOM     20  O   LIG    1        5.713   4.951   4.363  0.00  0.00    -0.530 OA
BRANCH  17  24
ATOM     21  C   LIG    1       10.058   7.364   4.330  0.00  0.00    -0.030 A 
ATOM     22  C   LIG    1        9.187   7.013   5.364  0.00  0.00    +0.010 A 
ATOM     23  C   LIG    1        8.026   6.331   5.084  0.00  0.00    +0.080 A 
ATOM     24  C   LIG    1        7.717   5.989   3.764  0.00  0.00    -0.140 A 
ATOM     25  C   LIG    1        8.591   6.335   2.730  0.00  0.00    +0.050 A 
ATOM     26  C   LIG    1        9.750   7.022   3.010  0.00  0.00    +0.010 A 
BRANCH  21  28
ATOM     27  C   LIG    1       12.132   8.430   3.648  0.00  0.00    +0.040 C 
ATOM     28  C   LIG    1       11.305   8.096   4.630  0.00  0.00    -0.010 C 
ENDBRANCH  21  28
ENDBRANCH  17  24
ENDBRANCH  16  18
ENDBRANCH   1  16
TORSDOF 6
