REMARK  Name = ZINCnE000001FIT5.0
REMARK                            x       y       z     vdW  Elec       q    Type
REMARK                         _______ _______ _______ _____ _____    ______ ____
ROOT
ATOM      1  C   UNK A  0       -1.574   3.737   2.019  0.00  0.00    +0.580 C 
ATOM      2  N   PHE A  1       -0.645   3.040   1.336  0.00  0.00    -0.690 N 
ATOM      3  H   PHE A  1        0.080   3.506   0.889  0.00  0.00    +0.390 HD
ATOM      4  O   UNK A  0       -2.483   3.153   2.579  0.00  0.00    -0.530 OA
ENDROOT
BRANCH   1   8
ATOM      5  C   UNK A  0       -2.050   7.348   2.648  0.00  0.00    -0.120 A 
ATOM      6  C   UNK A  0       -0.951   7.618   1.933  0.00  0.00    -0.210 A 
ATOM      7  S   UNK A  0       -0.244   6.186   1.335  0.00  0.00    +0.190 S 
ATOM      8  C   UNK A  0       -1.490   5.199   2.088  0.00  0.00    -0.240 A 
ATOM      9  C   UNK A  0       -0.411   9.004   1.690  0.00  0.00    +0.140 C 
ATOM     10  C   UNK A  0       -2.370   6.014   2.742  0.00  0.00    +0.090 A 
BRANCH   5  11
ATOM     11  C   UNK A  0       -2.878   8.426   3.297  0.00  0.00    +0.080 C 
BRANCH  11  13
ATOM     12  C   UNK A  0       -4.721  10.076   2.942  0.00  0.00    +0.000 C 
ATOM     13  C   UNK A  0       -3.879   8.981   2.282  0.00  0.00    +0.000 C 
ENDBRANCH  11  13
ENDBRANCH   5  11
ENDBRANCH   1   8
BRANCH   2  14
ATOM     14  CA  PHE A  1       -0.729   1.579   1.267  0.00  0.00    +0.180 C 
BRANCH  14  15
ATOM     15  C   PHE A  1       -0.074   0.981   2.485  0.00  0.00    +0.490 C 
ATOM     16  OXT PHE A  1       -0.467  -0.086   2.926  0.00  0.00    -0.690 OA
ATOM     17  O   PHE A  1        0.849   1.562   3.029  0.00  0.00    -0.690 OA
ENDBRANCH  14  15
BRANCH  14  18
ATOM     18  CB  PHE A  1       -0.013   1.086   0.008  0.00  0.00    +0.090 C 
BRANCH  18  19
ATOM     19  CG  PHE A  1       -0.742   1.585  -1.213  0.00  0.00    -0.070 A 
ATOM     20  CD2 PHE A  1       -1.750   0.825  -1.775  0.00  0.00    +0.000 A 
ATOM     21  CE2 PHE A  1       -2.422   1.285  -2.892  0.00  0.00    +0.000 A 
ATOM     22  CZ  PHE A  1       -2.078   2.501  -3.453  0.00  0.00    -0.010 A 
ATOM     23  CE1 PHE A  1       -1.066   3.259  -2.894  0.00  0.00    +0.000 A 
ATOM     24  CD1 PHE A  1       -0.398   2.801  -1.774  0.00  0.00    +0.000 A 
ENDBRANCH  18  19
ENDBRANCH  14  18
ENDBRANCH   2  14
TORSDOF 7
