REMARK  Name = ZINCrD000006OIxv.0
REMARK                            x       y       z     vdW  Elec       q    Type
REMARK                         _______ _______ _______ _____ _____    ______ ____
ROOT
ATOM      1  N   LIG    1       -0.018   1.385   0.002  0.00  0.00    -0.490 N 
ATOM      2  C   LIG    1       -0.789   1.906  -1.135  0.00  0.00    +0.210 C 
ATOM      3  C   LIG    1       -0.853   3.432  -1.048  0.00  0.00    +0.170 C 
ATOM      4  N   LIG    1        0.512   3.978  -1.047  0.00  0.00    -0.540 NA
ATOM      5  C   LIG    1        1.284   3.457   0.090  0.00  0.00    +0.200 C 
ATOM      6  C   LIG    1        1.347   1.930   0.003  0.00  0.00    +0.200 C 
ENDROOT
BRANCH   1  10
ATOM      7  C   LIG    1        0.039  -2.766  -0.016  0.00  0.00    -0.210 A 
ATOM      8  C   LIG    1       -1.182  -2.080  -0.011  0.00  0.00    +0.100 A 
ATOM      9  C   LIG    1       -1.196  -0.715  -0.005  0.00  0.00    -0.030 A 
ATOM     10  C   LIG    1        0.002  -0.004  -0.004  0.00  0.00    +0.150 A 
ATOM     11  C   LIG    1        1.219  -0.682  -0.014  0.00  0.00    -0.060 A 
ATOM     12  C   LIG    1        1.242  -2.047  -0.015  0.00  0.00    +0.100 A 
BRANCH   7  14
ATOM     13  C   LIG    1        1.369  -4.969  -0.154  0.00  0.00    +0.070 C 
ATOM     14  C   LIG    1        0.059  -4.234  -0.023  0.00  0.00    +0.400 C 
ATOM     15  O   LIG    1       -0.978  -4.855   0.076  0.00  0.00    -0.460 OA
ENDBRANCH   7  14
ENDBRANCH   1  10
BRANCH   4  16
ATOM     16  C   LIG    1        0.492   5.447  -1.041  0.00  0.00    +0.260 C 
BRANCH  16  17
ATOM     17  C   LIG    1       -0.090   5.946  -2.338  0.00  0.00    -0.220 A 
ATOM     18  C   LIG    1       -1.398   6.195  -2.581  0.00  0.00    +0.230 A 
ATOM     19  N   LIG    1       -1.505   6.627  -3.858  0.00  0.00    -0.320 N 
ATOM     20  N   LIG    1       -0.220   6.644  -4.415  0.00  0.00    -0.290 NA
ATOM     21  C   LIG    1        0.627   6.241  -3.503  0.00  0.00    +0.270 A 
BRANCH  19  22
ATOM     22  C   LIG    1       -2.692   6.993  -4.508  0.00  0.00    +0.160 A 
ATOM     23  C   LIG    1       -3.904   6.922  -3.835  0.00  0.00    -0.010 A 
ATOM     24  C   LIG    1       -5.071   7.289  -4.477  0.00  0.00    +0.040 A 
ATOM     25  C   LIG    1       -5.034   7.715  -5.792  0.00  0.00    +0.000 A 
ATOM     26  C   LIG    1       -3.828   7.781  -6.467  0.00  0.00    +0.040 A 
ATOM     27  C   LIG    1       -2.658   7.421  -5.828  0.00  0.00    +0.020 A 
ENDBRANCH  19  22
ENDBRANCH  16  17
ENDBRANCH   4  16
TORSDOF 5
