REMARK  Name = ZINCpk000000nWMZ.1
REMARK                            x       y       z     vdW  Elec       q    Type
REMARK                         _______ _______ _______ _____ _____    ______ ____
ROOT
ATOM      1  C   LIG    1       -0.753   1.593  -1.232  0.00  0.00    +0.200 C 
ENDROOT
BRANCH   1   8
ATOM      2  C   LIG    1        4.182   1.360  -4.944  0.00  0.00    +0.070 C 
ATOM      3  C   LIG    1        3.341   1.533  -3.677  0.00  0.00    +0.100 C 
ATOM      4  C   LIG    1        1.859   1.585  -4.049  0.00  0.00    +0.260 C 
ATOM      5  N   LIG    1        1.087   1.941  -2.849  0.00  0.00    -0.610 N 
ATOM      6  C   LIG    1        1.517   3.115  -2.072  0.00  0.00    +0.260 C 
ATOM      7  C   LIG    1        3.019   2.986  -1.794  0.00  0.00    +0.210 C 
ATOM      8  C   LIG    1        0.019   1.211  -2.468  0.00  0.00    +0.480 C 
ATOM      9  O   LIG    1       -0.320   0.247  -3.122  0.00  0.00    -0.540 OA
ATOM     10  C   LIG    1        3.588   0.354  -2.734  0.00  0.00    +0.020 C 
ATOM     11  O   LIG    1        3.707   2.752  -3.025  0.00  0.00    -0.370 OA
ENDBRANCH   1   8
BRANCH   1  12
ATOM     12  N   LIG    1       -2.091   0.989  -1.284  0.00  0.00    -0.810 NA
ATOM     13  H   LIG    1       -2.032  -0.017  -1.331  0.00  0.00    +0.350 HD
ATOM     14  H   LIG    1       -2.623   1.357  -2.058  0.00  0.00    +0.340 HD
ENDBRANCH   1  12
BRANCH   1  15
ATOM     15  C   LIG    1       -0.013   1.086   0.008  0.00  0.00    +0.140 C 
BRANCH  15  16
ATOM     16  C   LIG    1       -0.718   1.572   1.248  0.00  0.00    +0.020 A 
ATOM     17  C   LIG    1       -1.175   0.800   2.253  0.00  0.00    +0.130 A 
ATOM     18  N   LIG    1       -1.741   1.641   3.172  0.00  0.00    -0.450 N 
ATOM     19  C   LIG    1       -1.619   2.897   2.693  0.00  0.00    +0.390 A 
ATOM     20  N   LIG    1       -1.006   2.848   1.542  0.00  0.00    -0.490 NA
BRANCH  18  21
ATOM     21  C   LIG    1       -2.369   1.250   4.437  0.00  0.00    +0.350 C 
BRANCH  21  22
ATOM     22  C   LIG    1       -3.835   0.986   4.209  0.00  0.00    -0.120 A 
ATOM     23  C   LIG    1       -4.751   2.012   4.345  0.00  0.00    +0.020 A 
ATOM     24  C   LIG    1       -6.096   1.770   4.131  0.00  0.00    +0.010 A 
ATOM     25  C   LIG    1       -6.525   0.501   3.793  0.00  0.00    +0.010 A 
ATOM     26  C   LIG    1       -5.609  -0.526   3.663  0.00  0.00    +0.010 A 
ATOM     27  C   LIG    1       -4.264  -0.284   3.871  0.00  0.00    +0.020 A 
ENDBRANCH  21  22
ENDBRANCH  18  21
ENDBRANCH  15  16
ENDBRANCH   1  15
TORSDOF 6
