REMARK  Name = ZINCnE000001Feal.0
REMARK                            x       y       z     vdW  Elec       q    Type
REMARK                         _______ _______ _______ _____ _____    ______ ____
ROOT
ATOM      1  N   LIG    1       -0.696   2.010   1.207  0.00  0.00    -0.680 N 
ATOM      2  H   LIG    1       -1.643   2.216   1.177  0.00  0.00    +0.390 HD
ATOM      3  C   LIG    1       -0.014   2.142   2.362  0.00  0.00    +0.550 C 
ATOM      4  O   LIG    1        1.173   1.883   2.400  0.00  0.00    -0.540 OA
ENDROOT
BRANCH   3   5
ATOM      5  C   LIG    1       -0.711   2.601   3.583  0.00  0.00    -0.100 A 
ATOM      6  C   LIG    1       -2.074   2.898   3.542  0.00  0.00    +0.080 A 
ATOM      7  C   LIG    1       -2.722   3.326   4.684  0.00  0.00    -0.090 A 
ATOM      8  C   LIG    1       -2.024   3.462   5.870  0.00  0.00    +0.090 A 
ATOM      9  C   LIG    1       -0.666   3.169   5.921  0.00  0.00    +0.080 A 
ATOM     10 BR   LIG    1       -4.569   3.728   4.625  0.00  0.00    -0.040 Br
ATOM     11  C   LIG    1       -0.009   2.732   4.781  0.00  0.00    +0.060 A 
BRANCH   9  12
ATOM     12  N   LIG    1        0.034   3.308   7.122  0.00  0.00    -0.480 N 
ATOM     13  C   LIG    1        0.560   1.999   7.586  0.00  0.00    +0.180 C 
ATOM     14  C   LIG    1        1.694   2.399   8.563  0.00  0.00    +0.040 C 
ATOM     15  C   LIG    1        2.317   3.639   7.880  0.00  0.00    +0.010 C 
ATOM     16  C   LIG    1        1.217   4.179   6.947  0.00  0.00    +0.170 C 
ENDBRANCH   9  12
ENDBRANCH   3   5
BRANCH   1  17
ATOM     17  CA  LIG    1       -0.006   1.555  -0.003  0.00  0.00    +0.160 C 
BRANCH  17  18
ATOM     18  C   LIG    1        0.034   0.049  -0.022  0.00  0.00    +0.490 C 
ATOM     19  OXT LIG    1        0.958  -0.529  -0.568  0.00  0.00    -0.690 OA
ATOM     20  O   LIG    1       -0.859  -0.591   0.507  0.00  0.00    -0.690 OA
ENDBRANCH  17  18
BRANCH  17  21
ATOM     21  C   LIG    1       -0.754   2.062  -1.238  0.00  0.00    +0.030 C 
BRANCH  21  22
ATOM     22  C   LIG    1       -0.688   3.590  -1.283  0.00  0.00    +0.000 C 
BRANCH  22  24
ATOM     23  C   LIG    1       -1.369   5.624  -2.564  0.00  0.00    +0.000 C 
ATOM     24  C   LIG    1       -1.436   4.096  -2.518  0.00  0.00    -0.010 C 
ENDBRANCH  22  24
ENDBRANCH  21  22
ENDBRANCH  17  21
ENDBRANCH   1  17
TORSDOF 7
