REMARK  Name = ZINCqH00000371YV.0
REMARK                            x       y       z     vdW  Elec       q    Type
REMARK                         _______ _______ _______ _____ _____    ______ ____
ROOT
ATOM      1  N   LIG    1       -2.025   6.455  -1.036  0.00  0.00    -0.460 N 
ATOM      2  C   LIG    1       -2.207   6.718  -2.376  0.00  0.00    +0.120 A 
ATOM      3  C   LIG    1       -2.093   5.942  -3.525  0.00  0.00    -0.020 A 
ATOM      4  C   LIG    1       -2.346   6.503  -4.758  0.00  0.00    +0.020 A 
ATOM      5  C   LIG    1       -2.716   7.836  -4.868  0.00  0.00    -0.030 A 
ATOM      6  C   LIG    1       -2.836   8.617  -3.753  0.00  0.00    +0.050 A 
ATOM      7  C   LIG    1       -2.583   8.070  -2.492  0.00  0.00    -0.100 A 
ATOM      8  C   LIG    1       -2.615   8.605  -1.132  0.00  0.00    -0.020 A 
ATOM      9  C   LIG    1       -2.277   7.589  -0.300  0.00  0.00    +0.120 A 
ENDROOT
BRANCH   9  10
ATOM     10  C   LIG    1       -2.188   7.686   1.173  0.00  0.00    -0.030 A 
ATOM     11  C   LIG    1       -2.911   8.666   1.855  0.00  0.00    +0.030 A 
ATOM     12  C   LIG    1       -2.829   8.749   3.230  0.00  0.00    +0.020 A 
ATOM     13  C   LIG    1       -2.023   7.869   3.931  0.00  0.00    +0.010 A 
ATOM     14  C   LIG    1       -1.300   6.899   3.261  0.00  0.00    +0.010 A 
ATOM     15  C   LIG    1       -1.378   6.803   1.887  0.00  0.00    +0.000 A 
ENDBRANCH   9  10
BRANCH   1  16
ATOM     16  C   LIG    1       -1.628   5.159  -0.479  0.00  0.00    +0.320 C 
BRANCH  16  19
ATOM     17  N   LIG    1        0.470   3.923  -0.044  0.00  0.00    -0.710 N 
ATOM     18  H   LIG    1       -0.068   3.198   0.311  0.00  0.00    +0.410 HD
ATOM     19  C   LIG    1       -0.126   5.038  -0.509  0.00  0.00    +0.490 C 
ATOM     20  O   LIG    1        0.547   5.945  -0.953  0.00  0.00    -0.510 OA
BRANCH  17  26
ATOM     21  C   LIG    1        3.175   2.034  -1.351  0.00  0.00    +0.020 C 
ATOM     22  C   LIG    1        2.339   2.322  -0.103  0.00  0.00    +0.120 C 
ATOM     23  C   LIG    1        3.179   2.071   1.167  0.00  0.00    +0.000 C 
ATOM     24  C   LIG    1        3.727   3.470   1.542  0.00  0.00    +0.020 C 
ATOM     25  C   LIG    1        2.535   4.404   1.213  0.00  0.00    +0.010 C 
ATOM     26  C   LIG    1        1.930   3.805  -0.073  0.00  0.00    +0.260 C 
BRANCH  22  27
ATOM     27  O   LIG    1        1.175   1.493  -0.092  0.00  0.00    -0.560 OA
ATOM     28  H   LIG    1        1.367   0.545  -0.109  0.00  0.00    +0.380 HD
ENDBRANCH  22  27
ENDBRANCH  17  26
ENDBRANCH  16  19
ENDBRANCH   1  16
TORSDOF 5
