REMARK  Name = ZINCvU00000005Oe.0
REMARK                            x       y       z     vdW  Elec       q    Type
REMARK                         _______ _______ _______ _____ _____    ______ ____
ROOT
ATOM      1  C   LIG    1       -1.173   1.891  -0.311  0.00  0.00    -0.220 A 
ATOM      2  C   LIG    1       -0.040   1.115  -0.155  0.00  0.00    +0.280 A 
ATOM      3  N   LIG    1        1.029   1.930  -0.220  0.00  0.00    -0.310 N 
ATOM      4  N   LIG    1        0.604   3.248  -0.415  0.00  0.00    -0.270 NA
ATOM      5  C   LIG    1       -0.708   3.274  -0.472  0.00  0.00    +0.160 A 
ENDROOT
BRANCH   5   6
ATOM      6  C   LIG    1       -1.558   4.472  -0.668  0.00  0.00    -0.040 A 
ATOM      7  C   LIG    1       -2.736   4.381  -1.408  0.00  0.00    +0.080 A 
ATOM      8  C   LIG    1       -3.526   5.498  -1.583  0.00  0.00    -0.010 A 
ATOM      9  C   LIG    1       -3.145   6.712  -1.035  0.00  0.00    +0.110 A 
ATOM     10  C   LIG    1       -1.973   6.809  -0.303  0.00  0.00    -0.010 A 
ATOM     11  F   LIG    1       -3.919   7.805  -1.214  0.00  0.00    -0.130 F 
ATOM     12  C   LIG    1       -1.179   5.696  -0.117  0.00  0.00    +0.080 A 
ENDBRANCH   5   6
BRANCH   3  13
ATOM     13  C   LIG    1        2.364   1.520  -0.112  0.00  0.00    +0.150 A 
ATOM     14  C   LIG    1        2.666   0.179   0.086  0.00  0.00    -0.010 A 
ATOM     15  C   LIG    1        3.983  -0.222   0.187  0.00  0.00    +0.050 A 
ATOM     16  C   LIG    1        5.000   0.711   0.104  0.00  0.00    +0.010 A 
ATOM     17  C   LIG    1        4.703   2.048  -0.087  0.00  0.00    +0.050 A 
ATOM     18  C   LIG    1        3.387   2.455  -0.195  0.00  0.00    +0.030 A 
ENDBRANCH   3  13
BRANCH   1  20
ATOM     19  C   LIG    1       -2.838   0.111  -0.151  0.00  0.00    -0.120 C 
ATOM     20  C   LIG    1       -2.565   1.425  -0.314  0.00  0.00    +0.190 C 
BRANCH  19  23
ATOM     21  N   LIG    1       -4.454  -1.649   0.010  0.00  0.00    -0.670 N 
ATOM     22  H   LIG    1       -3.731  -2.293   0.052  0.00  0.00    +0.410 HD
ATOM     23  C   LIG    1       -4.182  -0.339  -0.153  0.00  0.00    +0.550 C 
ATOM     24  O   LIG    1       -5.091   0.458  -0.303  0.00  0.00    -0.530 OA
BRANCH  21  30
ATOM     25  C   LIG    1       -7.871  -5.082  -0.830  0.00  0.00    +0.100 C 
ATOM     26  C   LIG    1       -7.465  -3.739  -0.281  0.00  0.00    -0.060 A 
ATOM     27  C   LIG    1       -8.405  -2.930   0.332  0.00  0.00    -0.020 A 
ATOM     28  C   LIG    1       -8.036  -1.697   0.837  0.00  0.00    -0.060 A 
ATOM     29  C   LIG    1       -6.727  -1.269   0.732  0.00  0.00    +0.000 A 
ATOM     30  C   LIG    1       -5.780  -2.079   0.118  0.00  0.00    +0.150 A 
ATOM     31  C   LIG    1       -9.064  -0.819   1.503  0.00  0.00    +0.100 C 
ATOM     32  C   LIG    1       -6.155  -3.314  -0.394  0.00  0.00    -0.030 A 
ENDBRANCH  21  30
ENDBRANCH  19  23
ENDBRANCH   1  20
TORSDOF 5
