REMARK  Name = ZINCqH0000001IvD.0
REMARK                            x       y       z     vdW  Elec       q    Type
REMARK                         _______ _______ _______ _____ _____    ______ ____
ROOT
ATOM      1  N   LIG    1        2.725   1.135  -1.681  0.00  0.00    -0.510 NA
ENDROOT
BRANCH   1   2
ATOM      2  C   LIG    1        3.631   0.052  -1.274  0.00  0.00    +0.210 C 
BRANCH   2   5
ATOM      3  N   LIG    1        3.445  -2.274  -0.453  0.00  0.00    -0.730 N 
ATOM      4  H   LIG    1        4.414  -2.301  -0.402  0.00  0.00    +0.410 HD
ATOM      5  C   LIG    1        2.823  -1.139  -0.829  0.00  0.00    +0.520 C 
ATOM      6  O   LIG    1        1.612  -1.077  -0.808  0.00  0.00    -0.500 OA
BRANCH   3   7
ATOM      7  C   LIG    1        2.660  -3.466  -0.123  0.00  0.00    +0.290 C 
ATOM      8  C   LIG    1        1.802  -3.185   1.112  0.00  0.00    +0.070 C 
BRANCH   7  10
ATOM      9  C   LIG    1        4.424  -4.330   1.421  0.00  0.00    +0.050 C 
ATOM     10  C   LIG    1        3.604  -4.635   0.166  0.00  0.00    +0.000 C 
ATOM     11  C   LIG    1        2.786  -5.908   0.388  0.00  0.00    +0.050 C 
ENDBRANCH   7  10
BRANCH   7  12
ATOM     12  C   LIG    1        1.788  -3.808  -1.258  0.00  0.00    +0.200 C 
ATOM     13  N   LIG    1        1.115  -4.073  -2.134  0.00  0.00    -0.410 NA
ENDBRANCH   7  12
ENDBRANCH   3   7
ENDBRANCH   2   5
ENDBRANCH   1   2
BRANCH   1  14
ATOM     14  C   LIG    1        3.416   2.105  -2.540  0.00  0.00    +0.240 C 
BRANCH  14  15
ATOM     15  C   LIG    1        3.688   1.481  -3.884  0.00  0.00    -0.080 A 
ATOM     16  C   LIG    1        4.923   0.917  -4.147  0.00  0.00    +0.000 A 
ATOM     17  C   LIG    1        5.171   0.340  -5.379  0.00  0.00    +0.000 A 
ATOM     18  C   LIG    1        4.188   0.335  -6.351  0.00  0.00    +0.000 A 
ATOM     19  C   LIG    1        2.955   0.904  -6.090  0.00  0.00    +0.000 A 
ATOM     20  C   LIG    1        2.705   1.477  -4.856  0.00  0.00    +0.030 A 
ENDBRANCH  14  15
ENDBRANCH   1  14
BRANCH   1  21
ATOM     21  C   LIG    1        2.135   1.796  -0.508  0.00  0.00    +0.230 C 
BRANCH  21  22
ATOM     22  C   LIG    1        1.037   2.725  -0.956  0.00  0.00    -0.080 A 
ATOM     23  C   LIG    1       -0.262   2.261  -1.058  0.00  0.00    +0.040 A 
ATOM     24  C   LIG    1       -1.269   3.113  -1.473  0.00  0.00    +0.000 A 
ATOM     25  C   LIG    1       -0.979   4.430  -1.776  0.00  0.00    +0.000 A 
ATOM     26  C   LIG    1        0.319   4.894  -1.673  0.00  0.00    +0.000 A 
ATOM     27  C   LIG    1        1.327   4.041  -1.263  0.00  0.00    +0.000 A 
ENDBRANCH  21  22
ENDBRANCH   1  21
TORSDOF 9
