REMARK  Name = ZINCrg00000Bi75K.1
REMARK                            x       y       z     vdW  Elec       q    Type
REMARK                         _______ _______ _______ _____ _____    ______ ____
ROOT
ATOM      1  N   LIG    1       -8.271  -0.316  -0.785  0.00  0.00    -0.360 N 
ATOM      2  C   LIG    1       -8.777  -0.475   0.584  0.00  0.00    +0.270 C 
ATOM      3  C   LIG    1       -8.233   0.650   1.467  0.00  0.00    +0.060 C 
ATOM      4  C   LIG    1       -6.703   0.589   1.476  0.00  0.00    +0.050 C 
ATOM      5  C   LIG    1       -6.189   0.681   0.037  0.00  0.00    +0.080 C 
ATOM      6  C   LIG    1       -6.809  -0.445  -0.793  0.00  0.00    +0.260 C 
ATOM      7  H   LIG    1       -8.675  -1.028  -1.375  0.00  0.00    +0.440 HD
ENDROOT
BRANCH   5   8
ATOM      8  C   LIG    1       -4.688   0.544   0.028  0.00  0.00    +0.080 A 
ATOM      9  C   LIG    1       -3.798   1.560   0.029  0.00  0.00    -0.070 A 
ATOM     10  C   LIG    1       -2.505   1.002   0.020  0.00  0.00    +0.130 A 
ATOM     11  N   LIG    1       -2.630  -0.308   0.008  0.00  0.00    -0.260 NA
ATOM     12  N   LIG    1       -3.997  -0.616   0.019  0.00  0.00    -0.470 N 
ATOM     13  H   LIG    1       -4.380  -1.507   0.016  0.00  0.00    +0.440 HD
BRANCH  10  14
ATOM     14  C   LIG    1       -1.228   1.757   0.017  0.00  0.00    -0.030 A 
ATOM     15  C   LIG    1       -0.013   1.076   0.008  0.00  0.00    +0.040 A 
ATOM     16  C   LIG    1        1.173   1.783   0.000  0.00  0.00    +0.010 A 
ATOM     17  C   LIG    1        1.155   3.166   0.008  0.00  0.00    +0.030 A 
ATOM     18  C   LIG    1       -0.048   3.848   0.022  0.00  0.00    +0.010 A 
ATOM     19  C   LIG    1       -1.239   3.150   0.029  0.00  0.00    +0.040 A 
ENDBRANCH  10  14
ENDBRANCH   5   8
BRANCH   1  20
ATOM     20  C   LIG    1       -8.647   1.010  -1.293  0.00  0.00    +0.270 C 
BRANCH  20  22
ATOM     21  O   LIG    1      -10.836   0.153  -1.085  0.00  0.00    -0.540 OA
ATOM     22  C   LIG    1      -10.148   1.100  -1.401  0.00  0.00    +0.500 C 
ATOM     23  N   LIG    1      -10.725   2.233  -1.848  0.00  0.00    -0.680 N 
ATOM     24  H   LIG    1      -10.174   2.991  -2.100  0.00  0.00    +0.410 HD
BRANCH  23  25
ATOM     25  C   LIG    1      -12.183   2.321  -1.952  0.00  0.00    +0.420 C 
BRANCH  25  26
ATOM     26  C   LIG    1      -12.569   3.681  -2.474  0.00  0.00    +0.010 A 
ATOM     27  N   LIG    1      -12.826   4.761  -1.751  0.00  0.00    -0.370 NA
ATOM     28  N   LIG    1      -13.113   5.717  -2.566  0.00  0.00    -0.180 NA
ATOM     29  N   LIG    1      -13.053   5.271  -3.773  0.00  0.00    -0.180 NA
ATOM     30  N   LIG    1      -12.722   4.026  -3.744  0.00  0.00    -0.370 NA
ENDBRANCH  25  26
ENDBRANCH  23  25
ENDBRANCH  20  22
ENDBRANCH   1  20
TORSDOF 6
