REMARK  Name = ZINCrg00000Bi75K.2
REMARK                            x       y       z     vdW  Elec       q    Type
REMARK                         _______ _______ _______ _____ _____    ______ ____
ROOT
ATOM      1  N   LIG    1        3.446   4.803   0.816  0.00  0.00    -0.360 N 
ATOM      2  C   LIG    1        3.766   5.227  -0.552  0.00  0.00    +0.250 C 
ATOM      3  C   LIG    1        2.504   5.167  -1.416  0.00  0.00    +0.070 C 
ATOM      4  C   LIG    1        1.973   3.731  -1.436  0.00  0.00    +0.050 C 
ATOM      5  C   LIG    1        1.713   3.274   0.003  0.00  0.00    +0.080 C 
ATOM      6  C   LIG    1        3.004   3.404   0.814  0.00  0.00    +0.260 C 
ATOM      7  H   LIG    1        2.710   5.387   1.185  0.00  0.00    +0.430 HD
ENDROOT
BRANCH   5   8
ATOM      8  C   LIG    1        1.263   1.836  -0.000  0.00  0.00    +0.080 A 
ATOM      9  C   LIG    1       -0.017   1.404   0.010  0.00  0.00    -0.070 A 
ATOM     10  C   LIG    1        0.002  -0.004   0.002  0.00  0.00    +0.130 A 
ATOM     11  N   LIG    1        1.260  -0.392  -0.012  0.00  0.00    -0.260 NA
ATOM     12  N   LIG    1        2.068   0.752  -0.014  0.00  0.00    -0.470 N 
ATOM     13  H   LIG    1        3.038   0.763  -0.022  0.00  0.00    +0.440 HD
BRANCH  10  14
ATOM     14  C   LIG    1       -1.186  -0.893   0.008  0.00  0.00    -0.030 A 
ATOM     15  C   LIG    1       -2.468  -0.348   0.028  0.00  0.00    +0.040 A 
ATOM     16  C   LIG    1       -3.569  -1.179   0.028  0.00  0.00    +0.010 A 
ATOM     17  C   LIG    1       -3.402  -2.553   0.019  0.00  0.00    +0.030 A 
ATOM     18  C   LIG    1       -2.132  -3.100   0.005  0.00  0.00    +0.010 A 
ATOM     19  C   LIG    1       -1.024  -2.277  -0.001  0.00  0.00    +0.040 A 
ENDBRANCH  10  14
ENDBRANCH   5   8
BRANCH   1  20
ATOM     20  C   LIG    1        4.642   4.935   1.659  0.00  0.00    +0.290 C 
BRANCH  20  22
ATOM     21  O   LIG    1        4.361   7.233   1.202  0.00  0.00    -0.540 OA
ATOM     22  C   LIG    1        5.021   6.389   1.770  0.00  0.00    +0.500 C 
ATOM     23  N   LIG    1        6.095   6.752   2.499  0.00  0.00    -0.680 N 
ATOM     24  H   LIG    1        6.623   6.077   2.954  0.00  0.00    +0.410 HD
BRANCH  23  25
ATOM     25  C   LIG    1        6.464   8.165   2.607  0.00  0.00    +0.420 C 
BRANCH  25  26
ATOM     26  C   LIG    1        7.690   8.300   3.472  0.00  0.00    +0.010 A 
ATOM     27  N   LIG    1        7.716   8.473   4.785  0.00  0.00    -0.370 NA
ATOM     28  N   LIG    1        8.952   8.539   5.146  0.00  0.00    -0.180 NA
ATOM     29  N   LIG    1        9.700   8.422   4.104  0.00  0.00    -0.180 NA
ATOM     30  N   LIG    1        8.951   8.275   3.065  0.00  0.00    -0.370 NA
ENDBRANCH  25  26
ENDBRANCH  23  25
ENDBRANCH  20  22
ENDBRANCH   1  20
TORSDOF 6
