REMARK  Name = ZINCtV00000L6l9t.0
REMARK                            x       y       z     vdW  Elec       q    Type
REMARK                         _______ _______ _______ _____ _____    ______ ____
ROOT
ATOM      1  N   LIG    1       -1.233   2.394   0.021  0.00  0.00    -0.490 N 
ATOM      2  C   LIG    1       -1.179   3.559   0.706  0.00  0.00    +0.560 A 
ATOM      3  C   LIG    1        0.081   4.314   0.667  0.00  0.00    -0.200 A 
ATOM      4  C   LIG    1        0.231   5.527   1.337  0.00  0.00    +0.100 A 
ATOM      5  C   LIG    1        1.434   6.196   1.269  0.00  0.00    +0.000 A 
ATOM      6  C   LIG    1        2.494   5.671   0.541  0.00  0.00    +0.070 A 
ATOM      7  C   LIG    1        2.368   4.475  -0.128  0.00  0.00    +0.030 A 
ATOM      8  C   LIG    1        1.158   3.777  -0.075  0.00  0.00    +0.160 A 
ATOM      9  N   LIG    1        0.993   2.598  -0.718  0.00  0.00    -0.520 NA
ATOM     10  O   LIG    1       -2.142   3.970   1.327  0.00  0.00    -0.490 OA
ATOM     11  C   LIG    1       -0.141   1.943  -0.669  0.00  0.00    +0.370 A 
ENDROOT
BRANCH   1  16
ATOM     12  C   LIG    1       -6.016  -0.661   0.030  0.00  0.00    +0.110 C 
ATOM     13  C   LIG    1       -4.746   0.150   0.027  0.00  0.00    -0.050 A 
ATOM     14  C   LIG    1       -3.789  -0.062   1.002  0.00  0.00    +0.050 A 
ATOM     15  C   LIG    1       -2.622   0.676   1.000  0.00  0.00    +0.060 A 
ATOM     16  C   LIG    1       -2.413   1.640   0.023  0.00  0.00    +0.100 A 
ATOM     17  C   LIG    1       -3.375   1.852  -0.956  0.00  0.00    +0.060 A 
ATOM     18  C   LIG    1       -4.539   1.107  -0.951  0.00  0.00    -0.030 A 
ATOM     19 CL   LIG    1       -5.743   1.371  -2.175  0.00  0.00    -0.050 Cl
ENDBRANCH   1  16
BRANCH  11  20
ATOM     20  S   LIG    1       -0.268   0.415  -1.537  0.00  0.00    +0.020 S 
BRANCH  20  21
ATOM     21  C   LIG    1        1.395   0.317  -2.245  0.00  0.00    +0.170 C 
BRANCH  21  22
ATOM     22  C   LIG    1        1.523  -0.948  -3.054  0.00  0.00    -0.070 A 
ATOM     23  C   LIG    1        1.202  -0.943  -4.399  0.00  0.00    +0.060 A 
ATOM     24  C   LIG    1        1.319  -2.103  -5.142  0.00  0.00    +0.050 A 
ATOM     25  C   LIG    1        1.758  -3.268  -4.541  0.00  0.00    -0.020 A 
ATOM     26  C   LIG    1        2.080  -3.273  -3.194  0.00  0.00    -0.030 A 
ATOM     27 CL   LIG    1        2.631  -4.735  -2.438  0.00  0.00    -0.040 Cl
ATOM     28 CL   LIG    1        1.905  -4.724  -5.474  0.00  0.00    -0.040 Cl
ATOM     29  C   LIG    1        1.967  -2.111  -2.453  0.00  0.00    +0.070 A 
ENDBRANCH  21  22
ENDBRANCH  20  21
ENDBRANCH  11  20
TORSDOF 4
