REMARK  Name = ZINCrD00000hQ4S3.0
REMARK                            x       y       z     vdW  Elec       q    Type
REMARK                         _______ _______ _______ _____ _____    ______ ____
ROOT
ATOM      1  N   LIG    1       -3.362   2.826   4.512  0.00  0.00    -0.480 N 
ATOM      2  C   LIG    1       -3.639   3.617   3.305  0.00  0.00    +0.190 C 
ATOM      3  C   LIG    1       -4.242   2.707   2.230  0.00  0.00    +0.320 C 
ATOM      4  N   LIG    1       -3.343   1.560   2.030  0.00  0.00    -1.000 NA
ATOM      5  C   LIG    1       -2.916   0.797   3.212  0.00  0.00    +0.310 C 
ATOM      6  C   LIG    1       -2.360   1.785   4.249  0.00  0.00    +0.200 C 
ENDROOT
BRANCH   1  10
ATOM      7  C   LIG    1       -2.175   5.277   7.662  0.00  0.00    -0.110 A 
ATOM      8  C   LIG    1       -2.261   3.909   7.847  0.00  0.00    +0.030 A 
ATOM      9  C   LIG    1       -2.655   3.093   6.804  0.00  0.00    -0.010 A 
ATOM     10  C   LIG    1       -2.964   3.648   5.569  0.00  0.00    +0.110 A 
ATOM     11  C   LIG    1       -2.872   5.022   5.385  0.00  0.00    -0.040 A 
ATOM     12  C   LIG    1       -2.482   5.832   6.434  0.00  0.00    +0.030 A 
BRANCH   7  14
ATOM     13  C   LIG    1       -0.224   6.322   8.780  0.00  0.00    +0.010 C 
ATOM     14  C   LIG    1       -1.746   6.164   8.802  0.00  0.00    +0.060 C 
ENDBRANCH   7  14
ENDBRANCH   1  10
BRANCH   4  15
ATOM     15  S   LIG    1       -2.832   1.136   0.513  0.00  0.00    +2.690 S 
ATOM     16  O   LIG    1       -2.391  -0.212   0.600  0.00  0.00    -0.950 OA
ATOM     17  O   LIG    1       -3.844   1.566  -0.387  0.00  0.00    -0.950 OA
BRANCH  15  18
ATOM     18  C   LIG    1       -1.404   2.105   0.154  0.00  0.00    -0.650 A 
ATOM     19  C   LIG    1       -1.450   3.060  -0.842  0.00  0.00    +0.040 A 
ATOM     20  C   LIG    1       -0.328   3.826  -1.120  0.00  0.00    +0.100 A 
ATOM     21  C   LIG    1        0.841   3.626  -0.400  0.00  0.00    -0.050 A 
ATOM     22  C   LIG    1        0.884   2.666   0.592  0.00  0.00    +0.030 A 
ATOM     23  C   LIG    1        2.063   4.456  -0.700  0.00  0.00    +0.110 C 
ATOM     24  C   LIG    1       -0.236   1.904   0.867  0.00  0.00    -0.010 A 
ATOM     25  C   LIG    1       -0.186   0.857   1.950  0.00  0.00    +0.100 C 
BRANCH  20  26
ATOM     26  O   LIG    1       -0.372   4.770  -2.097  0.00  0.00    -0.310 OA
ATOM     27  C   LIG    1       -1.609   4.921  -2.797  0.00  0.00    +0.250 C 
ENDBRANCH  20  26
ENDBRANCH  15  18
ENDBRANCH   4  15
TORSDOF 5
