REMARK  Name = ZINCrH000004nOH6.0
REMARK                            x       y       z     vdW  Elec       q    Type
REMARK                         _______ _______ _______ _____ _____    ______ ____
ROOT
ATOM      1  N   LIG    1        5.996   1.949   0.620  0.00  0.00    -0.630 N 
ATOM      2  H   LIG    1        5.901   2.883   0.865  0.00  0.00    +0.430 HD
ATOM      3  C   LIG    1        4.908   1.223   0.295  0.00  0.00    +0.560 C 
ATOM      4  O   LIG    1        5.027   0.052  -0.013  0.00  0.00    -0.460 OA
ENDROOT
BRANCH   3   5
ATOM      5  C   LIG    1        3.584   1.843   0.312  0.00  0.00    -0.240 C 
ATOM      6  C   LIG    1        2.487   1.115  -0.014  0.00  0.00    +0.190 C 
ATOM      7  C   LIG    1        1.182   1.794   0.000  0.00  0.00    -0.150 A 
ATOM      8  C   LIG    1       -0.013   1.076   0.008  0.00  0.00    +0.110 A 
ATOM      9  C   LIG    1       -1.215   1.755   0.017  0.00  0.00    -0.070 A 
ATOM     10  C   LIG    1       -1.235   3.141   0.029  0.00  0.00    +0.090 A 
ATOM     11  C   LIG    1       -0.056   3.863   0.022  0.00  0.00    +0.020 A 
ATOM     12 CL   LIG    1       -2.708   0.869   0.020  0.00  0.00    -0.060 Cl
ATOM     13  C   LIG    1        1.158   3.200   0.007  0.00  0.00    +0.150 A 
ATOM     14  O   LIG    1        2.331   3.879  -0.002  0.00  0.00    -0.300 OA
ATOM     15  C   LIG    1        3.432   3.293   0.693  0.00  0.00    +0.300 C 
ENDBRANCH   3   5
BRANCH   1  21
ATOM     16  C   LIG    1       11.496  -0.823   0.498  0.00  0.00    -0.660 A 
ATOM     17  C   LIG    1       10.615  -1.826   0.122  0.00  0.00    +0.140 A 
ATOM     18  C   LIG    1        9.269  -1.577   0.034  0.00  0.00    +0.060 A 
ATOM     19  C   LIG    1        8.759  -0.293   0.325  0.00  0.00    +0.160 A 
ATOM     20  N   LIG    1        7.481   0.132   0.299  0.00  0.00    -0.480 NA
ATOM     21  C   LIG    1        7.249   1.362   0.603  0.00  0.00    +0.350 A 
ATOM     22  S   LIG    1        8.749   2.188   1.003  0.00  0.00    +0.090 S 
ATOM     23  C   LIG    1        9.659   0.709   0.703  0.00  0.00    -0.210 A 
ATOM     24  C   LIG    1       11.022   0.437   0.787  0.00  0.00    +0.190 A 
BRANCH  16  26
ATOM     25  C   LIG    1       13.470  -1.707   2.318  0.00  0.00    -0.250 C 
ATOM     26  S   LIG    1       13.222  -1.161   0.606  0.00  0.00    +2.500 S 
ATOM     27  O   LIG    1       13.840   0.101   0.391  0.00  0.00    -0.930 OA
ATOM     28  O   LIG    1       13.425  -2.240  -0.296  0.00  0.00    -0.930 OA
ENDBRANCH  16  26
ENDBRANCH   1  21
TORSDOF 3
