REMARK  Name = ZINCqH0000051yua.0
REMARK                            x       y       z     vdW  Elec       q    Type
REMARK                         _______ _______ _______ _____ _____    ______ ____
ROOT
ATOM      1  O   LIG    1        3.120   0.335   3.326  0.00  0.00    -0.500 OA
ATOM      2  C   LIG    1        2.986  -0.391   2.369  0.00  0.00    +0.500 C 
ENDROOT
BRANCH   2   3
ATOM      3  C   LIG    1        2.208   0.081   1.168  0.00  0.00    +0.200 C 
ATOM      4  C   LIG    1        0.794  -0.503   1.214  0.00  0.00    +0.060 C 
ATOM      5  C   LIG    1        0.002  -0.004   0.002  0.00  0.00    +0.030 C 
ATOM      6  C   LIG    1       -0.019   1.527   0.010  0.00  0.00    +0.040 C 
ATOM      7  C   LIG    1        1.419   2.052  -0.001  0.00  0.00    +0.220 C 
ATOM      8  N   LIG    1        2.134   1.548   1.179  0.00  0.00    -0.440 N 
BRANCH   8   9
ATOM      9  C   LIG    1        3.397   2.107   1.270  0.00  0.00    +0.500 A 
ATOM     10  N   LIG    1        4.454   1.311   1.337  0.00  0.00    -0.560 NA
ATOM     11  C   LIG    1        5.675   1.814   1.420  0.00  0.00    +0.350 A 
ATOM     12  C   LIG    1        5.839   3.190   1.445  0.00  0.00    -0.110 A 
ATOM     13  C   LIG    1        4.712   3.993   1.378  0.00  0.00    +0.350 A 
ATOM     14  N   LIG    1        3.520   3.426   1.292  0.00  0.00    -0.530 NA
ENDBRANCH   8   9
ENDBRANCH   2   3
BRANCH   2  15
ATOM     15  O   LIG    1        3.529  -1.619   2.377  0.00  0.00    -0.350 OA
BRANCH  15  16
ATOM     16  C   LIG    1        4.264  -2.007   3.568  0.00  0.00    +0.280 C 
BRANCH  16  17
ATOM     17  C   LIG    1        4.797  -3.406   3.396  0.00  0.00    -0.090 A 
ATOM     18  C   LIG    1        4.554  -4.093   2.247  0.00  0.00    +0.040 A 
ATOM     19  C   LIG    1        5.038  -5.388   2.069  0.00  0.00    +0.010 A 
ATOM     20  C   LIG    1        5.768  -6.003   3.040  0.00  0.00    +0.030 A 
ATOM     21  C   LIG    1        6.039  -5.324   4.241  0.00  0.00    -0.050 A 
ATOM     22  C   LIG    1        6.789  -5.925   5.265  0.00  0.00    +0.030 A 
ATOM     23  C   LIG    1        7.047  -5.231   6.407  0.00  0.00    +0.000 A 
ATOM     24  C   LIG    1        6.563  -3.936   6.585  0.00  0.00    +0.010 A 
ATOM     25  C   LIG    1        5.828  -3.324   5.616  0.00  0.00    +0.020 A 
ATOM     26  C   LIG    1        5.552  -4.005   4.418  0.00  0.00    -0.040 A 
ENDBRANCH  16  17
ENDBRANCH  15  16
ENDBRANCH   2  15
TORSDOF 5
