REMARK  Name = ZINCpe000000T288.0
REMARK                            x       y       z     vdW  Elec       q    Type
REMARK                         _______ _______ _______ _____ _____    ______ ____
ROOT
ATOM      1  C   LIG    1        6.998  -2.641  -3.064  0.00  0.00    +0.260 C 
ENDROOT
BRANCH   1   2
ATOM      2  N   LIG    1        5.764  -1.999  -2.606  0.00  0.00    -0.730 N 
ATOM      3  H   LIG    1        5.025  -1.873  -3.221  0.00  0.00    +0.410 HD
ATOM      4  C   LIG    1        5.655  -1.583  -1.329  0.00  0.00    +0.710 C 
ATOM      5  N   LIG    1        4.519  -0.992  -0.907  0.00  0.00    -0.740 N 
ATOM      6  H   LIG    1        3.780  -0.866  -1.523  0.00  0.00    +0.400 HD
ATOM      7  O   LIG    1        6.581  -1.740  -0.557  0.00  0.00    -0.590 OA
BRANCH   5   8
ATOM      8  C   LIG    1        4.401  -0.540   0.481  0.00  0.00    +0.340 C 
BRANCH   8   9
ATOM      9  C   LIG    1        3.044   0.081   0.693  0.00  0.00    -0.110 A 
ATOM     10  C   LIG    1        1.981  -0.703   1.101  0.00  0.00    +0.020 A 
ATOM     11  C   LIG    1        0.737  -0.133   1.297  0.00  0.00    +0.000 A 
ATOM     12  C   LIG    1        0.556   1.221   1.085  0.00  0.00    +0.010 A 
ATOM     13  C   LIG    1        1.619   2.005   0.677  0.00  0.00    +0.000 A 
ATOM     14  C   LIG    1        2.862   1.435   0.480  0.00  0.00    +0.020 A 
ENDBRANCH   8   9
ENDBRANCH   5   8
ENDBRANCH   1   2
BRANCH   1  15
ATOM     15  C   LIG    1        6.694  -3.531  -4.242  0.00  0.00    +0.520 C 
ATOM     16  N   LIG    1        7.492  -4.581  -4.517  0.00  0.00    -0.710 N 
ATOM     17  H   LIG    1        8.223  -4.805  -3.919  0.00  0.00    +0.410 HD
ATOM     18  O   LIG    1        5.731  -3.302  -4.942  0.00  0.00    -0.520 OA
BRANCH  16  19
ATOM     19  C   LIG    1        7.258  -5.385  -5.719  0.00  0.00    +0.270 C 
ATOM     20  C   LIG    1        8.560  -6.085  -6.147  0.00  0.00    +0.070 C 
ATOM     21  C   LIG    1        8.218  -7.172  -7.186  0.00  0.00    -0.300 C 
ATOM     22  S   LIG    1        6.505  -7.681  -6.796  0.00  0.00    +2.390 S 
ATOM     23  O   LIG    1        6.511  -9.009  -6.292  0.00  0.00    -0.930 OA
ATOM     24  O   LIG    1        5.654  -7.340  -7.882  0.00  0.00    -0.930 OA
ATOM     25  C   LIG    1        6.229  -6.504  -5.418  0.00  0.00    -0.320 C 
ENDBRANCH  16  19
ENDBRANCH   1  15
BRANCH   1  27
ATOM     26  C   LIG    1        9.327  -2.235  -3.873  0.00  0.00    +0.030 C 
ATOM     27  C   LIG    1        8.006  -1.569  -3.482  0.00  0.00    -0.010 C 
ATOM     28  C   LIG    1        7.455  -0.788  -4.677  0.00  0.00    +0.030 C 
ENDBRANCH   1  27
TORSDOF 6
