REMARK  Name = ZINCrg000000txii.0
REMARK                            x       y       z     vdW  Elec       q    Type
REMARK                         _______ _______ _______ _____ _____    ______ ____
ROOT
ATOM      1  O   LIG    1       -0.399   4.098   0.637  0.00  0.00    -0.530 OA
ATOM      2  C   LIG    1       -0.843   3.297   1.437  0.00  0.00    +0.580 C 
ATOM      3  N   LIG    1       -0.704   1.975   1.216  0.00  0.00    -0.720 N 
ATOM      4  H   LIG    1       -1.058   1.337   1.854  0.00  0.00    +0.400 HD
ENDROOT
BRANCH   2   5
ATOM      5  C   LIG    1       -1.533   3.773   2.650  0.00  0.00    -0.200 A 
ATOM      6  C   LIG    1       -1.667   5.108   2.874  0.00  0.00    +0.400 A 
ATOM      7  N   LIG    1       -2.305   5.578   3.986  0.00  0.00    -0.480 N 
ATOM      8  C   LIG    1       -2.554   6.837   4.404  0.00  0.00    +0.650 A 
ATOM      9  N   LIG    1       -3.216   6.761   5.577  0.00  0.00    -0.530 N 
ATOM     10  H   LIG    1       -3.526   7.510   6.110  0.00  0.00    +0.470 HD
ATOM     11  N   LIG    1       -3.376   5.403   5.885  0.00  0.00    -0.260 NA
ATOM     12  O   LIG    1       -2.237   7.861   3.825  0.00  0.00    -0.520 OA
ATOM     13  C   LIG    1       -2.825   4.703   4.922  0.00  0.00    +0.290 A 
ATOM     14  C   LIG    1       -2.697   3.259   4.721  0.00  0.00    +0.070 A 
ATOM     15  C   LIG    1       -2.067   2.805   3.613  0.00  0.00    +0.110 A 
ENDBRANCH   2   5
BRANCH   3  16
ATOM     16  C   LIG    1       -0.018   1.503   0.010  0.00  0.00    +0.320 C 
BRANCH  16  17
ATOM     17  C   LIG    1        0.002  -0.004   0.002  0.00  0.00    -0.110 A 
ATOM     18  C   LIG    1        1.056  -0.684   0.582  0.00  0.00    +0.040 A 
ATOM     19  C   LIG    1        1.073  -2.067   0.578  0.00  0.00    +0.010 A 
ATOM     20  C   LIG    1        0.040  -2.768  -0.013  0.00  0.00    +0.030 A 
ATOM     21  C   LIG    1       -1.012  -2.088  -0.598  0.00  0.00    -0.110 A 
ATOM     22  C   LIG    1       -1.031  -0.706  -0.591  0.00  0.00    +0.050 A 
BRANCH  21  23
ATOM     23  C   LIG    1       -2.139  -2.853  -1.243  0.00  0.00    +0.340 C 
BRANCH  23  24
ATOM     24  N   LIG    1       -1.826  -3.086  -2.655  0.00  0.00    -0.620 N 
ATOM     25  C   LIG    1       -1.107  -4.261  -3.162  0.00  0.00    +0.250 C 
ATOM     26  C   LIG    1       -0.635  -3.875  -4.581  0.00  0.00    +0.040 C 
ATOM     27  C   LIG    1       -1.671  -2.798  -4.976  0.00  0.00    +0.050 C 
ATOM     28  C   LIG    1       -2.165  -2.253  -3.654  0.00  0.00    +0.520 C 
ATOM     29  O   LIG    1       -2.776  -1.214  -3.516  0.00  0.00    -0.530 OA
ENDBRANCH  23  24
ENDBRANCH  21  23
ENDBRANCH  16  17
ENDBRANCH   3  16
TORSDOF 5
