REMARK  Name = ZINCkj000005gkKa.0
REMARK                            x       y       z     vdW  Elec       q    Type
REMARK                         _______ _______ _______ _____ _____    ______ ____
ROOT
ATOM      1  C   LIG    1        1.611   4.807  -1.176  0.00  0.00    +0.170 C 
ATOM      2  C   LIG    1        0.834   3.510  -1.459  0.00  0.00    +0.080 C 
ATOM      3  C   LIG    1        1.139   3.103  -0.007  0.00  0.00    +0.030 C 
ATOM      4  C   LIG    1        2.368   4.023  -0.091  0.00  0.00    -0.070 C 
ATOM      5  C   LIG    1        3.626   3.321  -0.607  0.00  0.00    +0.100 C 
ATOM      6  C   LIG    1        2.618   4.829   1.185  0.00  0.00    +0.070 C 
ENDROOT
BRANCH   3   7
ATOM      7  N   LIG    1        0.128   3.558   0.957  0.00  0.00    -0.480 N 
ATOM      8  H   LIG    1        0.015   4.557   0.880  0.00  0.00    +0.430 HD
ATOM      9  H   LIG    1        0.427   3.324   1.892  0.00  0.00    +0.420 HD
BRANCH   7  10
ATOM     10  C   LIG    1       -1.152   2.896   0.673  0.00  0.00    +0.390 C 
BRANCH  10  11
ATOM     11  C   LIG    1       -2.223   3.470   1.565  0.00  0.00    +0.000 A 
ATOM     12  N   LIG    1       -2.985   4.496   1.286  0.00  0.00    -0.260 NA
ATOM     13  N   LIG    1       -3.846   4.709   2.370  0.00  0.00    -0.350 N 
ATOM     14  C   LIG    1       -3.574   3.776   3.306  0.00  0.00    +0.260 A 
ATOM     15  C   LIG    1       -4.863   5.759   2.470  0.00  0.00    +0.380 C 
ATOM     16  C   LIG    1       -2.578   2.993   2.831  0.00  0.00    -0.220 A 
ATOM     17  C   LIG    1       -1.958   1.818   3.542  0.00  0.00    +0.120 C 
ENDBRANCH  10  11
ENDBRANCH   7  10
ENDBRANCH   3   7
BRANCH   1  18
ATOM     18  O   LIG    1        0.796   5.860  -0.658  0.00  0.00    -0.390 OA
BRANCH  18  20
ATOM     19  C   LIG    1       -0.245   8.028  -0.893  0.00  0.00    +0.040 C 
ATOM     20  C   LIG    1        0.641   6.967  -1.548  0.00  0.00    +0.180 C 
ENDBRANCH  18  20
ENDBRANCH   1  18
BRANCH   3  21
ATOM     21  C   LIG    1        1.491   1.623   0.153  0.00  0.00    +0.240 C 
BRANCH  21  22
ATOM     22  O   LIG    1        0.295   0.842   0.113  0.00  0.00    -0.570 OA
ATOM     23  H   LIG    1        0.442  -0.109   0.210  0.00  0.00    +0.400 HD
ENDBRANCH  21  22
ENDBRANCH   3  21
TORSDOF 7
