REMARK  Name = ZINCpe000000XIi7.0
REMARK                            x       y       z     vdW  Elec       q    Type
REMARK                         _______ _______ _______ _____ _____    ______ ____
ROOT
ATOM      1  N   LIG    1       -7.045   2.788   1.935  0.00  0.00    -0.520 NA
ATOM      2  C   LIG    1       -8.323   3.360   2.385  0.00  0.00    +0.200 C 
ATOM      3  C   LIG    1       -9.239   3.531   1.173  0.00  0.00    +0.150 C 
ATOM      4  C   LIG    1       -9.305   2.241   0.396  0.00  0.00    +0.070 A 
ATOM      5  N   LIG    1      -10.276   2.070  -0.465  0.00  0.00    -0.220 NA
ATOM      6  N   LIG    1      -10.398   1.007  -1.171  0.00  0.00    -0.340 N 
ATOM      7  C   LIG    1       -9.523  -0.013  -1.071  0.00  0.00    +0.480 A 
ATOM      8  C   LIG    1       -8.449   0.091  -0.161  0.00  0.00    -0.030 A 
ATOM      9  O   LIG    1       -9.658  -1.013  -1.758  0.00  0.00    -0.540 OA
ATOM     10  C   LIG    1       -8.347   1.236   0.579  0.00  0.00    -0.020 A 
ATOM     11  C   LIG    1       -7.218   1.379   1.561  0.00  0.00    +0.260 C 
ENDROOT
BRANCH   6  12
ATOM     12  C   LIG    1      -11.517   0.897  -2.110  0.00  0.00    +0.250 C 
ATOM     13  C   LIG    1      -11.433   2.029  -3.136  0.00  0.00    +0.050 C 
ATOM     14  C   LIG    1      -12.838   1.000  -1.344  0.00  0.00    +0.050 C 
ENDBRANCH   6  12
BRANCH   1  15
ATOM     15  C   LIG    1       -6.010   2.934   2.968  0.00  0.00    +0.240 C 
BRANCH  15  18
ATOM     16  N   LIG    1       -3.567   2.604   3.166  0.00  0.00    -0.650 N 
ATOM     17  H   LIG    1       -3.634   2.894   4.089  0.00  0.00    +0.410 HD
ATOM     18  C   LIG    1       -4.671   2.548   2.395  0.00  0.00    +0.520 C 
ATOM     19  O   LIG    1       -4.587   2.186   1.241  0.00  0.00    -0.480 OA
BRANCH  16  24
ATOM     20  C   LIG    1       -0.013   1.086   0.008  0.00  0.00    +0.160 C 
ATOM     21  C   LIG    1       -0.718   1.572   1.248  0.00  0.00    +0.090 A 
ATOM     22  N   LIG    1       -0.153   1.829   2.400  0.00  0.00    -0.290 NA
ATOM     23  N   LIG    1       -1.144   2.256   3.292  0.00  0.00    -0.390 N 
ATOM     24  C   LIG    1       -2.327   2.246   2.636  0.00  0.00    +0.300 A 
ATOM     25  C   LIG    1       -0.937   2.645   4.689  0.00  0.00    +0.360 C 
ATOM     26  C   LIG    1       -2.087   1.831   1.362  0.00  0.00    -0.100 A 
ENDBRANCH  16  24
ENDBRANCH  15  18
ENDBRANCH   1  15
TORSDOF 4
