REMARK  Name = ZINCrH000004pQux.0
REMARK                            x       y       z     vdW  Elec       q    Type
REMARK                         _______ _______ _______ _____ _____    ______ ____
ROOT
ATOM      1  C   LIG    1       -2.892   0.376   4.256  0.00  0.00    -0.120 A 
ATOM      2  C   LIG    1       -2.347  -0.910   4.187  0.00  0.00    +0.050 A 
ATOM      3  C   LIG    1       -1.352  -1.186   3.278  0.00  0.00    +0.040 A 
ATOM      4  C   LIG    1       -0.888  -0.187   2.427  0.00  0.00    +0.150 A 
ATOM      5  C   LIG    1       -1.425   1.096   2.497  0.00  0.00    +0.020 A 
ATOM      6  C   LIG    1       -2.424   1.377   3.401  0.00  0.00    +0.080 A 
ENDROOT
BRANCH   1  13
ATOM      7  C   LIG    1       -5.653   0.814   9.739  0.00  0.00    +0.030 C 
ATOM      8  C   LIG    1       -4.519   0.733   8.715  0.00  0.00    -0.040 C 
ATOM      9  C   LIG    1       -3.465  -0.265   9.198  0.00  0.00    +0.030 C 
ATOM     10  C   LIG    1       -2.314  -0.322   8.190  0.00  0.00    -0.030 C 
ATOM     11  C   LIG    1       -2.853  -0.806   6.834  0.00  0.00    +0.260 C 
ATOM     12  N   LIG    1       -3.963   0.069   6.434  0.00  0.00    -0.610 N 
ATOM     13  C   LIG    1       -3.959   0.675   5.230  0.00  0.00    +0.560 C 
ATOM     14  O   LIG    1       -4.836   1.468   4.946  0.00  0.00    -0.530 OA
ATOM     15  C   LIG    1       -1.245  -1.296   8.689  0.00  0.00    +0.030 C 
ATOM     16  C   LIG    1       -5.080   0.266   7.368  0.00  0.00    +0.270 C 
ENDBRANCH   1  13
BRANCH   4  17
ATOM     17  N   LIG    1        0.117  -0.469   1.509  0.00  0.00    -1.060 N 
ATOM     18  H   LIG    1        1.017  -0.139   1.658  0.00  0.00    +0.430 HD
BRANCH  17  19
ATOM     19  S   LIG    1       -0.221  -1.369   0.161  0.00  0.00    +2.690 S 
ATOM     20  O   LIG    1        0.984  -1.438  -0.589  0.00  0.00    -0.950 OA
ATOM     21  O   LIG    1       -0.922  -2.520   0.612  0.00  0.00    -0.940 OA
BRANCH  19  22
ATOM     22  C   LIG    1       -1.361  -0.442  -0.813  0.00  0.00    -0.690 A 
ATOM     23  C   LIG    1       -2.718  -0.680  -0.700  0.00  0.00    +0.160 A 
ATOM     24  C   LIG    1       -3.613   0.051  -1.459  0.00  0.00    -0.020 A 
ATOM     25  C   LIG    1       -3.149   1.012  -2.341  0.00  0.00    +0.160 A 
ATOM     26  C   LIG    1       -1.789   1.245  -2.457  0.00  0.00    -0.030 A 
ATOM     27  F   LIG    1       -4.023   1.722  -3.088  0.00  0.00    -0.130 F 
ATOM     28  C   LIG    1       -0.896   0.517  -1.693  0.00  0.00    +0.160 A 
ENDBRANCH  19  22
ENDBRANCH  17  19
ENDBRANCH   4  17
TORSDOF 4
