REMARK  Name = ZINCpe000000Z1Lf.2
REMARK                            x       y       z     vdW  Elec       q    Type
REMARK                         _______ _______ _______ _____ _____    ______ ____
ROOT
ATOM      1  C   LIG    1        5.385   4.335  -1.104  0.00  0.00    +0.230 C 
ATOM      2  C   LIG    1        4.129   5.182  -1.322  0.00  0.00    +0.030 C 
ATOM      3  C   LIG    1        3.163   4.966  -0.153  0.00  0.00    +0.300 C 
ATOM      4  N   LIG    1        2.903   3.527  -0.013  0.00  0.00    -0.560 N 
ATOM      5  C   LIG    1        4.046   2.612   0.117  0.00  0.00    +0.310 C 
ATOM      6  C   LIG    1        5.002   2.854  -1.060  0.00  0.00    +0.020 C 
ENDROOT
BRANCH   4   7
ATOM      7  C   LIG    1        1.618   3.046   0.000  0.00  0.00    +0.530 A 
ATOM      8  C   LIG    1        1.315   1.842   0.659  0.00  0.00    -0.110 A 
ATOM      9  N   LIG    1        2.018   0.933   1.356  0.00  0.00    -0.500 NA
ATOM     10  C   LIG    1        1.191  -0.013   1.748  0.00  0.00    +0.400 A 
ATOM     11  N   LIG    1       -0.041   0.251   1.326  0.00  0.00    -0.540 NA
ATOM     12  C   LIG    1       -0.023   1.388   0.646  0.00  0.00    +0.220 A 
ATOM     13  N   LIG    1       -0.965   2.148  -0.006  0.00  0.00    -0.540 N 
ATOM     14  H   LIG    1       -1.892   1.862  -0.027  0.00  0.00    +0.430 HD
ATOM     15  C   LIG    1       -0.597   3.287  -0.618  0.00  0.00    +0.640 A 
ATOM     16  N   LIG    1        0.638   3.717  -0.612  0.00  0.00    -0.570 NA
ENDBRANCH   4   7
BRANCH   1  18
ATOM     17  C   LIG    1        7.644   4.360  -2.016  0.00  0.00    +0.580 C 
ATOM     18  N   LIG    1        6.325   4.564  -2.204  0.00  0.00    -0.710 N 
ATOM     19  H   LIG    1        5.999   4.862  -3.067  0.00  0.00    +0.410 HD
ATOM     20  O   LIG    1        8.044   3.894  -0.966  0.00  0.00    -0.550 OA
BRANCH  17  28
ATOM     21  O   LIG    1        6.991   5.666  -4.389  0.00  0.00    -0.550 OA
ATOM     22  C   LIG    1        8.165   5.369  -4.254  0.00  0.00    +0.530 A 
ATOM     23  N   LIG    1        9.055   5.679  -5.216  0.00  0.00    -0.600 N 
ATOM     24  H   LIG    1        8.753   6.139  -6.015  0.00  0.00    +0.420 HD
ATOM     25  C   LIG    1       10.363   5.354  -5.089  0.00  0.00    +0.340 A 
ATOM     26  C   LIG    1       10.824   4.709  -3.986  0.00  0.00    -0.080 A 
ATOM     27  C   LIG    1        9.948   4.370  -2.956  0.00  0.00    +0.220 A 
ATOM     28  C   LIG    1        8.600   4.702  -3.080  0.00  0.00    -0.280 A 
ENDBRANCH  17  28
ENDBRANCH   1  18
TORSDOF 3
