REMARK  Name = ZINCpe000000Z1Lf.1
REMARK                            x       y       z     vdW  Elec       q    Type
REMARK                         _______ _______ _______ _____ _____    ______ ____
ROOT
ATOM      1  C   LIG    1        0.702   8.162  -0.975  0.00  0.00    +0.230 C 
ATOM      2  C   LIG    1        1.646   7.828   0.184  0.00  0.00    +0.030 C 
ATOM      3  C   LIG    1        2.157   6.395   0.022  0.00  0.00    +0.230 C 
ATOM      4  N   LIG    1        1.020   5.466   0.011  0.00  0.00    -0.460 N 
ATOM      5  C   LIG    1        0.124   5.737  -1.121  0.00  0.00    +0.220 C 
ATOM      6  C   LIG    1       -0.448   7.150  -0.994  0.00  0.00    +0.040 C 
ENDROOT
BRANCH   4   7
ATOM      7  C   LIG    1        1.453   4.152  -0.003  0.00  0.00    +0.430 A 
ATOM      8  C   LIG    1        0.531   3.091  -0.015  0.00  0.00    -0.070 A 
ATOM      9  N   LIG    1       -0.821   3.004  -0.018  0.00  0.00    -0.460 NA
ATOM     10  C   LIG    1       -1.173   1.751  -0.038  0.00  0.00    +0.490 A 
ATOM     11  N   LIG    1       -0.067   0.955  -0.039  0.00  0.00    -0.580 N 
ATOM     12  H   LIG    1       -0.057  -0.015  -0.049  0.00  0.00    +0.430 HD
ATOM     13  C   LIG    1        1.031   1.778  -0.028  0.00  0.00    +0.290 A 
ATOM     14  N   LIG    1        2.346   1.587  -0.029  0.00  0.00    -0.540 NA
ATOM     15  C   LIG    1        3.173   2.612  -0.017  0.00  0.00    +0.560 A 
ATOM     16  N   LIG    1        2.750   3.863  -0.004  0.00  0.00    -0.570 NA
ENDBRANCH   4   7
BRANCH   1  18
ATOM     17  C   LIG    1       -0.259  10.217  -1.862  0.00  0.00    +0.580 C 
ATOM     18  N   LIG    1        0.163   9.512  -0.794  0.00  0.00    -0.710 N 
ATOM     19  H   LIG    1        0.111   9.899   0.094  0.00  0.00    +0.420 HD
ATOM     20  O   LIG    1       -0.108   9.772  -2.984  0.00  0.00    -0.550 OA
BRANCH  17  28
ATOM     21  O   LIG    1       -0.515  11.529   0.583  0.00  0.00    -0.540 OA
ATOM     22  C   LIG    1       -0.983  12.110  -0.381  0.00  0.00    +0.530 A 
ATOM     23  N   LIG    1       -1.571  13.311  -0.225  0.00  0.00    -0.600 N 
ATOM     24  H   LIG    1       -1.619  13.708   0.659  0.00  0.00    +0.420 HD
ATOM     25  C   LIG    1       -2.103  13.971  -1.282  0.00  0.00    +0.340 A 
ATOM     26  C   LIG    1       -2.056  13.448  -2.534  0.00  0.00    -0.080 A 
ATOM     27  C   LIG    1       -1.452  12.210  -2.754  0.00  0.00    +0.220 A 
ATOM     28  C   LIG    1       -0.904  11.526  -1.671  0.00  0.00    -0.280 A 
ENDBRANCH  17  28
ENDBRANCH   1  18
TORSDOF 3
