REMARK  Name = ZINCpe000000Z1Lf.0
REMARK                            x       y       z     vdW  Elec       q    Type
REMARK                         _______ _______ _______ _____ _____    ______ ____
ROOT
ATOM      1  C   LIG    1        5.231   5.307  -1.040  0.00  0.00    +0.230 C 
ATOM      2  C   LIG    1        4.580   6.064   0.121  0.00  0.00    +0.030 C 
ATOM      3  C   LIG    1        3.058   5.983  -0.013  0.00  0.00    +0.230 C 
ATOM      4  N   LIG    1        2.638   4.575   0.001  0.00  0.00    -0.480 N 
ATOM      5  C   LIG    1        3.213   3.839  -1.132  0.00  0.00    +0.190 C 
ATOM      6  C   LIG    1        4.740   3.856  -1.032  0.00  0.00    +0.030 C 
ENDROOT
BRANCH   4   7
ATOM      7  C   LIG    1        1.257   4.469   0.013  0.00  0.00    +0.400 A 
ATOM      8  C   LIG    1        0.637   3.218   0.028  0.00  0.00    -0.080 A 
ATOM      9  N   LIG    1        1.072   1.910   0.034  0.00  0.00    -0.570 N 
ATOM     10  H   LIG    1        1.994   1.609   0.029  0.00  0.00    +0.430 HD
ATOM     11  C   LIG    1       -0.028   1.124   0.049  0.00  0.00    +0.530 A 
ATOM     12  N   LIG    1       -1.105   1.859   0.046  0.00  0.00    -0.490 NA
ATOM     13  C   LIG    1       -0.766   3.162   0.039  0.00  0.00    +0.310 A 
ATOM     14  N   LIG    1       -1.454   4.309   0.035  0.00  0.00    -0.500 NA
ATOM     15  C   LIG    1       -0.827   5.464   0.022  0.00  0.00    +0.540 A 
ATOM     16  N   LIG    1        0.491   5.557   0.011  0.00  0.00    -0.550 NA
ENDBRANCH   4   7
BRANCH   1  18
ATOM     17  C   LIG    1        7.482   5.199  -1.966  0.00  0.00    +0.580 C 
ATOM     18  N   LIG    1        6.687   5.331  -0.885  0.00  0.00    -0.710 N 
ATOM     19  H   LIG    1        7.080   5.443  -0.005  0.00  0.00    +0.420 HD
ATOM     20  O   LIG    1        6.993   4.966  -3.055  0.00  0.00    -0.550 OA
BRANCH  17  28
ATOM     21  O   LIG    1        8.834   5.512   0.450  0.00  0.00    -0.550 OA
ATOM     22  C   LIG    1        9.532   5.492  -0.548  0.00  0.00    +0.530 A 
ATOM     23  N   LIG    1       10.869   5.610  -0.440  0.00  0.00    -0.600 N 
ATOM     24  H   LIG    1       11.270   5.711   0.438  0.00  0.00    +0.420 HD
ATOM     25  C   LIG    1       11.663   5.595  -1.537  0.00  0.00    +0.350 A 
ATOM     26  C   LIG    1       11.140   5.455  -2.782  0.00  0.00    -0.080 A 
ATOM     27  C   LIG    1        9.763   5.322  -2.952  0.00  0.00    +0.220 A 
ATOM     28  C   LIG    1        8.940   5.337  -1.828  0.00  0.00    -0.280 A 
ENDBRANCH  17  28
ENDBRANCH   1  18
TORSDOF 3
