REMARK  Name = ZINCqH00000338Vo.0
REMARK                            x       y       z     vdW  Elec       q    Type
REMARK                         _______ _______ _______ _____ _____    ______ ____
ROOT
ATOM      1  C   LIG    1        0.002  -0.004   0.002  0.00  0.00    -0.080 A 
ATOM      2  C   LIG    1       -0.006  -0.688  -1.200  0.00  0.00    +0.040 A 
ATOM      3  C   LIG    1        0.019  -2.069  -1.211  0.00  0.00    +0.000 A 
ATOM      4  C   LIG    1        0.040  -2.771  -0.013  0.00  0.00    +0.150 A 
ATOM      5  C   LIG    1        0.042  -2.082   1.192  0.00  0.00    +0.030 A 
ATOM      6  C   LIG    1        0.023  -0.700   1.196  0.00  0.00    +0.070 A 
ENDROOT
BRANCH   4   7
ATOM      7  N   LIG    1        0.058  -4.172  -0.021  0.00  0.00    -0.300 N 
ATOM      8  C   LIG    1        0.058  -4.962  -1.119  0.00  0.00    +0.250 A 
ATOM      9  C   LIG    1        0.080  -6.249  -0.700  0.00  0.00    -0.050 A 
ATOM     10  C   LIG    1        0.093  -6.246   0.699  0.00  0.00    -0.010 A 
ATOM     11  N   LIG    1        0.086  -5.003   1.107  0.00  0.00    -0.230 NA
BRANCH  10  12
ATOM     12  C   LIG    1        0.119  -7.466   1.585  0.00  0.00    +0.560 C 
ATOM     13  F   LIG    1       -0.532  -8.523   0.940  0.00  0.00    -0.160 F 
ATOM     14  F   LIG    1       -0.533  -7.181   2.789  0.00  0.00    -0.170 F 
ATOM     15  F   LIG    1        1.446  -7.824   1.846  0.00  0.00    -0.170 F 
ENDBRANCH  10  12
ENDBRANCH   4   7
BRANCH   1  16
ATOM     16  C   LIG    1       -0.018   1.503   0.010  0.00  0.00    +0.230 C 
BRANCH  16  17
ATOM     17  N   LIG    1        1.360   2.011  -0.000  0.00  0.00    -0.660 NA
ATOM     18  H   LIG    1        1.874   1.647  -0.788  0.00  0.00    +0.350 HD
BRANCH  17  19
ATOM     19  C   LIG    1        1.379   3.480   0.008  0.00  0.00    +0.130 C 
ATOM     20  C   LIG    1        0.653   4.006  -1.232  0.00  0.00    +0.040 C 
BRANCH  19  21
ATOM     21  C   LIG    1        2.806   3.964  -0.003  0.00  0.00    +0.470 C 
ATOM     22  O   LIG    1        3.098   4.973  -0.601  0.00  0.00    -0.510 OA
BRANCH  21  23
ATOM     23  O   LIG    1        3.754   3.274   0.651  0.00  0.00    -0.340 OA
ATOM     24  C   LIG    1        5.107   3.798   0.597  0.00  0.00    +0.250 C 
ENDBRANCH  21  23
ENDBRANCH  19  21
BRANCH  19  25
ATOM     25  C   LIG    1        0.676   3.993   1.266  0.00  0.00    +0.040 C 
BRANCH  25  27
ATOM     26  C   LIG    1        0.700   3.979   3.765  0.00  0.00    +0.010 C 
ATOM     27  C   LIG    1        1.403   3.467   2.506  0.00  0.00    +0.020 C 
ENDBRANCH  25  27
ENDBRANCH  19  25
ENDBRANCH  17  19
ENDBRANCH  16  17
ENDBRANCH   1  16
TORSDOF 9
