REMARK  Name = ZINCpk00000ea3rm.0
REMARK                            x       y       z     vdW  Elec       q    Type
REMARK                         _______ _______ _______ _____ _____    ______ ____
ROOT
ATOM      1  C   LIG    1        1.662  -0.513  -0.046  0.00  0.00    +0.270 C 
ENDROOT
BRANCH   1   4
ATOM      2  N   LIG    1        0.242   1.512   0.005  0.00  0.00    -0.720 N 
ATOM      3  H   LIG    1        1.053   2.044   0.007  0.00  0.00    +0.410 HD
ATOM      4  C   LIG    1        0.319   0.167   0.032  0.00  0.00    +0.520 C 
ATOM      5  O   LIG    1       -0.693  -0.497   0.118  0.00  0.00    -0.500 OA
BRANCH   2   6
ATOM      6  C   LIG    1       -1.067   2.170  -0.033  0.00  0.00    +0.280 C 
BRANCH   6   7
ATOM      7  C   LIG    1       -0.944   3.491  -0.749  0.00  0.00    +0.460 C 
ATOM      8  O   LIG    1        0.127   3.846  -1.182  0.00  0.00    -0.500 OA
BRANCH   7  10
ATOM      9  C   LIG    1       -1.831   5.531  -1.603  0.00  0.00    +0.280 C 
ATOM     10  O   LIG    1       -2.023   4.273  -0.904  0.00  0.00    -0.340 OA
ENDBRANCH   7  10
ENDBRANCH   6   7
BRANCH   6  11
ATOM     11  C   LIG    1       -1.560   2.408   1.395  0.00  0.00    +0.040 C 
BRANCH  11  12
ATOM     12  C   LIG    1       -2.995   2.937   1.357  0.00  0.00    -0.020 C 
ATOM     13  C   LIG    1       -3.447   3.287   2.777  0.00  0.00    +0.020 C 
ATOM     14  C   LIG    1       -3.919   1.865   0.777  0.00  0.00    +0.020 C 
ENDBRANCH  11  12
ENDBRANCH   6  11
ENDBRANCH   2   6
ENDBRANCH   1   4
BRANCH   1  15
ATOM     15  O   LIG    1        1.479  -1.952   0.000  0.00  0.00    -0.320 OA
BRANCH  15  16
ATOM     16  C   LIG    1        2.591  -2.712  -0.059  0.00  0.00    +0.560 C 
ATOM     17  O   LIG    1        3.683  -2.186  -0.148  0.00  0.00    -0.490 OA
BRANCH  16  18
ATOM     18  C   LIG    1        2.482  -4.180  -0.017  0.00  0.00    +0.010 A 
ATOM     19  N   LIG    1        1.376  -4.887   0.083  0.00  0.00    -0.160 NA
ATOM     20  N   LIG    1        1.612  -6.149   0.091  0.00  0.00    -0.400 N 
ATOM     21  H   LIG    1        0.927  -6.833   0.156  0.00  0.00    +0.450 HD
ATOM     22  C   LIG    1        2.955  -6.404   0.003  0.00  0.00    +0.060 A 
ATOM     23  C   LIG    1        3.732  -7.558  -0.024  0.00  0.00    +0.010 A 
ATOM     24  C   LIG    1        5.102  -7.455  -0.123  0.00  0.00    +0.060 A 
ATOM     25  C   LIG    1        5.717  -6.212  -0.195  0.00  0.00    +0.000 A 
ATOM     26  C   LIG    1        4.972  -5.066  -0.171  0.00  0.00    +0.090 A 
ATOM     27  C   LIG    1        3.587  -5.147  -0.072  0.00  0.00    -0.100 A 
ENDBRANCH  16  18
ENDBRANCH  15  16
ENDBRANCH   1  15
TORSDOF 9
