REMARK  Name = ZINCnE000001D72z.1
REMARK                            x       y       z     vdW  Elec       q    Type
REMARK                         _______ _______ _______ _____ _____    ______ ____
ROOT
ATOM      1  N   LIG    1       -5.861   3.179   2.284  0.00  0.00    -0.680 NA
ATOM      2  H   LIG    1       -5.516   3.013   3.218  0.00  0.00    +0.350 HD
ENDROOT
BRANCH   1   3
ATOM      3  C   LIG    1       -7.158   3.868   2.317  0.00  0.00    +0.230 C 
BRANCH   3   8
ATOM      4  C   LIG    1       -9.158   2.522   5.220  0.00  0.00    -0.120 A 
ATOM      5  C   LIG    1       -9.915   1.577   4.555  0.00  0.00    +0.250 A 
ATOM      6  N   LIG    1       -9.780   1.396   3.256  0.00  0.00    -0.480 NA
ATOM      7  C   LIG    1       -8.928   2.105   2.542  0.00  0.00    +0.280 A 
ATOM      8  C   LIG    1       -8.133   3.065   3.139  0.00  0.00    -0.130 A 
ATOM      9  C   LIG    1       -8.247   3.284   4.503  0.00  0.00    +0.060 A 
BRANCH   4  11
ATOM     10  C   LIG    1       -9.755   4.164   6.980  0.00  0.00    +0.040 C 
ATOM     11  C   LIG    1       -9.319   2.724   6.705  0.00  0.00    -0.020 C 
ATOM     12  C   LIG    1       -7.986   2.451   7.404  0.00  0.00    +0.040 C 
ATOM     13  C   LIG    1      -10.381   1.760   7.237  0.00  0.00    +0.030 C 
ENDBRANCH   4  11
ENDBRANCH   3   8
ENDBRANCH   1   3
BRANCH   1  14
ATOM     14  C   LIG    1       -4.883   3.935   1.489  0.00  0.00    +0.170 C 
BRANCH  14  15
ATOM     15  C   LIG    1       -3.548   3.188   1.479  0.00  0.00    +0.130 C 
ATOM     16  C   LIG    1       -2.497   4.033   0.757  0.00  0.00    -0.010 C 
ATOM     17  C   LIG    1       -1.161   3.286   0.747  0.00  0.00    +0.040 C 
ATOM     18  C   LIG    1       -1.330   1.951   0.019  0.00  0.00    -0.090 C 
ATOM     19  C   LIG    1       -2.381   1.105   0.741  0.00  0.00    +0.040 C 
ATOM     20  F   LIG    1       -3.135   2.953   2.795  0.00  0.00    -0.210 F 
ATOM     21  C   LIG    1       -3.716   1.852   0.751  0.00  0.00    +0.020 C 
BRANCH  18  22
ATOM     22  C   LIG    1       -0.015   1.215   0.009  0.00  0.00    +0.500 C 
ATOM     23  O   LIG    1        1.033   1.839   0.002  0.00  0.00    -0.700 OA
ATOM     24  O   LIG    1        0.002  -0.004   0.002  0.00  0.00    -0.700 OA
ENDBRANCH  18  22
ENDBRANCH  14  15
ENDBRANCH   1  14
TORSDOF 6
