REMARK  Name = ZINCpk00000jmhtk.0
REMARK                            x       y       z     vdW  Elec       q    Type
REMARK                         _______ _______ _______ _____ _____    ______ ____
ROOT
ATOM      1  N   LIG    1       -0.011   0.966   0.007  0.00  0.00    -0.720 N 
ATOM      2  H   LIG    1        0.002  -0.004   0.002  0.00  0.00    +0.400 HD
ATOM      3  C   LIG    1       -1.187   1.624   0.017  0.00  0.00    +0.590 C 
ATOM      4  O   LIG    1       -1.204   2.840   0.023  0.00  0.00    -0.510 OA
ENDROOT
BRANCH   3   5
ATOM      5  C   LIG    1       -2.450   0.872   0.018  0.00  0.00    +0.010 A 
ATOM      6  C   LIG    1       -3.693   1.420   0.033  0.00  0.00    +0.090 A 
ATOM      7  C   LIG    1       -4.631   0.361   0.026  0.00  0.00    -0.170 A 
ATOM      8  C   LIG    1       -6.034   0.318   0.032  0.00  0.00    +0.190 A 
ATOM      9  C   LIG    1       -6.679  -0.898   0.028  0.00  0.00    -0.070 A 
ATOM     10  C   LIG    1       -5.949  -2.083   0.018  0.00  0.00    +0.170 A 
ATOM     11  C   LIG    1       -4.570  -2.058   0.012  0.00  0.00    -0.040 A 
ATOM     12  F   LIG    1       -6.598  -3.268   0.015  0.00  0.00    -0.120 F 
ATOM     13  F   LIG    1       -6.748   1.464   0.041  0.00  0.00    -0.120 F 
ATOM     14  C   LIG    1       -3.896  -0.841   0.016  0.00  0.00    +0.170 A 
ATOM     15  N   LIG    1       -2.562  -0.506   0.011  0.00  0.00    -0.570 N 
ATOM     16  H   LIG    1       -1.822  -1.134   0.004  0.00  0.00    +0.420 HD
ENDBRANCH   3   5
BRANCH   1  25
ATOM     17  C   LIG    1        1.835  -0.501  -1.051  0.00  0.00    +0.040 C 
ATOM     18  C   LIG    1        2.373   0.867  -0.627  0.00  0.00    -0.080 C 
ATOM     19  C   LIG    1        3.423   0.707   0.493  0.00  0.00    +0.280 C 
ATOM     20  N   LIG    1        2.660   0.894   1.750  0.00  0.00    -0.630 N 
ATOM     21  C   LIG    1        1.716   1.994   1.444  0.00  0.00    +0.270 C 
ATOM     22  C   LIG    1        2.795   0.218   2.908  0.00  0.00    +0.530 C 
ATOM     23  O   LIG    1        3.622  -0.664   3.002  0.00  0.00    -0.510 OA
ATOM     24  C   LIG    1        2.983   1.595  -1.827  0.00  0.00    +0.070 C 
ATOM     25  C   LIG    1        1.248   1.716  -0.001  0.00  0.00    +0.260 C 
BRANCH  22  26
ATOM     26  C   LIG    1        1.918   0.558   4.085  0.00  0.00    +0.210 C 
BRANCH  26  27
ATOM     27  O   LIG    1        2.249  -0.291   5.186  0.00  0.00    -0.550 OA
ATOM     28  H   LIG    1        1.723  -0.128   5.981  0.00  0.00    +0.390 HD
ENDBRANCH  26  27
ENDBRANCH  22  26
ENDBRANCH   1  25
TORSDOF 4
