REMARK  Name = ZINCnE000001TDfO.1
REMARK                            x       y       z     vdW  Elec       q    Type
REMARK                         _______ _______ _______ _____ _____    ______ ____
ROOT
ATOM      1  C   LIG    1       -1.394   1.790   0.223  0.00  0.00    -0.130 A 
ATOM      2  C   LIG    1       -1.363   3.187   0.231  0.00  0.00    +0.020 A 
ATOM      3  C   LIG    1       -2.542   3.894   0.166  0.00  0.00    +0.010 A 
ATOM      4  C   LIG    1       -3.765   3.234   0.103  0.00  0.00    -0.090 A 
ATOM      5  C   LIG    1       -3.803   1.855   0.105  0.00  0.00    -0.090 A 
ATOM      6  C   LIG    1       -5.094   1.080   0.056  0.00  0.00    +0.060 C 
ATOM      7  C   LIG    1       -6.237   1.970  -0.429  0.00  0.00    +0.020 C 
ATOM      8  C   LIG    1       -6.240   3.253   0.410  0.00  0.00    -0.020 C 
ATOM      9  C   LIG    1       -5.011   4.078   0.033  0.00  0.00    +0.230 C 
ATOM     10  C   LIG    1       -2.622   1.133   0.162  0.00  0.00    +0.030 A 
ENDROOT
BRANCH   1  12
ATOM     11  O   LIG    1       -0.172  -0.204   0.282  0.00  0.00    -0.690 OA
ATOM     12  C   LIG    1       -0.138   1.018   0.285  0.00  0.00    +0.520 C 
ATOM     13  O   LIG    1        0.936   1.600   0.333  0.00  0.00    -0.690 OA
ENDBRANCH   1  12
BRANCH   9  14
ATOM     14  N   LIG    1       -4.883   5.209   0.962  0.00  0.00    -0.680 NA
ATOM     15  H   LIG    1       -5.122   4.933   1.903  0.00  0.00    +0.350 HD
BRANCH  14  16
ATOM     16  C   LIG    1       -5.703   6.346   0.523  0.00  0.00    +0.310 C 
BRANCH  16  17
ATOM     17  C   LIG    1       -5.449   7.526   1.425  0.00  0.00    -0.020 A 
ATOM     18  C   LIG    1       -4.510   8.488   1.257  0.00  0.00    +0.000 A 
ATOM     19  C   LIG    1       -4.696   9.344   2.366  0.00  0.00    -0.070 A 
ATOM     20  N   LIG    1       -5.677   8.841   3.058  0.00  0.00    -0.330 NA
ATOM     21  O   LIG    1       -6.112   7.835   2.548  0.00  0.00    +0.120 OA
BRANCH  19  22
ATOM     22  C   LIG    1       -3.912  10.591   2.685  0.00  0.00    +0.490 C 
ATOM     23  F   LIG    1       -2.609  10.461   2.195  0.00  0.00    -0.190 F 
ATOM     24  F   LIG    1       -3.873  10.775   4.072  0.00  0.00    -0.190 F 
ENDBRANCH  19  22
ENDBRANCH  16  17
ENDBRANCH  14  16
ENDBRANCH   9  14
TORSDOF 5
