REMARK  Name = ZINCrD000000B4ib.0
REMARK                            x       y       z     vdW  Elec       q    Type
REMARK                         _______ _______ _______ _____ _____    ______ ____
ROOT
ATOM      1  O   LIG    1       -1.204   2.840   0.023  0.00  0.00    -0.590 OA
ATOM      2  C   LIG    1       -1.187   1.624   0.017  0.00  0.00    +0.710 C 
ATOM      3  N   LIG    1       -0.011   0.966   0.007  0.00  0.00    -0.740 N 
ATOM      4  H   LIG    1        0.002  -0.004   0.002  0.00  0.00    +0.400 HD
ATOM      5  N   LIG    1       -2.345   0.934   0.018  0.00  0.00    -0.750 N 
ATOM      6  H   LIG    1       -2.332  -0.036   0.013  0.00  0.00    +0.400 HD
ENDROOT
BRANCH   3   7
ATOM      7  C   LIG    1        1.248   1.716  -0.001  0.00  0.00    +0.320 C 
BRANCH   7   8
ATOM      8  C   LIG    1        2.424   0.737  -0.017  0.00  0.00    +0.130 C 
ATOM      9  C   LIG    1        3.744   1.513   0.086  0.00  0.00    +0.240 C 
ATOM     10  O   LIG    1        4.822   0.571   0.053  0.00  0.00    -0.300 OA
ATOM     11  C   LIG    1        4.759  -0.398  -0.900  0.00  0.00    +0.050 A 
ATOM     12  C   LIG    1        5.903  -1.111  -1.223  0.00  0.00    +0.030 A 
ATOM     13  C   LIG    1        5.854  -2.103  -2.185  0.00  0.00    +0.020 A 
ATOM     14  C   LIG    1        4.663  -2.387  -2.827  0.00  0.00    +0.020 A 
ATOM     15  C   LIG    1        3.518  -1.680  -2.510  0.00  0.00    +0.020 A 
ATOM     16  C   LIG    1        3.562  -0.683  -1.548  0.00  0.00    +0.050 A 
ATOM     17  O   LIG    1        2.427   0.007  -1.248  0.00  0.00    -0.300 OA
ENDBRANCH   7   8
ENDBRANCH   3   7
BRANCH   5  18
ATOM     18  C   LIG    1       -3.624   1.649   0.028  0.00  0.00    +0.280 C 
BRANCH  18  19
ATOM     19  C   LIG    1       -4.773   0.639   0.028  0.00  0.00    +0.080 C 
BRANCH  19  20
ATOM     20  C   LIG    1       -6.088   1.375   0.038  0.00  0.00    -0.050 A 
ATOM     21  C   LIG    1       -6.689   1.701   1.240  0.00  0.00    +0.030 A 
ATOM     22  C   LIG    1       -7.893   2.380   1.250  0.00  0.00    +0.070 A 
ATOM     23  C   LIG    1       -8.501   2.724   0.057  0.00  0.00    -0.180 A 
ATOM     24  C   LIG    1       -7.904   2.393  -1.145  0.00  0.00    +0.070 A 
ATOM     25  C   LIG    1       -6.697   1.719  -1.154  0.00  0.00    +0.030 A 
BRANCH  23  26
ATOM     26  C   LIG    1       -9.816   3.460   0.067  0.00  0.00    +0.510 C 
ATOM     27  F   LIG    1       -9.907   4.269  -1.070  0.00  0.00    -0.180 F 
ATOM     28  F   LIG    1       -9.896   4.257   1.214  0.00  0.00    -0.180 F 
ATOM     29  F   LIG    1      -10.867   2.537   0.067  0.00  0.00    -0.180 F 
ENDBRANCH  23  26
ENDBRANCH  19  20
ENDBRANCH  18  19
ENDBRANCH   5  18
TORSDOF 6
