REMARK  Name = ZINCqH0000006K49.0
REMARK                            x       y       z     vdW  Elec       q    Type
REMARK                         _______ _______ _______ _____ _____    ______ ____
ROOT
ATOM      1  N   LIG    1        4.077   2.449  -1.404  0.00  0.00    -0.740 N 
ATOM      2  H   LIG    1        3.530   2.128  -2.138  0.00  0.00    +0.400 HD
ATOM      3  C   LIG    1        5.211   3.132  -1.657  0.00  0.00    +0.730 C 
ATOM      4  N   LIG    1        5.585   3.370  -2.930  0.00  0.00    -0.640 N 
ATOM      5  C   LIG    1        4.891   2.959  -4.173  0.00  0.00    +0.290 C 
ATOM      6  C   LIG    1        5.039   4.177  -5.117  0.00  0.00    -0.040 C 
ATOM      7  C   LIG    1        6.338   4.275  -5.996  0.00  0.00    +0.090 C 
ATOM      8  C   LIG    1        6.291   4.923  -4.611  0.00  0.00    -0.110 C 
ATOM      9  C   LIG    1        6.786   4.096  -3.404  0.00  0.00    +0.330 C 
ATOM     10  O   LIG    1        5.897   3.534  -0.737  0.00  0.00    -0.580 OA
ENDROOT
BRANCH   8  11
ATOM     11  C   LIG    1        6.327   6.424  -4.491  0.00  0.00    -0.040 A 
ATOM     12  C   LIG    1        5.241   7.177  -4.900  0.00  0.00    +0.010 A 
ATOM     13  C   LIG    1        5.272   8.554  -4.785  0.00  0.00    +0.000 A 
ATOM     14  C   LIG    1        6.393   9.180  -4.271  0.00  0.00    -0.090 A 
ATOM     15  C   LIG    1        7.480   8.428  -3.867  0.00  0.00    +0.000 A 
ATOM     16  C   LIG    1        6.428  10.681  -4.151  0.00  0.00    +0.090 C 
ATOM     17  C   LIG    1        7.447   7.050  -3.977  0.00  0.00    +0.020 A 
ENDBRANCH   8  11
BRANCH   1  18
ATOM     18  C   LIG    1        3.671   2.190  -0.021  0.00  0.00    +0.340 C 
BRANCH  18  23
ATOM     19  C   LIG    1        1.213  -0.680  -0.013  0.00  0.00    +0.130 A 
ATOM     20  C   LIG    1        0.002  -0.004   0.002  0.00  0.00    -0.070 A 
ATOM     21  C   LIG    1       -0.017   1.377   0.010  0.00  0.00    -0.050 A 
ATOM     22  C   LIG    1        1.170   2.086   0.002  0.00  0.00    -0.010 A 
ATOM     23  C   LIG    1        2.379   1.415  -0.013  0.00  0.00    -0.070 A 
ATOM     24  C   LIG    1       -1.332   2.112   0.020  0.00  0.00    +0.090 C 
ATOM     25  C   LIG    1        2.403   0.034  -0.021  0.00  0.00    -0.010 A 
BRANCH  19  27
ATOM     26  C   LIG    1       -0.029  -2.707  -0.013  0.00  0.00    +0.250 C 
ATOM     27  O   LIG    1        1.234  -2.039  -0.021  0.00  0.00    -0.320 OA
ENDBRANCH  19  27
ENDBRANCH  18  23
ENDBRANCH   1  18
TORSDOF 4
