REMARK  Name = ZINCrH00000tj1gF.0
REMARK                            x       y       z     vdW  Elec       q    Type
REMARK                         _______ _______ _______ _____ _____    ______ ____
ROOT
ATOM      1  N   LIG    1        6.261   0.594  -1.088  0.00  0.00    -0.450 N 
ATOM      2  C   LIG    1        6.837  -0.626  -0.881  0.00  0.00    +0.160 A 
ATOM      3  N   LIG    1        6.027  -1.531  -1.388  0.00  0.00    -0.290 NA
ATOM      4  N   LIG    1        4.989  -0.963  -1.889  0.00  0.00    -0.250 NA
ATOM      5  C   LIG    1        5.072   0.339  -1.733  0.00  0.00    +0.210 A 
ENDROOT
BRANCH   5   6
ATOM      6  C   LIG    1        4.078   1.341  -2.172  0.00  0.00    +0.030 A 
ATOM      7  C   LIG    1        4.091   2.642  -1.654  0.00  0.00    -0.040 A 
ATOM      8  C   LIG    1        3.145   3.544  -2.092  0.00  0.00    +0.270 A 
ATOM      9  N   LIG    1        2.238   3.196  -2.985  0.00  0.00    -0.480 NA
ATOM     10  C   LIG    1        2.190   1.981  -3.498  0.00  0.00    +0.280 A 
ATOM     11  C   LIG    1        3.098   1.015  -3.118  0.00  0.00    +0.020 A 
ENDBRANCH   5   6
BRANCH   1  12
ATOM     12  C   LIG    1        6.795   1.902  -0.701  0.00  0.00    +0.340 C 
BRANCH  12  14
ATOM     13  C   LIG    1        7.257   2.523   1.614  0.00  0.00    +0.090 C 
ATOM     14  C   LIG    1        6.362   2.225   0.705  0.00  0.00    -0.080 C 
ENDBRANCH  12  14
ENDBRANCH   1  12
BRANCH   2  15
ATOM     15  S   LIG    1        8.382  -0.931  -0.090  0.00  0.00    +0.070 S 
BRANCH  15  16
ATOM     16  C   LIG    1        8.446  -2.736  -0.212  0.00  0.00    +0.020 C 
ATOM     17  C   LIG    1        8.534  -3.145  -1.684  0.00  0.00    +0.090 C 
BRANCH  16  18
ATOM     18  C   LIG    1        9.657  -3.247   0.525  0.00  0.00    +0.550 C 
ATOM     19  N   LIG    1        9.960  -4.559   0.494  0.00  0.00    -0.610 N 
ATOM     20  C   LIG    1       11.345  -5.013   0.689  0.00  0.00    +0.230 C 
ATOM     21  C   LIG    1       11.364  -6.053   1.820  0.00  0.00    +0.020 C 
ATOM     22  C   LIG    1       10.376  -7.174   1.490  0.00  0.00    +0.020 C 
ATOM     23  C   LIG    1        8.962  -6.598   1.390  0.00  0.00    +0.020 C 
ATOM     24  C   LIG    1       12.225  -3.821   1.071  0.00  0.00    +0.040 C 
ATOM     25  C   LIG    1        8.915  -5.564   0.260  0.00  0.00    +0.220 C 
ATOM     26  C   LIG    1        7.544  -4.884   0.244  0.00  0.00    +0.040 C 
ATOM     27  O   LIG    1       10.359  -2.476   1.145  0.00  0.00    -0.510 OA
ENDBRANCH  16  18
ENDBRANCH  15  16
ENDBRANCH   2  15
TORSDOF 6
