REMARK  Name = ZINCvU0000000CGw.0
REMARK                            x       y       z     vdW  Elec       q    Type
REMARK                         _______ _______ _______ _____ _____    ______ ____
ROOT
ATOM      1  C   LIG    1       -5.658   7.735   0.071  0.00  0.00    +0.030 A 
ATOM      2  N   LIG    1       -5.962   6.474   0.066  0.00  0.00    -0.280 NA
ATOM      3  N   LIG    1       -4.893   5.605   0.050  0.00  0.00    -0.210 NA
ATOM      4  C   LIG    1       -3.721   6.157   0.053  0.00  0.00    +0.250 A 
ATOM      5  S   LIG    1       -3.906   7.907   0.064  0.00  0.00    +0.090 S 
ENDROOT
BRANCH   4   6
ATOM      6  N   LIG    1       -2.508   5.474   0.044  0.00  0.00    -0.580 N 
ATOM      7  H   LIG    1       -1.673   5.968   0.042  0.00  0.00    +0.410 HD
BRANCH   6   8
ATOM      8  C   LIG    1       -2.493   4.127   0.036  0.00  0.00    +0.460 C 
ATOM      9  S   LIG    1       -3.966   3.254   0.038  0.00  0.00    -0.320 S 
BRANCH   8  10
ATOM     10  N   LIG    1       -1.318   3.466   0.027  0.00  0.00    -0.630 N 
ATOM     11  H   LIG    1       -0.484   3.960   0.026  0.00  0.00    +0.410 HD
ATOM     12  C   LIG    1       -1.304   2.118   0.020  0.00  0.00    +0.530 C 
ATOM     13  O   LIG    1       -2.349   1.499   0.021  0.00  0.00    -0.380 OA
BRANCH  12  14
ATOM     14  C   LIG    1       -0.017   1.394   0.010  0.00  0.00    -0.130 A 
ATOM     15  C   LIG    1        1.187   2.103   0.002  0.00  0.00    +0.080 A 
ATOM     16  C   LIG    1        2.385   1.421  -0.013  0.00  0.00    +0.040 A 
ATOM     17  C   LIG    1        2.398   0.035  -0.020  0.00  0.00    +0.000 A 
ATOM     18  C   LIG    1        1.209  -0.674  -0.013  0.00  0.00    +0.050 A 
ATOM     19 CL   LIG    1        3.911  -0.815  -0.038  0.00  0.00    -0.040 Cl
ATOM     20  C   LIG    1        0.002  -0.004   0.002  0.00  0.00    +0.030 A 
ATOM     21 CL   LIG    1       -1.488  -0.895   0.011  0.00  0.00    -0.000 Cl
ENDBRANCH  12  14
ENDBRANCH   8  10
ENDBRANCH   6   8
ENDBRANCH   4   6
BRANCH   1  22
ATOM     22  S   LIG    1       -6.815   9.064   0.085  0.00  0.00    +0.030 S 
BRANCH  22  23
ATOM     23  C   LIG    1       -8.416   8.211   0.087  0.00  0.00    +0.150 C 
BRANCH  23  27
ATOM     24  C   LIG    1      -11.569  11.099   0.120  0.00  0.00    -0.120 A 
ATOM     25  C   LIG    1      -11.058  10.633  -1.093  0.00  0.00    +0.090 A 
ATOM     26  C   LIG    1      -10.041   9.701  -1.096  0.00  0.00    +0.030 A 
ATOM     27  C   LIG    1       -9.527   9.229   0.099  0.00  0.00    -0.050 A 
ATOM     28  C   LIG    1      -10.033   9.683   1.304  0.00  0.00    +0.030 A 
ATOM     29  C   LIG    1      -11.046  10.618   1.322  0.00  0.00    +0.080 A 
BRANCH  24  30
ATOM     30  C   LIG    1      -12.659  12.096   0.131  0.00  0.00    +0.510 C 
ATOM     31  O   LIG    1      -13.113  12.512  -0.916  0.00  0.00    -0.500 OA
BRANCH  30  33
ATOM     32  C   LIG    1      -14.221  13.523   1.238  0.00  0.00    +0.290 C 
ATOM     33  O   LIG    1      -13.150  12.544   1.303  0.00  0.00    -0.350 OA
ENDBRANCH  30  33
ENDBRANCH  24  30
ENDBRANCH  23  27
ENDBRANCH  22  23
ENDBRANCH   1  22
TORSDOF 9
