REMARK  Name = ZINCrD0000070WnC.0
REMARK                            x       y       z     vdW  Elec       q    Type
REMARK                         _______ _______ _______ _____ _____    ______ ____
ROOT
ATOM      1  C   LIG    1       -0.013   1.086   0.008  0.00  0.00    +0.290 C 
ENDROOT
BRANCH   1   4
ATOM      2  C   LIG    1        3.004   3.443  -0.008  0.00  0.00    +0.110 C 
ATOM      3  C   LIG    1        1.590   2.921   0.003  0.00  0.00    +0.520 C 
ATOM      4  N   LIG    1        1.362   1.593  -0.002  0.00  0.00    -0.720 N 
ATOM      5  H   LIG    1        2.107   0.973  -0.013  0.00  0.00    +0.410 HD
ATOM      6  O   LIG    1        0.658   3.697   0.016  0.00  0.00    -0.520 OA
ENDBRANCH   1   4
BRANCH   1   7
ATOM      7  C   LIG    1       -0.742   1.585  -1.213  0.00  0.00    +0.450 C 
ATOM      8  O   LIG    1       -0.329   2.551  -1.810  0.00  0.00    -0.470 OA
BRANCH   7   9
ATOM      9  O   LIG    1       -1.849   0.956  -1.637  0.00  0.00    -0.340 OA
BRANCH   9  10
ATOM     10  C   LIG    1       -2.499   1.492  -2.820  0.00  0.00    +0.240 C 
BRANCH  10  11
ATOM     11  C   LIG    1       -3.716   0.664  -3.143  0.00  0.00    +0.430 C 
ATOM     12  O   LIG    1       -4.007  -0.286  -2.445  0.00  0.00    -0.420 OA
BRANCH  11  13
ATOM     13  C   LIG    1       -4.517   0.992  -4.257  0.00  0.00    -0.310 A 
ATOM     14  C   LIG    1       -5.644   0.317  -4.654  0.00  0.00    +0.150 A 
ATOM     15  C   LIG    1       -6.230   0.852  -5.772  0.00  0.00    +0.020 A 
ATOM     16  C   LIG    1       -5.610   1.928  -6.281  0.00  0.00    -0.150 A 
ATOM     17 CL   LIG    1       -6.141   2.796  -7.688  0.00  0.00    +0.000 Cl
ATOM     18  S   LIG    1       -4.235   2.335  -5.356  0.00  0.00    +0.280 S 
ENDBRANCH  11  13
ENDBRANCH  10  11
ENDBRANCH   9  10
ENDBRANCH   7   9
ENDBRANCH   1   7
BRANCH   1  19
ATOM     19  C   LIG    1       -0.729   1.579   1.267  0.00  0.00    +0.130 C 
BRANCH  19  20
ATOM     20  C   LIG    1       -0.074   0.981   2.485  0.00  0.00    -0.170 A 
ATOM     21  C   LIG    1       -0.457  -0.131   3.133  0.00  0.00    +0.230 A 
ATOM     22  N   LIG    1        0.377  -0.365   4.191  0.00  0.00    -0.590 N 
ATOM     23  H   LIG    1        0.300  -1.110   4.808  0.00  0.00    +0.420 HD
ATOM     24  C   LIG    1        1.343   0.615   4.252  0.00  0.00    +0.090 A 
ATOM     25  C   LIG    1        2.413   0.852   5.108  0.00  0.00    -0.010 A 
ATOM     26  C   LIG    1        3.223   1.948   4.902  0.00  0.00    +0.020 A 
ATOM     27  C   LIG    1        2.982   2.819   3.849  0.00  0.00    -0.030 A 
ATOM     28  C   LIG    1        1.936   2.604   2.997  0.00  0.00    +0.040 A 
ATOM     29  C   LIG    1        1.106   1.497   3.182  0.00  0.00    -0.090 A 
ENDBRANCH  19  20
ENDBRANCH   1  19
TORSDOF 8
