REMARK  Name = ZINCrH00000No50I.0
REMARK                            x       y       z     vdW  Elec       q    Type
REMARK                         _______ _______ _______ _____ _____    ______ ____
ROOT
ATOM      1  C   LIG    1       -1.270  -0.766   0.011  0.00  0.00    +0.200 A 
ATOM      2  N   LIG    1       -1.504  -1.903  -0.604  0.00  0.00    -0.270 NA
ATOM      3  N   LIG    1       -2.820  -2.299  -0.349  0.00  0.00    -0.300 N 
ATOM      4  C   LIG    1       -3.423  -1.386   0.433  0.00  0.00    +0.300 A 
ATOM      5  C   LIG    1       -2.507  -0.389   0.701  0.00  0.00    -0.270 A 
ENDROOT
BRANCH   1  11
ATOM      6  C   LIG    1        3.722  -0.693  -0.038  0.00  0.00    +0.100 C 
ATOM      7  C   LIG    1        2.402   0.035  -0.021  0.00  0.00    -0.100 A 
ATOM      8  C   LIG    1        2.378   1.418  -0.013  0.00  0.00    +0.020 A 
ATOM      9  C   LIG    1        1.170   2.093   0.002  0.00  0.00    +0.010 A 
ATOM     10  C   LIG    1       -0.017   1.390   0.010  0.00  0.00    +0.080 A 
ATOM     11  C   LIG    1        0.002  -0.004   0.002  0.00  0.00    -0.040 A 
ATOM     12  C   LIG    1        1.221  -0.679  -0.013  0.00  0.00    +0.040 A 
ENDBRANCH   1  11
BRANCH   3  13
ATOM     13  C   LIG    1       -3.421  -3.466  -0.837  0.00  0.00    +0.140 A 
ATOM     14  C   LIG    1       -4.740  -3.756  -0.516  0.00  0.00    -0.010 A 
ATOM     15  C   LIG    1       -5.332  -4.905  -1.004  0.00  0.00    +0.050 A 
ATOM     16  C   LIG    1       -4.608  -5.772  -1.802  0.00  0.00    +0.010 A 
ATOM     17  C   LIG    1       -3.292  -5.489  -2.119  0.00  0.00    +0.050 A 
ATOM     18  C   LIG    1       -2.697  -4.338  -1.639  0.00  0.00    +0.030 A 
ENDBRANCH   3  13
BRANCH   5  19
ATOM     19  C   LIG    1       -2.729   0.815   1.519  0.00  0.00    +0.600 C 
ATOM     20  N   LIG    1       -3.929   1.027   2.095  0.00  0.00    -0.610 N 
ATOM     21  H   LIG    1       -4.647   0.386   1.970  0.00  0.00    +0.420 HD
ATOM     22  O   LIG    1       -1.830   1.619   1.676  0.00  0.00    -0.450 OA
BRANCH  20  23
ATOM     23  C   LIG    1       -4.138   2.160   2.865  0.00  0.00    +0.380 A 
ATOM     24  N   LIG    1       -3.263   3.102   3.115  0.00  0.00    -0.260 NA
ATOM     25  N   LIG    1       -3.803   3.998   3.863  0.00  0.00    -0.270 NA
ATOM     26  C   LIG    1       -5.035   3.667   4.119  0.00  0.00    +0.160 A 
ATOM     27  C   LIG    1       -6.012   4.448   4.959  0.00  0.00    +0.250 C 
ATOM     28  O   LIG    1       -5.280   2.501   3.491  0.00  0.00    -0.240 OA
ENDBRANCH  20  23
ENDBRANCH   5  19
TORSDOF 4
