REMARK  Name = ZINCtV000002IDHq.0
REMARK                            x       y       z     vdW  Elec       q    Type
REMARK                         _______ _______ _______ _____ _____    ______ ____
ROOT
ATOM      1  C   LIG    1       -4.907   1.678   0.018  0.00  0.00    -0.050 A 
ATOM      2  C   LIG    1       -5.894   2.645   0.217  0.00  0.00    +0.060 A 
ATOM      3  C   LIG    1       -7.223   2.280   0.221  0.00  0.00    +0.000 A 
ATOM      4  C   LIG    1       -7.580   0.949   0.036  0.00  0.00    +0.170 A 
ATOM      5  C   LIG    1       -6.599  -0.017  -0.157  0.00  0.00    +0.020 A 
ATOM      6  C   LIG    1       -5.269   0.342  -0.167  0.00  0.00    +0.100 A 
ENDROOT
BRANCH   1  13
ATOM      7  C   LIG    1        2.482   3.881  -0.021  0.00  0.00    +0.100 C 
ATOM      8  C   LIG    1        1.170   3.139  -0.063  0.00  0.00    -0.060 A 
ATOM      9  C   LIG    1        1.155   1.768  -0.269  0.00  0.00    +0.030 A 
ATOM     10  C   LIG    1       -0.020   1.082  -0.310  0.00  0.00    +0.080 A 
ATOM     11  C   LIG    1       -1.250   1.756  -0.148  0.00  0.00    +0.080 A 
ATOM     12  N   LIG    1       -2.496   1.251  -0.164  0.00  0.00    -0.460 NA
ATOM     13  C   LIG    1       -3.481   2.067   0.007  0.00  0.00    +0.160 A 
ATOM     14  S   LIG    1       -2.885   3.705   0.239  0.00  0.00    +0.070 S 
ATOM     15  C   LIG    1       -1.226   3.139   0.066  0.00  0.00    -0.170 A 
ATOM     16  C   LIG    1       -0.013   3.824   0.104  0.00  0.00    +0.050 A 
ENDBRANCH   1  13
BRANCH   4  17
ATOM     17  N   LIG    1       -8.927   0.582   0.046  0.00  0.00    -0.670 N 
ATOM     18  H   LIG    1       -9.598   1.191  -0.299  0.00  0.00    +0.410 HD
ATOM     19  C   LIG    1       -9.294  -0.620   0.534  0.00  0.00    +0.560 C 
ATOM     20  O   LIG    1       -8.467  -1.343   1.054  0.00  0.00    -0.480 OA
BRANCH  19  21
ATOM     21  C   LIG    1      -10.702  -1.057   0.438  0.00  0.00    -0.130 A 
ATOM     22  C   LIG    1      -11.656  -0.226  -0.153  0.00  0.00    +0.150 A 
ATOM     23  C   LIG    1      -12.967  -0.643  -0.245  0.00  0.00    -0.050 A 
ATOM     24  C   LIG    1      -13.342  -1.877   0.257  0.00  0.00    +0.160 A 
ATOM     25  C   LIG    1      -12.405  -2.703   0.850  0.00  0.00    +0.060 A 
ATOM     26  C   LIG    1      -11.087  -2.302   0.943  0.00  0.00    +0.060 A 
ATOM     27 CL   LIG    1       -9.911  -3.340   1.688  0.00  0.00    +0.010 Cl
BRANCH  23  28
ATOM     28  N   LIG    1      -13.978   0.235  -0.877  0.00  0.00    +0.030 N 
ATOM     29  O   LIG    1      -13.650   1.321  -1.320  0.00  0.00    -0.150 OA
ATOM     30  O   LIG    1      -15.138  -0.130  -0.955  0.00  0.00    -0.140 OA
ENDBRANCH  23  28
ENDBRANCH  19  21
ENDBRANCH   4  17
TORSDOF 4
