REMARK  Name = ZINCkj00000GeQaM.0
REMARK                            x       y       z     vdW  Elec       q    Type
REMARK                         _______ _______ _______ _____ _____    ______ ____
ROOT
ATOM      1  C   LIG    1        5.526   0.653  -1.434  0.00  0.00    +0.300 C 
ENDROOT
BRANCH   1   2
ATOM      2  C   LIG    1        6.021   0.669  -2.881  0.00  0.00    -0.080 C 
ATOM      3  C   LIG    1        5.525  -0.586  -3.606  0.00  0.00    +0.030 C 
ATOM      4  C   LIG    1        6.129  -1.825  -2.934  0.00  0.00    +0.230 C 
ATOM      5  O   LIG    1        7.554  -1.731  -2.956  0.00  0.00    -0.360 OA
ATOM      6  C   LIG    1        8.076  -0.601  -2.254  0.00  0.00    +0.230 C 
ATOM      7  C   LIG    1        7.553   0.685  -2.899  0.00  0.00    +0.060 C 
BRANCH   2   8
ATOM      8  C   LIG    1        5.496   1.896  -3.581  0.00  0.00    +0.470 C 
ATOM      9  O   LIG    1        4.797   2.679  -2.984  0.00  0.00    -0.520 OA
BRANCH   8  11
ATOM     10  C   LIG    1        5.265   3.320  -5.478  0.00  0.00    +0.300 C 
ATOM     11  O   LIG    1        5.806   2.118  -4.868  0.00  0.00    -0.330 OA
ENDBRANCH   8  11
ENDBRANCH   2   8
ENDBRANCH   1   2
BRANCH   1  12
ATOM     12  N   LIG    1        4.057   0.633  -1.419  0.00  0.00    -0.510 N 
ATOM     13  H   LIG    1        3.705   1.456  -1.887  0.00  0.00    +0.430 HD
ATOM     14  H   LIG    1        3.727  -0.192  -1.896  0.00  0.00    +0.420 HD
BRANCH  12  15
ATOM     15  C   LIG    1        3.582   0.619  -0.029  0.00  0.00    +0.380 C 
BRANCH  15  16
ATOM     16  C   LIG    1        2.075   0.599  -0.015  0.00  0.00    -0.300 A 
ATOM     17  C   LIG    1        1.255  -0.480  -0.013  0.00  0.00    +0.040 A 
ATOM     18  O   LIG    1        0.002  -0.004   0.002  0.00  0.00    +0.120 OA
ATOM     19  N   LIG    1       -0.014   1.205   0.009  0.00  0.00    -0.340 NA
ATOM     20  C   LIG    1        1.670  -1.928  -0.024  0.00  0.00    +0.200 C 
ATOM     21  C   LIG    1        1.189   1.701  -0.000  0.00  0.00    +0.050 A 
ATOM     22  C   LIG    1        1.565   3.160   0.003  0.00  0.00    +0.170 C 
ENDBRANCH  15  16
ENDBRANCH  12  15
ENDBRANCH   1  12
TORSDOF 6
