REMARK  Name = ZINCkj000005iYJB.1
REMARK                            x       y       z     vdW  Elec       q    Type
REMARK                         _______ _______ _______ _____ _____    ______ ____
ROOT
ATOM      1  C   LIG    1        4.289  -0.512  -2.901  0.00  0.00    +0.500 C 
ATOM      2  N   LIG    1        3.507  -0.045  -3.858  0.00  0.00    -0.550 NA
ATOM      3  C   LIG    1        3.720  -0.398  -5.124  0.00  0.00    +0.670 C 
ATOM      4  N   LIG    1        4.712  -1.229  -5.423  0.00  0.00    -0.620 N 
ATOM      5  C   LIG    1        5.492  -1.701  -4.456  0.00  0.00    +0.680 C 
ATOM      6  N   LIG    1        6.524  -2.564  -4.761  0.00  0.00    -0.770 N 
ATOM      7  H   LIG    1        6.681  -2.828  -5.682  0.00  0.00    +0.430 HD
ATOM      8  H   LIG    1        7.094  -2.908  -4.055  0.00  0.00    +0.450 HD
ATOM      9  H   LIG    1        4.867  -1.491  -6.344  0.00  0.00    +0.440 HD
ATOM     10  N   LIG    1        5.277  -1.339  -3.193  0.00  0.00    -0.580 NA
ENDROOT
BRANCH   3  11
ATOM     11  N   LIG    1        2.907   0.095  -6.125  0.00  0.00    -0.770 NA
ATOM     12  H   LIG    1        2.183   0.702  -5.906  0.00  0.00    +0.450 HD
ATOM     13  H   LIG    1        3.060  -0.166  -7.046  0.00  0.00    +0.430 HD
ENDBRANCH   3  11
BRANCH   1  14
ATOM     14  C   LIG    1        4.049  -0.105  -1.470  0.00  0.00    +0.340 C 
BRANCH  14  15
ATOM     15  N   LIG    1        2.903   0.812  -1.407  0.00  0.00    -0.520 NA
ATOM     16  C   LIG    1        3.206   2.080  -2.085  0.00  0.00    +0.200 C 
BRANCH  15  17
ATOM     17  C   LIG    1        2.490   1.044  -0.017  0.00  0.00    +0.240 C 
BRANCH  17  21
ATOM     18  C   LIG    1       -1.236   3.139   0.031  0.00  0.00    -0.080 A 
ATOM     19  C   LIG    1       -1.218   1.749   0.017  0.00  0.00    -0.010 A 
ATOM     20  C   LIG    1       -0.013   1.076   0.008  0.00  0.00    +0.060 A 
ATOM     21  C   LIG    1        1.176   1.783   0.000  0.00  0.00    -0.090 A 
ATOM     22  C   LIG    1        1.162   3.166   0.008  0.00  0.00    +0.040 A 
ATOM     23  C   LIG    1       -0.040   3.846   0.023  0.00  0.00    +0.030 A 
BRANCH  18  25
ATOM     24  C   LIG    1       -3.994   2.661   0.054  0.00  0.00    +0.130 C 
ATOM     25  S   LIG    1       -2.772   4.002   0.049  0.00  0.00    -0.110 S 
ENDBRANCH  18  25
ENDBRANCH  17  21
ENDBRANCH  15  17
ENDBRANCH  14  15
ENDBRANCH   1  14
TORSDOF 6
