REMARK  Name = ZINCpe00000MFHuv.0
REMARK                            x       y       z     vdW  Elec       q    Type
REMARK                         _______ _______ _______ _____ _____    ______ ____
ROOT
ATOM      1  C   LIG    1       -4.193   0.091  -2.037  0.00  0.00    +0.200 C 
ENDROOT
BRANCH   1   7
ATOM      2  C   LIG    1       -0.013   1.086   0.008  0.00  0.00    -0.020 C 
ATOM      3  C   LIG    1       -0.730   1.580   1.266  0.00  0.00    +0.050 C 
ATOM      4  C   LIG    1       -2.155   1.023   1.295  0.00  0.00    +0.010 C 
ATOM      5  C   LIG    1       -2.923   1.530   0.070  0.00  0.00    +0.260 C 
ATOM      6  N   LIG    1       -2.164   1.185  -1.140  0.00  0.00    -0.620 N 
ATOM      7  C   LIG    1       -2.748   0.504  -2.146  0.00  0.00    +0.520 C 
ATOM      8  O   LIG    1       -2.111   0.225  -3.140  0.00  0.00    -0.510 OA
ATOM      9  C   LIG    1       -0.755   1.594  -1.232  0.00  0.00    +0.290 C 
BRANCH   2  13
ATOM     10  N   LIG    1        2.225   1.300  -1.023  0.00  0.00    -0.850 N 
ATOM     11  H   LIG    1        3.135   1.636  -1.030  0.00  0.00    +0.400 HD
ATOM     12  H   LIG    1        1.909   0.742  -1.751  0.00  0.00    +0.400 HD
ATOM     13  C   LIG    1        1.401   1.608  -0.003  0.00  0.00    +0.520 C 
ATOM     14  O   LIG    1        1.796   2.306   0.907  0.00  0.00    -0.540 OA
ENDBRANCH   2  13
ENDBRANCH   1   7
BRANCH   1  15
ATOM     15  N   LIG    1       -4.589  -0.631  -3.254  0.00  0.00    -0.480 NA
ATOM     16  C   LIG    1       -4.766   0.305  -4.394  0.00  0.00    +0.190 C 
ATOM     17  C   LIG    1       -5.666  -0.460  -5.389  0.00  0.00    +0.040 C 
ATOM     18  C   LIG    1       -6.428  -1.489  -4.529  0.00  0.00    +0.050 C 
ATOM     19  C   LIG    1       -5.925  -1.260  -3.088  0.00  0.00    +0.240 C 
BRANCH  19  20
ATOM     20  C   LIG    1       -5.800  -2.572  -2.357  0.00  0.00    +0.180 A 
ATOM     21  N   LIG    1       -4.918  -3.499  -2.585  0.00  0.00    -0.350 NA
ATOM     22  O   LIG    1       -5.083  -4.431  -1.827  0.00  0.00    +0.080 OA
ATOM     23  C   LIG    1       -6.118  -4.181  -1.020  0.00  0.00    +0.210 A 
ATOM     24  N   LIG    1       -6.579  -2.998  -1.346  0.00  0.00    -0.480 NA
BRANCH  23  25
ATOM     25  C   LIG    1       -6.651  -5.084   0.062  0.00  0.00    +0.070 C 
ATOM     26  C   LIG    1       -5.832  -6.328   0.411  0.00  0.00    +0.060 C 
ATOM     27  C   LIG    1       -7.149  -6.469  -0.355  0.00  0.00    +0.070 C 
ENDBRANCH  23  25
ENDBRANCH  19  20
ENDBRANCH   1  15
TORSDOF 5
