REMARK  Name = ZINCpk00000k1Ljp.0
REMARK                            x       y       z     vdW  Elec       q    Type
REMARK                         _______ _______ _______ _____ _____    ______ ____
ROOT
ATOM      1  N   LIG    1       -2.283   4.790   1.407  0.00  0.00    -0.450 N 
ATOM      2  C   LIG    1       -2.091   3.494   0.704  0.00  0.00    +0.190 C 
ATOM      3  C   LIG    1       -0.756   2.970   1.290  0.00  0.00    +0.180 C 
ATOM      4  C   LIG    1       -0.830   3.405   2.772  0.00  0.00    +0.250 C 
ATOM      5  C   LIG    1       -1.840   4.567   2.800  0.00  0.00    +0.220 C 
ENDROOT
BRANCH   1   8
ATOM      6  C   LIG    1       -5.577   5.700   2.452  0.00  0.00    +0.580 A 
ATOM      7  N   LIG    1       -4.309   5.321   2.489  0.00  0.00    -0.600 NA
ATOM      8  C   LIG    1       -3.610   5.187   1.366  0.00  0.00    +0.390 A 
ATOM      9  C   LIG    1       -4.231   5.458   0.145  0.00  0.00    -0.150 A 
ATOM     10  C   LIG    1       -5.557   5.845   0.151  0.00  0.00    +0.380 A 
ATOM     11  N   LIG    1       -6.193   5.958   1.308  0.00  0.00    -0.580 NA
BRANCH   6  13
ATOM     12  C   LIG    1       -7.681   6.248   3.620  0.00  0.00    +0.310 C 
ATOM     13  N   LIG    1       -6.277   5.830   3.639  0.00  0.00    -0.700 N 
ATOM     14  H   LIG    1       -5.838   5.643   4.484  0.00  0.00    +0.410 HD
ENDBRANCH   6  13
ENDBRANCH   1   8
BRANCH   4  15
ATOM     15  N   LIG    1       -1.306   2.297   3.604  0.00  0.00    -0.690 N 
ATOM     16  H   LIG    1       -1.851   1.596   3.213  0.00  0.00    +0.420 HD
BRANCH  15  17
ATOM     17  C   LIG    1       -0.976   2.250   4.949  0.00  0.00    +0.440 A 
ATOM     18  C   LIG    1       -0.193   3.261   5.500  0.00  0.00    -0.110 A 
ATOM     19  C   LIG    1        0.131   3.212   6.830  0.00  0.00    +0.050 A 
ATOM     20  C   LIG    1       -0.343   2.135   7.594  0.00  0.00    -0.160 A 
ATOM     21  C   LIG    1       -1.125   1.157   6.976  0.00  0.00    +0.390 A 
ATOM     22  C   LIG    1        0.977   4.290   7.458  0.00  0.00    +0.110 C 
ATOM     23  N   LIG    1       -1.417   1.246   5.695  0.00  0.00    -0.540 NA
BRANCH  20  24
ATOM     24  C   LIG    1       -0.031   2.042   8.989  0.00  0.00    +0.270 C 
ATOM     25  N   LIG    1        0.216   1.967  10.095  0.00  0.00    -0.430 NA
ENDBRANCH  20  24
ENDBRANCH  15  17
ENDBRANCH   4  15
BRANCH   3  26
ATOM     26  O   LIG    1       -0.682   1.547   1.184  0.00  0.00    -0.370 OA
ATOM     27  C   LIG    1       -0.013   1.086   0.008  0.00  0.00    +0.220 C 
ENDBRANCH   3  26
TORSDOF 6
