REMARK  Name = ZINCah0000002BCU.0
REMARK                            x       y       z     vdW  Elec       q    Type
REMARK                         _______ _______ _______ _____ _____    ______ ____
ROOT
ATOM      1  C   LIG    1       -1.250   1.626   0.234  0.00  0.00    +0.240 A 
ATOM      2  C   LIG    1       -2.438   0.941  -0.087  0.00  0.00    -0.230 A 
ATOM      3  C   LIG    1       -3.602   1.699  -0.287  0.00  0.00    +0.080 A 
ATOM      4  C   LIG    1       -3.538   3.070  -0.164  0.00  0.00    +0.210 A 
ATOM      5  N   LIG    1       -2.405   3.677   0.138  0.00  0.00    -0.410 NA
ATOM      6  C   LIG    1       -1.286   3.015   0.342  0.00  0.00    +0.090 A 
ATOM      7 CL   LIG    1        0.163   3.883   0.743  0.00  0.00    -0.030 Cl
ENDROOT
BRANCH   1   8
ATOM      8  N   LIG    1       -0.068   0.931   0.444  0.00  0.00    -0.840 N 
ATOM      9  H   LIG    1       -0.092  -0.019   0.639  0.00  0.00    +0.420 HD
ATOM     10  H   LIG    1        0.782   1.395   0.399  0.00  0.00    +0.400 HD
ENDBRANCH   1   8
BRANCH   2  11
ATOM     11  C   LIG    1       -2.458  -0.524  -0.207  0.00  0.00    +0.510 C 
ATOM     12  O   LIG    1       -1.424  -1.153  -0.128  0.00  0.00    -0.460 OA
ENDBRANCH   2  11
TORSDOF 2
