REMARK  Name = ZINCrH000004qm22.0
REMARK                            x       y       z     vdW  Elec       q    Type
REMARK                         _______ _______ _______ _____ _____    ______ ____
ROOT
ATOM      1  N   LIG    1        3.500  -2.410   0.272  0.00  0.00    -0.500 NA
ATOM      2  C   LIG    1        2.820  -2.750   1.529  0.00  0.00    +0.210 C 
ENDROOT
BRANCH   1   3
ATOM      3  C   LIG    1        3.743  -0.964   0.179  0.00  0.00    +0.220 C 
BRANCH   3   6
ATOM      4  N   LIG    1        2.402   1.106  -0.014  0.00  0.00    -0.670 N 
ATOM      5  H   LIG    1        3.233   1.601  -0.085  0.00  0.00    +0.410 HD
ATOM      6  C   LIG    1        2.426  -0.238   0.081  0.00  0.00    +0.510 C 
ATOM      7  O   LIG    1        1.387  -0.864   0.088  0.00  0.00    -0.490 OA
BRANCH   4  15
ATOM      8  C   LIG    1        2.288   3.657   1.242  0.00  0.00    +0.100 C 
ATOM      9  C   LIG    1        1.079   3.034   0.592  0.00  0.00    -0.110 A 
ATOM     10  C   LIG    1       -0.129   3.703   0.595  0.00  0.00    +0.070 A 
ATOM     11  C   LIG    1       -1.239   3.131  -0.002  0.00  0.00    -0.100 A 
ATOM     12  C   LIG    1       -1.141   1.891  -0.607  0.00  0.00    +0.060 A 
ATOM     13  C   LIG    1        0.064   1.215  -0.608  0.00  0.00    +0.040 A 
ATOM     14 BR   LIG    1       -2.892   4.050   0.004  0.00  0.00    -0.050 Br
ATOM     15  C   LIG    1        1.179   1.786  -0.010  0.00  0.00    +0.160 A 
ENDBRANCH   4  15
ENDBRANCH   3   6
ENDBRANCH   1   3
BRANCH   1  16
ATOM     16  C   LIG    1        4.753  -3.164   0.131  0.00  0.00    +0.290 C 
BRANCH  16  17
ATOM     17  C   LIG    1        4.441  -4.631  -0.015  0.00  0.00    +0.400 A 
ATOM     18  N   LIG    1        3.198  -5.003   0.008  0.00  0.00    -0.480 NA
ATOM     19  C   LIG    1        2.841  -6.305  -0.123  0.00  0.00    +0.160 A 
ATOM     20  C   LIG    1        1.504  -6.704  -0.103  0.00  0.00    +0.060 A 
ATOM     21  C   LIG    1        1.187  -8.037  -0.234  0.00  0.00    +0.090 A 
ATOM     22  C   LIG    1        2.183  -8.994  -0.385  0.00  0.00    -0.060 A 
ATOM     23  C   LIG    1        3.512  -8.624  -0.407  0.00  0.00    +0.120 A 
ATOM     24 CL   LIG    1        1.753 -10.668  -0.547  0.00  0.00    -0.060 Cl
ATOM     25  C   LIG    1        3.852  -7.280  -0.277  0.00  0.00    -0.190 A 
ATOM     26  C   LIG    1        5.251  -6.827  -0.293  0.00  0.00    +0.560 A 
ATOM     27  O   LIG    1        6.170  -7.615  -0.422  0.00  0.00    -0.500 OA
ATOM     28  N   LIG    1        5.478  -5.499  -0.159  0.00  0.00    -0.650 N 
ATOM     29  H   LIG    1        6.388  -5.163  -0.165  0.00  0.00    +0.420 HD
ENDBRANCH  16  17
ENDBRANCH   1  16
TORSDOF 5
