REMARK  Name = ZINCvU0000000GsG.0
REMARK                            x       y       z     vdW  Elec       q    Type
REMARK                         _______ _______ _______ _____ _____    ______ ____
ROOT
ATOM      1  C   LIG    1        2.753  -5.383  -0.064  0.00  0.00    +0.280 C 
ENDROOT
BRANCH   1   2
ATOM      2  C   LIG    1        2.335  -6.357   1.039  0.00  0.00    -0.030 C 
ATOM      3  C   LIG    1        0.855  -6.710   0.874  0.00  0.00    +0.070 C 
ATOM      4  C   LIG    1        0.437  -7.685   1.976  0.00  0.00    +0.020 C 
ATOM      5  C   LIG    1        0.656  -7.033   3.343  0.00  0.00    +0.290 C 
ATOM      6  C   LIG    1        2.135  -6.680   3.509  0.00  0.00    +0.020 C 
ATOM      7  F   LIG    1       -0.114  -5.868   3.433  0.00  0.00    -0.200 F 
ATOM      8  F   LIG    1        0.274  -7.924   4.351  0.00  0.00    -0.200 F 
ATOM      9  C   LIG    1        2.554  -5.705   2.406  0.00  0.00    +0.040 C 
ENDBRANCH   1   2
BRANCH   1  12
ATOM     10  N   LIG    1        1.552  -1.974   0.378  0.00  0.00    -0.240 N 
ATOM     11  C   LIG    1        2.586  -2.847   0.229  0.00  0.00    +0.180 A 
ATOM     12  C   LIG    1        2.027  -4.075   0.120  0.00  0.00    -0.010 A 
ATOM     13  N   LIG    1        0.704  -3.900   0.206  0.00  0.00    -0.250 NA
ATOM     14  N   LIG    1        0.455  -2.648   0.364  0.00  0.00    -0.080 NA
BRANCH  10  18
ATOM     15  C   LIG    1        1.890   2.164   0.824  0.00  0.00    +0.060 A 
ATOM     16  C   LIG    1        3.026   1.386   0.680  0.00  0.00    +0.000 A 
ATOM     17  C   LIG    1        2.914   0.016   0.532  0.00  0.00    +0.010 A 
ATOM     18  C   LIG    1        1.663  -0.584   0.528  0.00  0.00    +0.140 A 
ATOM     19  C   LIG    1        0.520   0.192   0.672  0.00  0.00    +0.000 A 
ATOM     20  C   LIG    1        0.631   1.565   0.820  0.00  0.00    +0.220 A 
BRANCH  20  21
ATOM     21  N   LIG    1       -0.519   2.351   0.960  0.00  0.00    -0.870 N 
ATOM     22  H   LIG    1       -0.440   3.312   1.064  0.00  0.00    +0.410 HD
ATOM     23  H   LIG    1       -1.395   1.933   0.953  0.00  0.00    +0.400 HD
ENDBRANCH  20  21
BRANCH  15  25
ATOM     24  C   LIG    1        3.323   4.058   0.964  0.00  0.00    +0.250 C 
ATOM     25  O   LIG    1        2.002   3.512   0.970  0.00  0.00    -0.320 OA
ENDBRANCH  15  25
ENDBRANCH  10  18
ENDBRANCH   1  12
BRANCH   1  26
ATOM     26  N   LIG    1        4.202  -5.152   0.010  0.00  0.00    -0.680 NA
ATOM     27  H   LIG    1        4.514  -5.117   0.969  0.00  0.00    +0.350 HD
BRANCH  26  28
ATOM     28  C   LIG    1        4.936  -6.176  -0.746  0.00  0.00    +0.280 C 
BRANCH  28  29
ATOM     29  C   LIG    1        6.418  -5.972  -0.559  0.00  0.00    -0.170 A 
ATOM     30  C   LIG    1        7.154  -6.524   0.407  0.00  0.00    +0.030 A 
ATOM     31  C   LIG    1        8.498  -6.191   0.379  0.00  0.00    +0.030 A 
ATOM     32  C   LIG    1        8.852  -5.368  -0.611  0.00  0.00    -0.150 A 
ATOM     33 CL   LIG    1       10.460  -4.780  -0.896  0.00  0.00    -0.010 Cl
ATOM     34  S   LIG    1        7.441  -4.976  -1.585  0.00  0.00    +0.180 S 
ENDBRANCH  28  29
ENDBRANCH  26  28
ENDBRANCH   1  26
TORSDOF 8
