REMARK  Name = ZINCrH00000No4z6.0
REMARK                            x       y       z     vdW  Elec       q    Type
REMARK                         _______ _______ _______ _____ _____    ______ ____
ROOT
ATOM      1  O   LIG    1       -4.587   2.685   1.462  0.00  0.00    -0.520 OA
ATOM      2  C   LIG    1       -4.181   2.296   0.383  0.00  0.00    +0.490 C 
ENDROOT
BRANCH   2   3
ATOM      3  N   LIG    1       -2.891   2.034   0.214  0.00  0.00    -0.620 NA
ATOM      4  C   LIG    1       -2.039   2.197   1.228  0.00  0.00    +0.380 A 
ATOM      5  S   LIG    1       -2.411   2.731   2.822  0.00  0.00    +0.180 S 
ATOM      6  C   LIG    1       -0.740   2.641   3.405  0.00  0.00    -0.090 A 
ATOM      7  C   LIG    1       -0.027   2.215   2.369  0.00  0.00    +0.240 A 
ATOM      8  N   LIG    1       -0.704   1.975   1.216  0.00  0.00    -0.470 N 
BRANCH   8   9
ATOM      9  C   LIG    1       -0.018   1.503   0.010  0.00  0.00    +0.360 C 
BRANCH   9  10
ATOM     10  C   LIG    1        0.002  -0.004   0.002  0.00  0.00    -0.120 A 
ATOM     11  C   LIG    1        1.057  -0.684   0.582  0.00  0.00    +0.020 A 
ATOM     12  C   LIG    1        1.073  -2.067   0.579  0.00  0.00    +0.000 A 
ATOM     13  C   LIG    1        0.040  -2.768  -0.014  0.00  0.00    +0.010 A 
ATOM     14  C   LIG    1       -1.012  -2.088  -0.599  0.00  0.00    +0.000 A 
ATOM     15  C   LIG    1       -1.031  -0.706  -0.591  0.00  0.00    +0.040 A 
ENDBRANCH   9  10
ENDBRANCH   8   9
ENDBRANCH   2   3
BRANCH   2  16
ATOM     16  C   LIG    1       -5.144   2.112  -0.762  0.00  0.00    +0.180 C 
BRANCH  16  17
ATOM     17  C   LIG    1       -6.535   2.475  -0.311  0.00  0.00    +0.080 A 
ATOM     18  C   LIG    1       -7.276   3.385  -0.954  0.00  0.00    -0.060 A 
ATOM     19  S   LIG    1       -8.825   3.521  -0.123  0.00  0.00    +0.100 S 
ATOM     20  C   LIG    1       -8.303   2.302   1.037  0.00  0.00    +0.110 A 
ATOM     21  N   LIG    1       -7.098   1.913   0.732  0.00  0.00    -0.400 NA
BRANCH  20  22
ATOM     22  C   LIG    1       -9.106   1.798   2.172  0.00  0.00    +0.190 A 
ATOM     23  C   LIG    1      -10.389   2.301   2.389  0.00  0.00    -0.010 A 
ATOM     24  C   LIG    1      -11.130   1.816   3.452  0.00  0.00    +0.070 A 
ATOM     25  C   LIG    1      -10.560   0.851   4.271  0.00  0.00    -0.020 A 
ATOM     26  C   LIG    1       -9.281   0.400   4.001  0.00  0.00    +0.270 A 
ATOM     27  N   LIG    1       -8.598   0.874   2.980  0.00  0.00    -0.440 NA
ENDBRANCH  20  22
ENDBRANCH  16  17
ENDBRANCH   2  16
TORSDOF 6
