REMARK  Name = ZINCvU00000005wx.0
REMARK                            x       y       z     vdW  Elec       q    Type
REMARK                         _______ _______ _______ _____ _____    ______ ____
ROOT
ATOM      1  C   LIG    1       -0.740   1.631   1.237  0.00  0.00    +0.340 C 
ENDROOT
BRANCH   1   2
ATOM      2  N   LIG    1       -2.082   1.050   1.144  0.00  0.00    -0.730 N 
ATOM      3  H   LIG    1       -2.862   1.624   1.179  0.00  0.00    +0.400 HD
ATOM      4  C   LIG    1       -2.231  -0.283   1.009  0.00  0.00    +0.700 C 
ATOM      5  O   LIG    1       -1.258  -1.011   1.052  0.00  0.00    -0.590 OA
ATOM      6  N   LIG    1       -3.459  -0.808   0.826  0.00  0.00    -0.870 N 
ATOM      7  H   LIG    1       -3.566  -1.767   0.729  0.00  0.00    +0.420 HD
ATOM      8  H   LIG    1       -4.235  -0.227   0.792  0.00  0.00    +0.400 HD
ENDBRANCH   1   2
BRANCH   1   9
ATOM      9  C   LIG    1       -0.091   1.192   2.524  0.00  0.00    -0.080 A 
ATOM     10  C   LIG    1        1.150   1.690   2.877  0.00  0.00    +0.020 A 
ATOM     11  C   LIG    1        1.748   1.290   4.057  0.00  0.00    +0.030 A 
ATOM     12  C   LIG    1        1.107   0.392   4.888  0.00  0.00    +0.000 A 
ATOM     13  C   LIG    1       -0.138  -0.110   4.536  0.00  0.00    +0.080 A 
ATOM     14  C   LIG    1       -0.738   0.297   3.354  0.00  0.00    +0.050 A 
BRANCH  13  15
ATOM     15  O   LIG    1       -0.771  -0.994   5.352  0.00  0.00    -0.260 OA
BRANCH  15  16
ATOM     16  C   LIG    1       -1.343  -0.517   6.488  0.00  0.00    +0.120 A 
ATOM     17  C   LIG    1       -1.361   0.848   6.737  0.00  0.00    -0.060 A 
ATOM     18  C   LIG    1       -1.948   1.331   7.890  0.00  0.00    +0.050 A 
ATOM     19  C   LIG    1       -2.510   0.454   8.801  0.00  0.00    -0.020 A 
ATOM     20  C   LIG    1       -2.488  -0.907   8.558  0.00  0.00    +0.050 A 
ATOM     21  C   LIG    1       -1.907  -1.394   7.403  0.00  0.00    -0.020 A 
ENDBRANCH  15  16
ENDBRANCH  13  15
ENDBRANCH   1   9
BRANCH   1  22
ATOM     22  C   LIG    1        0.104   1.157   0.052  0.00  0.00    +0.070 C 
BRANCH  22  25
ATOM     23  N   LIG    1        0.106   1.409  -2.408  0.00  0.00    -0.670 N 
ATOM     24  H   LIG    1        0.936   0.908  -2.429  0.00  0.00    +0.410 HD
ATOM     25  C   LIG    1       -0.477   1.699  -1.228  0.00  0.00    +0.520 C 
ATOM     26  O   LIG    1       -1.469   2.396  -1.196  0.00  0.00    -0.520 OA
BRANCH  23  30
ATOM     27  C   LIG    1       -1.660   2.665  -5.967  0.00  0.00    -0.090 A 
ATOM     28  C   LIG    1       -1.741   3.460  -4.838  0.00  0.00    +0.020 A 
ATOM     29  C   LIG    1       -1.157   3.046  -3.657  0.00  0.00    +0.020 A 
ATOM     30  C   LIG    1       -0.487   1.831  -3.603  0.00  0.00    +0.140 A 
ATOM     31  C   LIG    1       -0.403   1.037  -4.740  0.00  0.00    -0.020 A 
ATOM     32  C   LIG    1       -0.994   1.454  -5.917  0.00  0.00    +0.020 A 
BRANCH  27  34
ATOM     33  C   LIG    1       -1.227   3.240  -8.340  0.00  0.00    +0.040 C 
ATOM     34  C   LIG    1       -2.298   3.120  -7.254  0.00  0.00    +0.020 C 
ATOM     35  C   LIG    1       -3.352   2.099  -7.689  0.00  0.00    +0.040 C 
ENDBRANCH  27  34
ENDBRANCH  23  30
ENDBRANCH  22  25
ENDBRANCH   1  22
TORSDOF 8
