REMARK  Name = ZINCvU0000000Ad3.0
REMARK                            x       y       z     vdW  Elec       q    Type
REMARK                         _______ _______ _______ _____ _____    ______ ____
ROOT
ATOM      1  C   LIG    1        0.540  -4.169  -0.025  0.00  0.00    +0.150 A 
ATOM      2  N   LIG    1        0.117  -2.922  -0.014  0.00  0.00    -0.270 NA
ATOM      3  N   LIG    1        1.237  -2.081  -0.020  0.00  0.00    -0.320 N 
ATOM      4  C   LIG    1        2.349  -2.862  -0.041  0.00  0.00    +0.260 A 
ATOM      5  C   LIG    1        1.949  -4.152  -0.037  0.00  0.00    -0.210 A 
ENDROOT
BRANCH   1   9
ATOM      6  C   LIG    1       -1.916  -7.642  -0.018  0.00  0.00    +0.140 A 
ATOM      7  C   LIG    1       -2.314  -6.510   0.681  0.00  0.00    -0.020 A 
ATOM      8  C   LIG    1       -1.520  -5.383   0.681  0.00  0.00    +0.080 A 
ATOM      9  C   LIG    1       -0.317  -5.380  -0.022  0.00  0.00    -0.060 A 
ATOM     10  C   LIG    1        0.078  -6.516  -0.728  0.00  0.00    +0.090 A 
ATOM     11  C   LIG    1       -0.718  -7.642  -0.719  0.00  0.00    -0.080 A 
BRANCH   6  13
ATOM     12  C   LIG    1       -2.231  -9.880  -0.755  0.00  0.00    +0.250 C 
ATOM     13  O   LIG    1       -2.701  -8.751  -0.015  0.00  0.00    -0.320 OA
ENDBRANCH   6  13
ENDBRANCH   1   9
BRANCH   3  14
ATOM     14  C   LIG    1        1.215  -0.680  -0.013  0.00  0.00    +0.160 A 
ATOM     15  C   LIG    1        0.002  -0.004   0.002  0.00  0.00    +0.020 A 
ATOM     16  C   LIG    1       -0.017   1.377   0.010  0.00  0.00    +0.040 A 
ATOM     17  C   LIG    1        1.171   2.086   0.002  0.00  0.00    +0.000 A 
ATOM     18  C   LIG    1        2.380   1.415  -0.013  0.00  0.00    +0.040 A 
ATOM     19  C   LIG    1        2.405   0.034  -0.021  0.00  0.00    -0.010 A 
ENDBRANCH   3  14
BRANCH   5  20
ATOM     20  C   LIG    1        2.850  -5.360  -0.052  0.00  0.00    +0.180 C 
BRANCH  20  21
ATOM     21  S   LIG    1        3.196  -5.835  -1.768  0.00  0.00    -0.230 S 
BRANCH  21  22
ATOM     22  C   LIG    1        4.276  -7.281  -1.582  0.00  0.00    +0.140 C 
BRANCH  22  23
ATOM     23  C   LIG    1        4.658  -7.802  -2.943  0.00  0.00    -0.050 A 
ATOM     24  C   LIG    1        3.874  -8.762  -3.558  0.00  0.00    +0.020 A 
ATOM     25  C   LIG    1        4.215  -9.240  -4.807  0.00  0.00    +0.050 A 
ATOM     26  C   LIG    1        5.360  -8.760  -5.445  0.00  0.00    -0.130 A 
ATOM     27  C   LIG    1        6.149  -7.796  -4.817  0.00  0.00    +0.080 A 
ATOM     28  C   LIG    1        5.794  -7.322  -3.571  0.00  0.00    +0.020 A 
BRANCH  26  29
ATOM     29  C   LIG    1        5.735  -9.273  -6.780  0.00  0.00    +0.560 C 
ATOM     30  O   LIG    1        6.733  -8.854  -7.333  0.00  0.00    -0.540 OA
ATOM     31  N   LIG    1        4.971 -10.204  -7.384  0.00  0.00    -0.850 N 
ATOM     32  H   LIG    1        5.217 -10.540  -8.260  0.00  0.00    +0.410 HD
ATOM     33  H   LIG    1        4.174 -10.538  -6.942  0.00  0.00    +0.400 HD
ENDBRANCH  26  29
ENDBRANCH  22  23
ENDBRANCH  21  22
ENDBRANCH  20  21
ENDBRANCH   5  20
TORSDOF 8
