REMARK  Name = ZINCrD000000CS9a.0
REMARK                            x       y       z     vdW  Elec       q    Type
REMARK                         _______ _______ _______ _____ _____    ______ ____
ROOT
ATOM      1  O   LIG    1      -12.711   3.833  -2.761  0.00  0.00    -0.530 OA
ATOM      2  C   LIG    1      -12.300   3.371  -1.718  0.00  0.00    +0.520 C 
ATOM      3  C   LIG    1      -10.984   2.635  -1.552  0.00  0.00    +0.080 C 
ATOM      4  C   LIG    1      -10.769   2.608  -0.039  0.00  0.00    -0.090 C 
ATOM      5  C   LIG    1      -12.177   2.775   0.529  0.00  0.00    +0.290 C 
ATOM      6  C   LIG    1      -10.098   1.312   0.431  0.00  0.00    +0.070 C 
ATOM      7  C   LIG    1       -8.593   1.643   0.309  0.00  0.00    +0.230 C 
ATOM      8  N   LIG    1       -8.465   3.109   0.303  0.00  0.00    -0.630 N 
ATOM      9  C   LIG    1       -7.311   3.796   0.193  0.00  0.00    +0.720 C 
ATOM     10  N   LIG    1       -6.142   3.134   0.077  0.00  0.00    -0.680 N 
ATOM     11  H   LIG    1       -6.138   2.168  -0.006  0.00  0.00    +0.410 HD
ATOM     12  O   LIG    1       -7.323   5.011   0.200  0.00  0.00    -0.560 OA
ATOM     13  C   LIG    1       -9.810   3.705   0.442  0.00  0.00    +0.310 C 
ATOM     14  N   LIG    1      -12.944   3.438  -0.537  0.00  0.00    -0.730 N 
ATOM     15  H   LIG    1      -13.804   3.869  -0.407  0.00  0.00    +0.410 HD
ENDROOT
BRANCH  10  16
ATOM     16  C   LIG    1       -4.935   3.842   0.075  0.00  0.00    +0.170 A 
ATOM     17  C   LIG    1       -4.807   5.000   0.833  0.00  0.00    +0.030 A 
ATOM     18  C   LIG    1       -3.616   5.702   0.834  0.00  0.00    +0.040 A 
ATOM     19  C   LIG    1       -2.545   5.253   0.088  0.00  0.00    +0.010 A 
ATOM     20  C   LIG    1       -2.666   4.095  -0.679  0.00  0.00    -0.030 A 
ATOM     21  C   LIG    1       -3.865   3.388  -0.681  0.00  0.00    +0.000 A 
BRANCH  20  22
ATOM     22  C   LIG    1       -1.518   3.615  -1.487  0.00  0.00    -0.020 A 
ATOM     23  C   LIG    1       -1.638   2.458  -2.253  0.00  0.00    +0.050 A 
ATOM     24  C   LIG    1       -0.566   2.010  -2.999  0.00  0.00    +0.030 A 
ATOM     25  C   LIG    1        0.625   2.715  -2.995  0.00  0.00    +0.070 A 
ATOM     26  C   LIG    1        0.749   3.872  -2.238  0.00  0.00    +0.070 A 
ATOM     27  F   LIG    1        1.914   4.557  -2.238  0.00  0.00    -0.130 F 
ATOM     28  F   LIG    1        1.670   2.276  -3.731  0.00  0.00    -0.130 F 
ATOM     29  C   LIG    1       -0.317   4.323  -1.485  0.00  0.00    +0.030 A 
ENDBRANCH  20  22
ENDBRANCH  10  16
TORSDOF 2
