REMARK  Name = ZINCpe00000MJJdH.0
REMARK                            x       y       z     vdW  Elec       q    Type
REMARK                         _______ _______ _______ _____ _____    ______ ____
ROOT
ATOM      1  N   LIG    1        2.135   1.129   1.188  0.00  0.00    -0.510 NA
ATOM      2  C   LIG    1        3.509   1.649   1.197  0.00  0.00    +0.160 C 
ATOM      3  C   LIG    1        3.470   3.180   1.200  0.00  0.00    +0.220 C 
ATOM      4  O   LIG    1        2.726   3.634   0.066  0.00  0.00    -0.390 OA
ATOM      5  C   LIG    1        1.382   3.147   0.025  0.00  0.00    +0.250 C 
ATOM      6  C   LIG    1        1.401   1.616   0.011  0.00  0.00    +0.110 C 
ENDROOT
BRANCH   6   7
ATOM      7  C   LIG    1       -0.035   1.087   0.049  0.00  0.00    +0.010 C 
ATOM      8  C   LIG    1       -0.776   1.709   1.234  0.00  0.00    +0.030 C 
ATOM      9  C   LIG    1       -2.211   1.180   1.272  0.00  0.00    +0.000 C 
ATOM     10  C   LIG    1       -2.926   1.552  -0.029  0.00  0.00    +0.010 C 
ATOM     11  C   LIG    1       -2.185   0.931  -1.214  0.00  0.00    -0.010 C 
ATOM     12  C   LIG    1       -0.750   1.460  -1.252  0.00  0.00    +0.160 C 
BRANCH  12  13
ATOM     13  O   LIG    1       -0.769   2.881  -1.395  0.00  0.00    -0.550 OA
ATOM     14  H   LIG    1       -1.208   3.189  -2.199  0.00  0.00    +0.380 HD
ENDBRANCH  12  13
ENDBRANCH   6   7
BRANCH   1  15
ATOM     15  C   LIG    1        2.127  -0.339   1.242  0.00  0.00    +0.200 C 
BRANCH  15  17
ATOM     16  N   LIG    1        2.588  -2.108   2.909  0.00  0.00    -0.620 N 
ATOM     17  C   LIG    1        2.525  -0.792   2.623  0.00  0.00    +0.520 C 
ATOM     18  O   LIG    1        2.789   0.027   3.478  0.00  0.00    -0.500 OA
BRANCH  16  19
ATOM     19  C   LIG    1        2.269  -3.098   1.877  0.00  0.00    +0.300 C 
BRANCH  19  20
ATOM     20  C   LIG    1        3.542  -3.464   1.111  0.00  0.00    +0.180 C 
BRANCH  20  22
ATOM     21  N   LIG    1        2.975  -5.226  -0.727  0.00  0.00    -0.420 NA
ATOM     22  C   LIG    1        3.222  -4.458   0.074  0.00  0.00    +0.200 C 
ENDBRANCH  20  22
ENDBRANCH  19  20
ENDBRANCH  16  19
BRANCH  16  23
ATOM     23  C   LIG    1        2.974  -2.549   4.251  0.00  0.00    +0.310 C 
BRANCH  23  24
ATOM     24  C   LIG    1        1.725  -2.680   5.125  0.00  0.00    +0.180 C 
BRANCH  24  25
ATOM     25  C   LIG    1        2.114  -3.123   6.474  0.00  0.00    +0.200 C 
ATOM     26  N   LIG    1        2.414  -3.465   7.515  0.00  0.00    -0.430 NA
ENDBRANCH  24  25
ENDBRANCH  23  24
ENDBRANCH  16  23
ENDBRANCH  15  17
ENDBRANCH   1  15
TORSDOF 10
