REMARK  Name = ZINCvU0000000DQS.0
REMARK                            x       y       z     vdW  Elec       q    Type
REMARK                         _______ _______ _______ _____ _____    ______ ____
ROOT
ATOM      1  C   LIG    1       -8.583   3.193   0.062  0.00  0.00    +0.150 A 
ATOM      2  C   LIG    1       -8.422   1.810   0.021  0.00  0.00    +0.020 A 
ATOM      3  C   LIG    1       -7.165   1.264   0.026  0.00  0.00    +0.090 A 
ATOM      4  C   LIG    1       -6.043   2.098   0.072  0.00  0.00    -0.150 A 
ATOM      5  C   LIG    1       -6.207   3.485   0.119  0.00  0.00    +0.070 A 
ATOM      6  C   LIG    1       -7.468   4.025   0.108  0.00  0.00    +0.020 A 
ENDROOT
BRANCH   1   7
ATOM      7  N   LIG    1       -9.860   3.743   0.057  0.00  0.00    -1.070 N 
ATOM      8  H   LIG    1      -10.203   4.164  -0.747  0.00  0.00    +0.430 HD
BRANCH   7   9
ATOM      9  S   LIG    1      -10.794   3.680   1.422  0.00  0.00    +2.690 S 
ATOM     10  O   LIG    1      -10.765   2.331   1.867  0.00  0.00    -0.940 OA
ATOM     11  O   LIG    1      -11.998   4.372   1.118  0.00  0.00    -0.950 OA
BRANCH   9  16
ATOM     12  C   LIG    1       -7.987   6.931   5.660  0.00  0.00    +0.090 C 
ATOM     13  C   LIG    1       -8.688   6.119   4.602  0.00  0.00    -0.020 A 
ATOM     14  C   LIG    1       -9.651   6.708   3.804  0.00  0.00    -0.010 A 
ATOM     15  C   LIG    1      -10.294   5.963   2.833  0.00  0.00    +0.130 A 
ATOM     16  C   LIG    1       -9.974   4.630   2.660  0.00  0.00    -0.680 A 
ATOM     17  C   LIG    1       -9.015   4.040   3.461  0.00  0.00    +0.130 A 
ATOM     18  C   LIG    1       -8.368   4.786   4.428  0.00  0.00    -0.010 A 
ENDBRANCH   9  16
ENDBRANCH   7   9
ENDBRANCH   1   7
BRANCH   4  19
ATOM     19  C   LIG    1       -4.687   1.513   0.078  0.00  0.00    +0.420 C 
ATOM     20  O   LIG    1       -4.545   0.304   0.043  0.00  0.00    -0.450 OA
BRANCH  19  21
ATOM     21  C   LIG    1       -3.514   2.386   0.127  0.00  0.00    -0.090 C 
ATOM     22  C   LIG    1       -2.275   1.852   0.133  0.00  0.00    +0.130 C 
BRANCH  22  23
ATOM     23  C   LIG    1       -1.095   2.730   0.182  0.00  0.00    -0.080 A 
ATOM     24  C   LIG    1       -1.254   4.119   0.227  0.00  0.00    +0.070 A 
ATOM     25  C   LIG    1       -0.143   4.935   0.268  0.00  0.00    +0.020 A 
ATOM     26  C   LIG    1        1.126   4.383   0.268  0.00  0.00    +0.080 A 
ATOM     27  C   LIG    1        1.291   3.010   0.229  0.00  0.00    -0.180 A 
ATOM     28  C   LIG    1        0.191   2.180   0.188  0.00  0.00    +0.100 A 
BRANCH  27  29
ATOM     29  C   LIG    1        2.678   2.419   0.229  0.00  0.00    +0.510 C 
ATOM     30  F   LIG    1        2.651   1.166   0.850  0.00  0.00    -0.170 F 
ATOM     31  F   LIG    1        3.545   3.267   0.927  0.00  0.00    -0.170 F 
ATOM     32  F   LIG    1        3.125   2.277  -1.089  0.00  0.00    -0.170 F 
ENDBRANCH  27  29
ENDBRANCH  22  23
ENDBRANCH  19  21
ENDBRANCH   4  19
TORSDOF 7
