REMARK  Name = ZINCqH0000035n97.0
REMARK                            x       y       z     vdW  Elec       q    Type
REMARK                         _______ _______ _______ _____ _____    ______ ____
ROOT
ATOM      1  N   LIG    1        4.002   0.380  -1.373  0.00  0.00    -0.540 NA
ATOM      2  C   LIG    1        3.964   1.547  -2.265  0.00  0.00    +0.210 C 
ENDROOT
BRANCH   1   3
ATOM      3  C   LIG    1        3.525   0.730  -0.028  0.00  0.00    +0.520 C 
BRANCH   3   7
ATOM      4  N   LIG    1       -0.017   1.369   0.010  0.00  0.00    -0.500 N 
ATOM      5  C   LIG    1        0.002  -0.004   0.002  0.00  0.00    +0.480 A 
ATOM      6  N   LIG    1        1.232  -0.405  -0.012  0.00  0.00    -0.260 NA
ATOM      7  N   LIG    1        2.060   0.726  -0.014  0.00  0.00    -0.370 N 
ATOM      8  C   LIG    1        1.257   1.811  -0.000  0.00  0.00    +0.470 A 
ATOM      9  S   LIG    1        1.763   3.446   0.004  0.00  0.00    -0.560 S 
BRANCH   4  10
ATOM     10  C   LIG    1       -1.216   2.210   0.020  0.00  0.00    +0.360 C 
BRANCH  10  11
ATOM     11  C   LIG    1       -1.626   2.496   1.466  0.00  0.00    +0.160 C 
BRANCH  11  13
ATOM     12  C   LIG    1       -0.898   3.599   3.466  0.00  0.00    +0.200 C 
ATOM     13  O   LIG    1       -0.612   3.275   2.104  0.00  0.00    -0.360 OA
ENDBRANCH  11  13
ENDBRANCH  10  11
ENDBRANCH   4  10
ENDBRANCH   3   7
ENDBRANCH   1   3
BRANCH   1  14
ATOM     14  C   LIG    1        5.352  -0.197  -1.319  0.00  0.00    +0.250 C 
BRANCH  14  15
ATOM     15  C   LIG    1        5.807  -0.543  -2.713  0.00  0.00    -0.080 A 
ATOM     16  C   LIG    1        4.917  -1.101  -3.612  0.00  0.00    +0.040 A 
ATOM     17  C   LIG    1        5.333  -1.414  -4.893  0.00  0.00    +0.000 A 
ATOM     18  C   LIG    1        6.641  -1.178  -5.271  0.00  0.00    +0.000 A 
ATOM     19  C   LIG    1        7.532  -0.624  -4.371  0.00  0.00    +0.000 A 
ATOM     20  C   LIG    1        7.115  -0.306  -3.092  0.00  0.00    +0.010 A 
ENDBRANCH  14  15
BRANCH  14  21
ATOM     21  C   LIG    1        5.331  -1.445  -0.474  0.00  0.00    -0.090 A 
ATOM     22  C   LIG    1        4.265  -2.321  -0.561  0.00  0.00    +0.050 A 
ATOM     23  C   LIG    1        4.248  -3.468   0.211  0.00  0.00    +0.000 A 
ATOM     24  C   LIG    1        5.292  -3.733   1.077  0.00  0.00    +0.000 A 
ATOM     25  C   LIG    1        6.355  -2.854   1.169  0.00  0.00    +0.000 A 
ATOM     26  C   LIG    1        6.374  -1.710   0.393  0.00  0.00    +0.010 A 
ENDBRANCH  14  21
ENDBRANCH   1  14
TORSDOF 8
