REMARK  Name = ZINCrg000000mRGD.0
REMARK                            x       y       z     vdW  Elec       q    Type
REMARK                         _______ _______ _______ _____ _____    ______ ____
ROOT
ATOM      1  C   LIG    1       -3.887   5.734   0.164  0.00  0.00    +0.550 C 
ATOM      2  N   LIG    1       -4.906   5.628   1.040  0.00  0.00    -0.610 N 
ATOM      3  C   LIG    1       -4.730   4.911   2.310  0.00  0.00    +0.270 C 
ATOM      4  C   LIG    1       -5.821   3.849   2.438  0.00  0.00    +0.020 C 
ATOM      5  C   LIG    1       -7.192   4.507   2.272  0.00  0.00    +0.100 C 
ATOM      6  C   LIG    1       -7.292   5.140   0.882  0.00  0.00    +0.030 C 
ATOM      7  C   LIG    1       -6.216   6.221   0.739  0.00  0.00    +0.300 C 
ATOM      8  O   LIG    1       -4.047   6.324  -0.883  0.00  0.00    -0.530 OA
ENDROOT
BRANCH   1  20
ATOM      9  C   LIG    1       -1.549   8.045   2.771  0.00  0.00    +0.110 C 
ATOM     10  C   LIG    1       -2.282   7.213   1.749  0.00  0.00    +0.510 C 
ATOM     11  N   LIG    1       -1.798   6.007   1.390  0.00  0.00    -0.610 N 
ATOM     12  C   LIG    1       -0.503   5.527   1.883  0.00  0.00    +0.340 C 
ATOM     13  C   LIG    1        0.277   4.914   0.747  0.00  0.00    -0.110 A 
ATOM     14  C   LIG    1        1.614   4.614   0.967  0.00  0.00    +0.020 A 
ATOM     15  C   LIG    1        2.377   4.041  -0.030  0.00  0.00    +0.010 A 
ATOM     16  C   LIG    1        1.803   3.760  -1.256  0.00  0.00    +0.010 A 
ATOM     17  C   LIG    1        0.476   4.063  -1.478  0.00  0.00    +0.000 A 
ATOM     18  C   LIG    1       -0.295   4.641  -0.476  0.00  0.00    -0.070 A 
ATOM     19  C   LIG    1       -1.733   4.953  -0.794  0.00  0.00    +0.110 C 
ATOM     20  C   LIG    1       -2.549   5.120   0.487  0.00  0.00    +0.230 C 
ATOM     21  O   LIG    1       -3.306   7.629   1.250  0.00  0.00    -0.500 OA
ENDBRANCH   1  20
BRANCH   5  22
ATOM     22  C   LIG    1       -8.271   3.466   2.428  0.00  0.00    +0.320 A 
ATOM     23  N   LIG    1       -9.443   3.652   2.981  0.00  0.00    -0.570 NA
ATOM     24  C   LIG    1      -10.145   2.516   2.946  0.00  0.00    +0.480 A 
ATOM     25  N   LIG    1       -9.416   1.587   2.374  0.00  0.00    -0.370 NA
ATOM     26  N   LIG    1       -8.193   2.186   2.030  0.00  0.00    -0.480 N 
ATOM     27  H   LIG    1       -7.441   1.758   1.592  0.00  0.00    +0.440 HD
BRANCH  24  28
ATOM     28  N   LIG    1      -11.438   2.344   3.442  0.00  0.00    -0.820 N 
ATOM     29  H   LIG    1      -11.904   3.090   3.851  0.00  0.00    +0.420 HD
ATOM     30  H   LIG    1      -11.871   1.478   3.377  0.00  0.00    +0.410 HD
ENDBRANCH  24  28
ENDBRANCH   5  22
TORSDOF 3
