REMARK  Name = ZINCrD000000fGbV.0
REMARK                            x       y       z     vdW  Elec       q    Type
REMARK                         _______ _______ _______ _____ _____    ______ ____
ROOT
ATOM      1  C   LIG    1        1.036   1.804  -0.021  0.00  0.00    +0.180 A 
ATOM      2  N   LIG    1       -0.260   1.622  -0.071  0.00  0.00    -0.460 NA
ATOM      3  C   LIG    1       -0.439   0.282  -0.071  0.00  0.00    +0.220 A 
ATOM      4  N   LIG    1        0.747  -0.266  -0.021  0.00  0.00    -0.370 NA
ATOM      5  O   LIG    1        1.602   0.594   0.008  0.00  0.00    +0.090 OA
ENDROOT
BRANCH   3   6
ATOM      6  C   LIG    1       -1.739  -0.433  -0.118  0.00  0.00    -0.020 A 
ATOM      7  C   LIG    1       -2.931   0.286  -0.163  0.00  0.00    +0.080 A 
ATOM      8  C   LIG    1       -4.137  -0.384  -0.211  0.00  0.00    +0.020 A 
ATOM      9  C   LIG    1       -4.163  -1.767  -0.205  0.00  0.00    +0.050 A 
ATOM     10  C   LIG    1       -2.982  -2.486  -0.155  0.00  0.00    -0.120 A 
ATOM     11  C   LIG    1       -1.771  -1.826  -0.112  0.00  0.00    +0.070 A 
BRANCH  10  12
ATOM     12  C   LIG    1       -3.019  -3.993  -0.148  0.00  0.00    +0.360 C 
BRANCH  12  13
ATOM     13  N   LIG    1       -3.084  -4.473   1.234  0.00  0.00    -0.460 N 
ATOM     14  C   LIG    1       -2.020  -4.771   2.042  0.00  0.00    +0.120 A 
ATOM     15  C   LIG    1       -2.527  -5.170   3.224  0.00  0.00    +0.140 A 
ATOM     16  N   LIG    1       -3.865  -5.127   3.137  0.00  0.00    -0.490 NA
ATOM     17  C   LIG    1       -4.206  -4.710   1.948  0.00  0.00    +0.380 A 
ENDBRANCH  12  13
ENDBRANCH  10  12
ENDBRANCH   3   6
BRANCH   1  18
ATOM     18  C   LIG    1        1.754   3.129   0.000  0.00  0.00    +0.380 C 
BRANCH  18  21
ATOM     19  C   LIG    1        4.471   4.187  -2.478  0.00  0.00    +0.110 C 
ATOM     20  C   LIG    1        3.388   4.233  -1.431  0.00  0.00    +0.520 C 
ATOM     21  N   LIG    1        2.883   3.087  -0.932  0.00  0.00    -0.730 N 
ATOM     22  H   LIG    1        3.268   2.235  -1.190  0.00  0.00    +0.410 HD
ATOM     23  O   LIG    1        2.970   5.302  -1.037  0.00  0.00    -0.530 OA
ENDBRANCH  18  21
BRANCH  18  24
ATOM     24  C   LIG    1        2.270   3.407   1.414  0.00  0.00    +0.010 C 
ATOM     25  C   LIG    1        3.239   2.290   1.852  0.00  0.00    +0.020 C 
ATOM     26  C   LIG    1        2.938   2.095   3.359  0.00  0.00    +0.020 C 
ATOM     27  C   LIG    1        1.400   2.265   3.425  0.00  0.00    +0.010 C 
ATOM     28  C   LIG    1        1.101   3.392   2.414  0.00  0.00    +0.020 C 
ENDBRANCH  18  24
ENDBRANCH   1  18
TORSDOF 6
