REMARK  Name = ZINCrD00000F5LwI.0
REMARK                            x       y       z     vdW  Elec       q    Type
REMARK                         _______ _______ _______ _____ _____    ______ ____
ROOT
ATOM      1  N   LIG    1       -2.819   1.389   0.122  0.00  0.00    -0.990 NA
ENDROOT
BRANCH   1   2
ATOM      2  S   LIG    1       -3.620   2.829  -0.045  0.00  0.00    +2.710 S 
ATOM      3  O   LIG    1       -3.219   3.641   1.050  0.00  0.00    -0.940 OA
ATOM      4  O   LIG    1       -4.977   2.505  -0.316  0.00  0.00    -0.930 OA
BRANCH   2   8
ATOM      5  C   LIG    1       -2.745   4.309  -3.594  0.00  0.00    +0.070 A 
ATOM      6  N   LIG    1       -1.742   4.789  -2.905  0.00  0.00    -0.250 NA
ATOM      7  N   LIG    1       -1.881   4.364  -1.577  0.00  0.00    -0.310 N 
ATOM      8  C   LIG    1       -2.996   3.608  -1.497  0.00  0.00    -0.500 A 
ATOM      9  C   LIG    1       -0.974   4.682  -0.471  0.00  0.00    +0.360 C 
ATOM     10  C   LIG    1       -3.551   3.561  -2.730  0.00  0.00    +0.020 A 
BRANCH   5  12
ATOM     11  C   LIG    1       -2.408   3.352  -5.856  0.00  0.00    +0.050 C 
ATOM     12  C   LIG    1       -2.990   4.525  -5.065  0.00  0.00    +0.070 C 
ATOM     13  C   LIG    1       -4.495   4.617  -5.324  0.00  0.00    +0.040 C 
ENDBRANCH   5  12
ENDBRANCH   2   8
ENDBRANCH   1   2
BRANCH   1  14
ATOM     14  C   LIG    1       -2.170   1.056   1.392  0.00  0.00    +0.330 C 
BRANCH  14  15
ATOM     15  C   LIG    1       -3.236   0.845   2.470  0.00  0.00    -0.060 C 
ATOM     16  C   LIG    1       -4.250  -0.144   1.975  0.00  0.00    -0.050 C 
ATOM     17  C   LIG    1       -4.743  -1.099   2.696  0.00  0.00    -0.050 C 
ATOM     18  C   LIG    1       -4.361  -1.358   4.124  0.00  0.00    +0.050 C 
ATOM     19  C   LIG    1       -3.670  -0.128   4.716  0.00  0.00    +0.020 C 
ATOM     20  C   LIG    1       -3.928   2.177   2.766  0.00  0.00    +0.040 C 
ATOM     21  C   LIG    1       -2.571   0.324   3.746  0.00  0.00    +0.040 C 
ENDBRANCH  14  15
ENDBRANCH   1  14
BRANCH   1  22
ATOM     22  C   LIG    1       -2.760   0.450  -1.000  0.00  0.00    +0.300 C 
BRANCH  22  23
ATOM     23  C   LIG    1       -3.751  -0.691  -0.763  0.00  0.00    -0.050 C 
ATOM     24  C   LIG    1       -3.531  -1.823  -1.796  0.00  0.00    +0.010 C 
ATOM     25  C   LIG    1       -4.986  -2.233  -2.142  0.00  0.00    +0.190 C 
ATOM     26  O   LIG    1       -5.701  -0.979  -2.131  0.00  0.00    -0.370 OA
ATOM     27  C   LIG    1       -5.193  -0.216  -1.024  0.00  0.00    +0.200 C 
ENDBRANCH  22  23
ENDBRANCH   1  22
TORSDOF 7
