REMARK  Name = ZINCrH000004sseH.0
REMARK                            x       y       z     vdW  Elec       q    Type
REMARK                         _______ _______ _______ _____ _____    ______ ____
ROOT
ATOM      1  C   LIG    1        3.103  -0.606   1.613  0.00  0.00    +0.520 C 
ATOM      2  N   LIG    1        1.995   0.130   1.400  0.00  0.00    -0.620 N 
ATOM      3  C   LIG    1        0.675  -0.509   1.282  0.00  0.00    +0.300 C 
ATOM      4  C   LIG    1        0.002  -0.004   0.002  0.00  0.00    +0.170 C 
ATOM      5  N   LIG    1       -0.018   1.465   0.010  0.00  0.00    -0.530 NA
ATOM      6  C   LIG    1        1.344   2.016   0.000  0.00  0.00    +0.170 C 
ATOM      7  C   LIG    1        2.072   1.594   1.280  0.00  0.00    +0.280 C 
ATOM      8  O   LIG    1        3.021  -1.813   1.710  0.00  0.00    -0.530 OA
ENDROOT
BRANCH   1   9
ATOM      9  C   LIG    1        4.445   0.069   1.730  0.00  0.00    +0.140 C 
BRANCH   9  15
ATOM     10  C   LIG    1        8.764  -4.450  -1.176  0.00  0.00    +0.090 C 
ATOM     11  C   LIG    1        7.868  -3.501  -0.424  0.00  0.00    -0.070 A 
ATOM     12  C   LIG    1        6.989  -2.687  -1.123  0.00  0.00    +0.000 A 
ATOM     13  C   LIG    1        6.164  -1.814  -0.448  0.00  0.00    +0.050 A 
ATOM     14  C   LIG    1        6.218  -1.753   0.944  0.00  0.00    -0.110 A 
ATOM     15  C   LIG    1        5.512  -0.969   1.964  0.00  0.00    -0.160 A 
ATOM     16  C   LIG    1        6.011  -1.359   3.146  0.00  0.00    +0.230 A 
ATOM     17  O   LIG    1        6.945  -2.308   2.964  0.00  0.00    -0.190 OA
ATOM     18  C   LIG    1        7.108  -2.578   1.653  0.00  0.00    +0.060 A 
ATOM     19  C   LIG    1        7.931  -3.450   0.953  0.00  0.00    -0.070 A 
ATOM     20  C   LIG    1        8.892  -4.341   1.697  0.00  0.00    +0.100 C 
ENDBRANCH   9  15
ENDBRANCH   1   9
BRANCH   5  21
ATOM     21  C   LIG    1       -0.806   1.987  -1.115  0.00  0.00    +0.280 C 
BRANCH  21  22
ATOM     22  C   LIG    1       -1.010   3.470  -0.939  0.00  0.00    +0.080 A 
ATOM     23  C   LIG    1       -0.215   4.381  -1.508  0.00  0.00    -0.090 A 
ATOM     24  S   LIG    1       -0.805   5.977  -1.048  0.00  0.00    +0.120 S 
ATOM     25  C   LIG    1       -2.061   5.259  -0.137  0.00  0.00    +0.050 A 
ATOM     26  C   LIG    1       -3.103   6.019   0.642  0.00  0.00    +0.180 C 
ATOM     27  N   LIG    1       -1.990   3.974  -0.217  0.00  0.00    -0.460 NA
ENDBRANCH  21  22
ENDBRANCH   5  21
TORSDOF 4
