REMARK  Name = ZINCrH000004rK1n.0
REMARK                            x       y       z     vdW  Elec       q    Type
REMARK                         _______ _______ _______ _____ _____    ______ ____
ROOT
ATOM      1  C   LIG    1       -1.257  -0.757   0.020  0.00  0.00    +0.330 A 
ATOM      2  N   LIG    1       -1.363  -2.052  -0.088  0.00  0.00    -0.260 NA
ATOM      3  N   LIG    1       -2.725  -2.380  -0.049  0.00  0.00    -0.470 N 
ATOM      4  H   LIG    1       -3.102  -3.272  -0.106  0.00  0.00    +0.470 HD
ATOM      5  C   LIG    1       -3.417  -1.229   0.079  0.00  0.00    +0.470 A 
ATOM      6  S   LIG    1       -5.119  -1.078   0.169  0.00  0.00    -0.560 S 
ATOM      7  N   LIG    1       -2.525  -0.220   0.123  0.00  0.00    -0.490 N 
ENDROOT
BRANCH   1  13
ATOM      8  C   LIG    1        3.680  -0.580   0.732  0.00  0.00    +0.100 C 
ATOM      9  C   LIG    1        2.385   0.099   0.367  0.00  0.00    -0.080 A 
ATOM     10  C   LIG    1        2.379   1.442   0.036  0.00  0.00    +0.040 A 
ATOM     11  C   LIG    1        1.194   2.072  -0.301  0.00  0.00    +0.020 A 
ATOM     12  C   LIG    1        0.010   1.364  -0.308  0.00  0.00    +0.020 A 
ATOM     13  C   LIG    1        0.009   0.009   0.025  0.00  0.00    -0.040 A 
ATOM     14  C   LIG    1        1.207  -0.621   0.363  0.00  0.00    +0.070 A 
ENDBRANCH   1  13
BRANCH   7  15
ATOM     15  C   LIG    1       -2.845   1.204   0.256  0.00  0.00    +0.370 C 
BRANCH  15  16
ATOM     16  C   LIG    1       -3.155   1.788  -1.124  0.00  0.00    +0.050 C 
BRANCH  16  17
ATOM     17  C   LIG    1       -3.357   3.277  -1.005  0.00  0.00    +0.530 C 
ATOM     18  N   LIG    1       -3.643   4.007  -2.101  0.00  0.00    -0.610 N 
ATOM     19  C   LIG    1       -3.758   3.354  -3.407  0.00  0.00    +0.290 C 
ATOM     20  O   LIG    1       -3.262   3.817   0.076  0.00  0.00    -0.530 OA
BRANCH  18  21
ATOM     21  C   LIG    1       -3.839   5.455  -1.986  0.00  0.00    +0.340 C 
BRANCH  21  22
ATOM     22  C   LIG    1       -2.519   6.157  -2.171  0.00  0.00    -0.080 A 
ATOM     23  C   LIG    1       -1.715   6.417  -1.077  0.00  0.00    +0.030 A 
ATOM     24  C   LIG    1       -0.501   7.057  -1.246  0.00  0.00    +0.040 A 
ATOM     25  C   LIG    1       -0.095   7.447  -2.507  0.00  0.00    -0.010 A 
ATOM     26  C   LIG    1       -0.901   7.191  -3.604  0.00  0.00    +0.100 A 
ATOM     27  F   LIG    1       -0.505   7.571  -4.838  0.00  0.00    -0.140 F 
ATOM     28  C   LIG    1       -2.114   6.545  -3.434  0.00  0.00    -0.010 A 
ENDBRANCH  21  22
ENDBRANCH  18  21
ENDBRANCH  16  17
ENDBRANCH  15  16
ENDBRANCH   7  15
TORSDOF 6
