REMARK  Name = ZINCvU0000000I4P.0
REMARK                            x       y       z     vdW  Elec       q    Type
REMARK                         _______ _______ _______ _____ _____    ______ ____
ROOT
ATOM      1  C   LIG    1        3.130  -0.304  -0.177  0.00  0.00    +0.370 C 
ATOM      2  C   LIG    1        2.138   0.674   0.362  0.00  0.00    -0.230 A 
ATOM      3  C   LIG    1        0.915   0.064   0.370  0.00  0.00    +0.090 A 
ATOM      4  C   LIG    1        1.075  -1.299  -0.162  0.00  0.00    +0.570 C 
ATOM      5  O   LIG    1        0.175  -2.105  -0.292  0.00  0.00    -0.450 OA
ATOM      6  O   LIG    1       -0.201   0.680   0.808  0.00  0.00    -0.170 OA
ATOM      7  C   LIG    1       -0.184   2.013   1.036  0.00  0.00    +0.150 A 
ATOM      8  C   LIG    1       -1.390   2.677   1.254  0.00  0.00    +0.040 A 
ATOM      9  C   LIG    1       -1.402   4.034   1.489  0.00  0.00    +0.120 A 
ATOM     10  C   LIG    1       -0.219   4.760   1.524  0.00  0.00    -0.060 A 
ATOM     11  C   LIG    1        0.987   4.126   1.314  0.00  0.00    +0.140 A 
ATOM     12 CL   LIG    1       -0.259   6.468   1.832  0.00  0.00    -0.040 Cl
ATOM     13  C   LIG    1        1.010   2.754   1.067  0.00  0.00    -0.200 A 
ATOM     14  C   LIG    1        2.298   2.055   0.828  0.00  0.00    +0.460 A 
ATOM     15  O   LIG    1        3.384   2.579   1.002  0.00  0.00    -0.420 OA
ATOM     16  N   LIG    1        2.365  -1.524  -0.483  0.00  0.00    -0.500 N 
ENDROOT
BRANCH   1  20
ATOM     17  C   LIG    1        6.124  -1.138   2.756  0.00  0.00    +0.150 A 
ATOM     18  C   LIG    1        6.386  -0.239   1.732  0.00  0.00    -0.080 A 
ATOM     19  C   LIG    1        5.417   0.029   0.785  0.00  0.00    +0.100 A 
ATOM     20  C   LIG    1        4.186  -0.598   0.858  0.00  0.00    -0.130 A 
ATOM     21  C   LIG    1        3.921  -1.489   1.881  0.00  0.00    +0.060 A 
ATOM     22  C   LIG    1        4.888  -1.764   2.827  0.00  0.00    -0.020 A 
BRANCH  17  23
ATOM     23  O   LIG    1        7.076  -1.403   3.689  0.00  0.00    -0.310 OA
BRANCH  23  25
ATOM     24  C   LIG    1        8.366   0.607   4.058  0.00  0.00    +0.020 C 
ATOM     25  C   LIG    1        8.362  -0.813   3.489  0.00  0.00    +0.150 C 
ATOM     26  C   LIG    1        9.424  -1.651   4.204  0.00  0.00    +0.070 C 
ENDBRANCH  23  25
ENDBRANCH  17  23
ENDBRANCH   1  20
BRANCH  16  27
ATOM     27  C   LIG    1        2.882  -2.699  -1.010  0.00  0.00    +0.270 A 
ATOM     28  N   LIG    1        4.127  -2.892  -1.317  0.00  0.00    -0.490 NA
ATOM     29  C   LIG    1        4.446  -4.075  -1.805  0.00  0.00    +0.250 A 
ATOM     30  C   LIG    1        3.420  -4.921  -1.925  0.00  0.00    -0.100 A 
ATOM     31  S   LIG    1        1.968  -4.102  -1.355  0.00  0.00    +0.210 S 
ENDBRANCH  16  27
TORSDOF 4
