REMARK  Name = ZINCrg000000tc1D.0
REMARK                            x       y       z     vdW  Elec       q    Type
REMARK                         _______ _______ _______ _____ _____    ______ ____
ROOT
ATOM      1  O   LIG    1        4.701  -0.294   0.737  0.00  0.00    -0.520 OA
ATOM      2  C   LIG    1        4.159   0.340   1.618  0.00  0.00    +0.510 C 
ATOM      3  N   LIG    1        3.001   0.984   1.371  0.00  0.00    -0.720 N 
ATOM      4  H   LIG    1        2.568   1.491   2.075  0.00  0.00    +0.400 HD
ENDROOT
BRANCH   3   5
ATOM      5  C   LIG    1        2.397   0.918   0.038  0.00  0.00    +0.340 C 
BRANCH   5   6
ATOM      6  C   LIG    1        1.119   1.716   0.026  0.00  0.00    -0.160 A 
ATOM      7  C   LIG    1       -0.108   1.076  -0.008  0.00  0.00    +0.110 A 
ATOM      8  C   LIG    1       -1.259   1.851  -0.022  0.00  0.00    -0.020 A 
ATOM      9  C   LIG    1       -1.147   3.227   0.007  0.00  0.00    +0.300 A 
ATOM     10  N   LIG    1        0.036   3.809   0.039  0.00  0.00    -0.490 NA
ATOM     11  C   LIG    1        1.156   3.105   0.049  0.00  0.00    +0.350 A 
BRANCH  11  12
ATOM     12  N   LIG    1        2.389   3.764   0.083  0.00  0.00    -0.420 N 
ATOM     13  C   LIG    1        3.484   3.488  -0.695  0.00  0.00    +0.130 A 
ATOM     14  C   LIG    1        4.446   4.358  -0.336  0.00  0.00    +0.170 A 
ATOM     15  N   LIG    1        3.959   5.146   0.633  0.00  0.00    -0.480 NA
ATOM     16  C   LIG    1        2.726   4.805   0.890  0.00  0.00    +0.420 A 
ENDBRANCH  11  12
ENDBRANCH   5   6
ENDBRANCH   3   5
BRANCH   2  17
ATOM     17  C   LIG    1        4.781   0.407   2.989  0.00  0.00    +0.330 C 
BRANCH  17  18
ATOM     18  N   LIG    1        6.023  -0.369   3.001  0.00  0.00    -0.580 N 
ATOM     19  C   LIG    1        6.076  -1.690   3.322  0.00  0.00    +0.550 C 
ATOM     20  C   LIG    1        7.522  -2.011   3.515  0.00  0.00    -0.010 C 
ATOM     21  C   LIG    1        8.046  -3.376   3.136  0.00  0.00    +0.060 C 
ATOM     22  C   LIG    1        9.562  -3.360   3.408  0.00  0.00    +0.020 C 
ATOM     23  C   LIG    1       10.267  -2.234   2.660  0.00  0.00    +0.020 C 
ATOM     24  C   LIG    1        9.613  -0.865   2.933  0.00  0.00    +0.060 C 
ATOM     25  C   LIG    1        8.164  -0.999   2.520  0.00  0.00    +0.000 C 
ATOM     26  O   LIG    1        5.139  -2.453   3.428  0.00  0.00    -0.460 OA
ATOM     27  C   LIG    1        7.238   0.163   2.697  0.00  0.00    +0.550 C 
ATOM     28  O   LIG    1        7.515   1.338   2.592  0.00  0.00    -0.460 OA
ENDBRANCH  17  18
ENDBRANCH   2  17
TORSDOF 5
