REMARK  Name = ZINCtV000002D0A0.0
REMARK                            x       y       z     vdW  Elec       q    Type
REMARK                         _______ _______ _______ _____ _____    ______ ____
ROOT
ATOM      1  C   LIG    1        7.383   2.113   2.732  0.00  0.00    +0.100 C 
ATOM      2  C   LIG    1        6.654   1.712   1.448  0.00  0.00    +0.000 C 
ENDROOT
BRANCH   2   3
ATOM      3  C   LIG    1        5.487   0.822   1.790  0.00  0.00    +0.540 C 
ATOM      4  N   LIG    1        4.304   1.367   2.138  0.00  0.00    -0.650 N 
ATOM      5  H   LIG    1        4.186   2.329   2.110  0.00  0.00    +0.410 HD
ATOM      6  O   LIG    1        5.611  -0.384   1.752  0.00  0.00    -0.490 OA
BRANCH   4   7
ATOM      7  C   LIG    1        3.249   0.546   2.540  0.00  0.00    +0.150 A 
ATOM      8  C   LIG    1        3.495  -0.730   2.996  0.00  0.00    +0.030 A 
ATOM      9  C   LIG    1        2.450  -1.557   3.399  0.00  0.00    +0.040 A 
ATOM     10  C   LIG    1        1.159  -1.130   3.354  0.00  0.00    +0.010 A 
ATOM     11  C   LIG    1        0.864   0.166   2.895  0.00  0.00    -0.030 A 
ATOM     12  C   LIG    1       -0.460   0.632   2.832  0.00  0.00    +0.030 A 
ATOM     13  C   LIG    1       -0.710   1.894   2.387  0.00  0.00    +0.020 A 
ATOM     14  C   LIG    1        0.328   2.730   1.982  0.00  0.00    +0.020 A 
ATOM     15  C   LIG    1        1.623   2.309   2.025  0.00  0.00    +0.010 A 
ATOM     16  C   LIG    1        1.919   1.016   2.483  0.00  0.00    -0.060 A 
ENDBRANCH   4   7
ENDBRANCH   2   3
BRANCH   2  17
ATOM     17  S   LIG    1        7.793   0.820   0.360  0.00  0.00    +0.160 S 
BRANCH  17  18
ATOM     18  C   LIG    1        8.947   2.104   0.006  0.00  0.00    +0.030 A 
ATOM     19  N   LIG    1        8.918   3.326   0.443  0.00  0.00    -0.260 NA
ATOM     20  N   LIG    1        9.918   4.186   0.051  0.00  0.00    -0.300 N 
ATOM     21  C   LIG    1       10.863   3.686  -0.768  0.00  0.00    +0.220 A 
ATOM     22  S   LIG    1       12.220   4.500  -1.421  0.00  0.00    -0.390 S 
ATOM     23  S   LIG    1       10.392   1.993  -1.015  0.00  0.00    +0.160 S 
BRANCH  20  24
ATOM     24  C   LIG    1        9.952   5.518   0.482  0.00  0.00    +0.100 A 
ATOM     25  C   LIG    1       11.134   6.062   0.967  0.00  0.00    +0.100 A 
ATOM     26  C   LIG    1       11.166   7.377   1.387  0.00  0.00    +0.010 A 
ATOM     27  C   LIG    1       10.018   8.150   1.335  0.00  0.00    +0.120 A 
ATOM     28  C   LIG    1        8.837   7.607   0.857  0.00  0.00    +0.000 A 
ATOM     29  F   LIG    1       10.051   9.435   1.752  0.00  0.00    -0.130 F 
ATOM     30  C   LIG    1        8.802   6.294   0.431  0.00  0.00    +0.080 A 
ENDBRANCH  20  24
ENDBRANCH  17  18
ENDBRANCH   2  17
TORSDOF 5
