REMARK  Name = ZINCpk00000kTiil.0
REMARK                            x       y       z     vdW  Elec       q    Type
REMARK                         _______ _______ _______ _____ _____    ______ ____
ROOT
ATOM      1  C   LIG    1       -1.087  -5.990  -1.164  0.00  0.00    +0.100 C 
ATOM      2  C   LIG    1        0.372  -6.114  -1.669  0.00  0.00    +0.020 C 
ATOM      3  C   LIG    1        0.957  -4.710  -1.375  0.00  0.00    +0.170 C 
ATOM      4  C   LIG    1        0.325  -4.314  -0.024  0.00  0.00    +0.010 C 
ATOM      5  C   LIG    1       -0.974  -5.127   0.110  0.00  0.00    +0.060 C 
ENDROOT
BRANCH   1  13
ATOM      6  C   LIG    1       -2.614  -7.872  -3.110  0.00  0.00    +0.350 C 
ATOM      7  N   LIG    1       -2.324  -8.168  -1.705  0.00  0.00    -0.550 N 
ATOM      8  C   LIG    1       -2.671  -9.293  -1.047  0.00  0.00    +0.650 A 
ATOM      9  N   LIG    1       -2.220  -9.175   0.220  0.00  0.00    -0.550 N 
ATOM     10  H   LIG    1       -2.321  -9.829   0.929  0.00  0.00    +0.460 HD
ATOM     11  N   LIG    1       -1.575  -7.935   0.318  0.00  0.00    -0.270 NA
ATOM     12  O   LIG    1       -3.281 -10.240  -1.510  0.00  0.00    -0.550 OA
ATOM     13  C   LIG    1       -1.650  -7.348  -0.833  0.00  0.00    +0.290 A 
ENDBRANCH   1  13
BRANCH   3  14
ATOM     14  O   LIG    1        0.576  -3.786  -2.396  0.00  0.00    -0.550 OA
ATOM     15  H   LIG    1        0.945  -3.988  -3.267  0.00  0.00    +0.380 HD
ENDBRANCH   3  14
BRANCH   4  16
ATOM     16  C   LIG    1        0.009  -2.817  -0.013  0.00  0.00    +0.290 C 
BRANCH  16  17
ATOM     17  N   LIG    1        1.260  -2.054  -0.021  0.00  0.00    -0.710 N 
ATOM     18  H   LIG    1        2.111  -2.518  -0.032  0.00  0.00    +0.410 HD
BRANCH  17  19
ATOM     19  C   LIG    1        1.226  -0.664  -0.013  0.00  0.00    +0.430 A 
ATOM     20  C   LIG    1        0.002  -0.004   0.002  0.00  0.00    -0.100 A 
ATOM     21  C   LIG    1       -0.017   1.379   0.010  0.00  0.00    +0.160 A 
ATOM     22  C   LIG    1        1.194   2.058   0.002  0.00  0.00    -0.310 A 
ATOM     23  C   LIG    1        2.373   1.339  -0.014  0.00  0.00    +0.380 A 
ATOM     24  N   LIG    1        2.361   0.020  -0.021  0.00  0.00    -0.540 NA
BRANCH  22  25
ATOM     25  C   LIG    1        1.222   3.565   0.009  0.00  0.00    +0.520 C 
ATOM     26  F   LIG    1        0.082   4.056  -0.636  0.00  0.00    -0.180 F 
ATOM     27  F   LIG    1        2.366   4.014  -0.658  0.00  0.00    -0.180 F 
ATOM     28  F   LIG    1        1.243   4.024   1.331  0.00  0.00    -0.180 F 
ENDBRANCH  22  25
ENDBRANCH  17  19
ENDBRANCH  16  17
ENDBRANCH   4  16
TORSDOF 6
