REMARK  Name = ZINCqH0000005ght.0
REMARK                            x       y       z     vdW  Elec       q    Type
REMARK                         _______ _______ _______ _____ _____    ______ ____
ROOT
ATOM      1  C   LIG    1        1.840   4.502   4.534  0.00  0.00    +0.280 C 
ATOM      2  N   LIG    1        1.677   5.514   3.487  0.00  0.00    -0.610 N 
ATOM      3  C   LIG    1        1.493   5.135   2.207  0.00  0.00    +0.520 C 
ATOM      4  O   LIG    1        1.359   5.972   1.339  0.00  0.00    -0.530 OA
ENDROOT
BRANCH   3   5
ATOM      5  C   LIG    1        1.454   3.671   1.852  0.00  0.00    +0.040 C 
BRANCH   5   6
ATOM      6  C   LIG    1        1.235   3.516   0.346  0.00  0.00    +0.320 C 
BRANCH   6   7
ATOM      7  N   LIG    1        1.197   2.092   0.002  0.00  0.00    -0.550 N 
ATOM      8  C   LIG    1        2.331   1.436  -0.328  0.00  0.00    +0.490 C 
ATOM      9  C   LIG    1        2.267  -0.020  -0.715  0.00  0.00    +0.300 C 
ATOM     10  O   LIG    1        1.195  -0.657  -0.015  0.00  0.00    -0.300 OA
ATOM     11  C   LIG    1        0.002  -0.004   0.002  0.00  0.00    +0.080 A 
ATOM     12  C   LIG    1       -1.188  -0.709   0.010  0.00  0.00    +0.030 A 
ATOM     13  C   LIG    1       -2.393  -0.029   0.025  0.00  0.00    +0.030 A 
ATOM     14  C   LIG    1       -2.411   1.354   0.033  0.00  0.00    +0.020 A 
ATOM     15  C   LIG    1       -1.225   2.066   0.031  0.00  0.00    +0.000 A 
ATOM     16  O   LIG    1        3.396   2.015  -0.312  0.00  0.00    -0.500 OA
ATOM     17  C   LIG    1       -0.017   1.390   0.010  0.00  0.00    +0.090 A 
ENDBRANCH   6   7
ENDBRANCH   5   6
ENDBRANCH   3   5
BRANCH   2  18
ATOM     18  C   LIG    1        1.715   6.937   3.831  0.00  0.00    +0.340 C 
BRANCH  18  19
ATOM     19  C   LIG    1        0.323   7.413   4.155  0.00  0.00    -0.090 A 
ATOM     20  C   LIG    1       -0.485   7.919   3.154  0.00  0.00    +0.070 A 
ATOM     21  C   LIG    1       -1.765   8.351   3.449  0.00  0.00    +0.040 A 
ATOM     22  C   LIG    1       -2.234   8.287   4.748  0.00  0.00    -0.030 A 
ATOM     23  C   LIG    1       -1.423   7.785   5.752  0.00  0.00    -0.030 A 
ATOM     24 CL   LIG    1       -2.011   7.703   7.384  0.00  0.00    -0.050 Cl
ATOM     25 CL   LIG    1       -3.838   8.836   5.120  0.00  0.00    -0.050 Cl
ATOM     26  C   LIG    1       -0.145   7.348   5.454  0.00  0.00    +0.050 A 
ENDBRANCH  18  19
ENDBRANCH   2  18
TORSDOF 5
