REMARK  Name = ZINCqH0000051jiV.0
REMARK                            x       y       z     vdW  Elec       q    Type
REMARK                         _______ _______ _______ _____ _____    ______ ____
ROOT
ATOM      1  O   LIG    1        5.035   2.890  -3.030  0.00  0.00    -0.520 OA
ATOM      2  C   LIG    1        5.451   2.133  -2.175  0.00  0.00    +0.570 C 
ATOM      3  N   LIG    1        4.621   1.681  -1.214  0.00  0.00    -0.710 N 
ATOM      4  H   LIG    1        4.953   1.077  -0.532  0.00  0.00    +0.410 HD
ENDROOT
BRANCH   2   5
ATOM      5  C   LIG    1        6.869   1.705  -2.191  0.00  0.00    +0.080 A 
ATOM      6  C   LIG    1        7.721   2.175  -3.187  0.00  0.00    +0.100 A 
ATOM      7  C   LIG    1        9.046   1.766  -3.188  0.00  0.00    -0.140 A 
ATOM      8  C   LIG    1        9.472   0.902  -2.192  0.00  0.00    +0.060 A 
ATOM      9  C   LIG    1        8.569   0.474  -1.232  0.00  0.00    +0.290 A 
ATOM     10  N   LIG    1        7.319   0.881  -1.252  0.00  0.00    -0.440 NA
BRANCH   7  11
ATOM     11  C   LIG    1       10.001   2.251  -4.249  0.00  0.00    +0.510 C 
ATOM     12  F   LIG    1        9.298   2.495  -5.433  0.00  0.00    -0.170 F 
ATOM     13  F   LIG    1       10.977   1.275  -4.479  0.00  0.00    -0.170 F 
ATOM     14  F   LIG    1       10.615   3.432  -3.818  0.00  0.00    -0.170 F 
ENDBRANCH   7  11
ENDBRANCH   2   5
BRANCH   3  15
ATOM     15  C   LIG    1        3.219   2.104  -1.199  0.00  0.00    +0.270 C 
BRANCH  15  16
ATOM     16  C   LIG    1        2.503   1.453  -0.014  0.00  0.00    +0.130 C 
BRANCH  16  17
ATOM     17  C   LIG    1        1.060   1.888   0.002  0.00  0.00    -0.010 A 
ATOM     18  C   LIG    1       -0.013   1.076   0.008  0.00  0.00    +0.160 A 
ATOM     19  O   LIG    1       -1.109   1.860   0.017  0.00  0.00    -0.190 OA
ATOM     20  C   LIG    1       -0.696   3.139   0.026  0.00  0.00    +0.240 A 
ATOM     21  N   LIG    1        0.617   3.154   0.013  0.00  0.00    -0.460 NA
BRANCH  20  22
ATOM     22  C   LIG    1       -1.572   4.329   0.040  0.00  0.00    -0.020 A 
ATOM     23  C   LIG    1       -1.016   5.609   0.048  0.00  0.00    +0.070 A 
ATOM     24  C   LIG    1       -1.840   6.716   0.056  0.00  0.00    +0.010 A 
ATOM     25  C   LIG    1       -3.215   6.559   0.069  0.00  0.00    +0.030 A 
ATOM     26  C   LIG    1       -3.772   5.293   0.067  0.00  0.00    +0.010 A 
ATOM     27  C   LIG    1       -2.960   4.178   0.053  0.00  0.00    +0.040 A 
ENDBRANCH  20  22
ENDBRANCH  16  17
ENDBRANCH  15  16
ENDBRANCH   3  15
TORSDOF 6
