REMARK  Name = ZINCrD0000075F3S.0
REMARK                            x       y       z     vdW  Elec       q    Type
REMARK                         _______ _______ _______ _____ _____    ______ ____
ROOT
ATOM      1  O   LIG    1       -1.042  -0.626   0.004  0.00  0.00    -0.570 OA
ATOM      2  C   LIG    1        0.002  -0.004   0.006  0.00  0.00    +0.710 C 
ATOM      3  N   LIG    1        1.178  -0.662  -0.013  0.00  0.00    -0.680 N 
ATOM      4  H   LIG    1        2.009  -0.168  -0.094  0.00  0.00    +0.410 HD
ATOM      5  N   LIG    1       -0.016   1.344   0.026  0.00  0.00    -0.730 N 
ATOM      6  H   LIG    1        0.818   1.840   0.027  0.00  0.00    +0.400 HD
ENDROOT
BRANCH   3   7
ATOM      7  C   LIG    1        1.200  -2.055   0.085  0.00  0.00    +0.170 A 
ATOM      8  C   LIG    1        0.161  -2.728   0.692  0.00  0.00    +0.030 A 
ATOM      9  C   LIG    1        0.172  -4.117   0.789  0.00  0.00    +0.040 A 
ATOM     10  C   LIG    1        1.211  -4.850   0.300  0.00  0.00    +0.020 A 
ATOM     11  C   LIG    1        2.291  -4.202  -0.320  0.00  0.00    -0.090 A 
ATOM     12  C   LIG    1        3.385  -4.913  -0.841  0.00  0.00    +0.320 A 
ATOM     13  N   LIG    1        4.373  -4.266  -1.412  0.00  0.00    -0.490 NA
ATOM     14  C   LIG    1        4.394  -2.945  -1.527  0.00  0.00    +0.230 A 
ATOM     15  C   LIG    1        3.381  -2.166  -1.055  0.00  0.00    -0.030 A 
ATOM     16  C   LIG    1        2.287  -2.788  -0.430  0.00  0.00    -0.040 A 
ENDBRANCH   3   7
BRANCH   5  17
ATOM     17  C   LIG    1       -1.294   2.059   0.039  0.00  0.00    +0.350 C 
BRANCH  17  18
ATOM     18  C   LIG    1       -1.038   3.544   0.061  0.00  0.00    -0.090 A 
ATOM     19  C   LIG    1       -1.128   4.244   1.248  0.00  0.00    +0.040 A 
ATOM     20  C   LIG    1       -0.888   5.606   1.269  0.00  0.00    +0.010 A 
ATOM     21  C   LIG    1       -0.569   6.273   0.101  0.00  0.00    +0.030 A 
ATOM     22  C   LIG    1       -0.483   5.580  -1.090  0.00  0.00    -0.030 A 
ATOM     23  C   LIG    1       -0.717   4.212  -1.115  0.00  0.00    +0.100 A 
BRANCH  23  24
ATOM     24  N   LIG    1       -0.631   3.508  -2.318  0.00  0.00    -0.500 N 
ATOM     25  C   LIG    1        0.736   3.550  -2.856  0.00  0.00    +0.160 C 
ATOM     26  C   LIG    1        0.799   2.719  -4.140  0.00  0.00    +0.220 C 
ATOM     27  O   LIG    1       -0.165   3.216  -5.072  0.00  0.00    -0.380 OA
ATOM     28  C   LIG    1       -1.508   3.189  -4.581  0.00  0.00    +0.220 C 
ATOM     29  C   LIG    1       -1.594   4.025  -3.301  0.00  0.00    +0.160 C 
ENDBRANCH  23  24
ENDBRANCH  17  18
ENDBRANCH   5  17
TORSDOF 4
