REMARK  Name = ZINCvU00000003Oj.0
REMARK                            x       y       z     vdW  Elec       q    Type
REMARK                         _______ _______ _______ _____ _____    ______ ____
ROOT
ATOM      1  C   LIG    1       -3.368  -1.254   0.647  0.00  0.00    +0.160 A 
ATOM      2  N   LIG    1       -3.300  -1.218  -0.664  0.00  0.00    -0.290 NA
ATOM      3  N   LIG    1       -2.146  -0.788  -1.031  0.00  0.00    -0.250 NA
ATOM      4  C   LIG    1       -1.412  -0.526   0.013  0.00  0.00    +0.190 A 
ATOM      5  N   LIG    1       -2.161  -0.818   1.121  0.00  0.00    -0.410 N 
ENDROOT
BRANCH   5   6
ATOM      6  C   LIG    1       -1.773  -0.694   2.463  0.00  0.00    +0.090 A 
ATOM      7  C   LIG    1       -0.752  -1.488   2.969  0.00  0.00    +0.030 A 
ATOM      8  C   LIG    1       -0.368  -1.359   4.289  0.00  0.00    +0.040 A 
ATOM      9  C   LIG    1       -1.007  -0.449   5.111  0.00  0.00    +0.040 A 
ATOM     10  C   LIG    1       -2.028   0.339   4.612  0.00  0.00    +0.040 A 
ATOM     11  C   LIG    1       -2.412   0.219   3.291  0.00  0.00    +0.040 A 
ENDBRANCH   5   6
BRANCH   1  12
ATOM     12  S   LIG    1       -4.748  -1.772   1.611  0.00  0.00    +0.100 S 
BRANCH  12  13
ATOM     13  C   LIG    1       -5.914  -2.191   0.292  0.00  0.00    +0.100 C 
BRANCH  13  16
ATOM     14  N   LIG    1       -8.228  -3.043   0.101  0.00  0.00    -0.720 N 
ATOM     15  H   LIG    1       -8.132  -2.999  -0.863  0.00  0.00    +0.400 HD
ATOM     16  C   LIG    1       -7.207  -2.674   0.898  0.00  0.00    +0.540 C 
ATOM     17  O   LIG    1       -7.327  -2.729   2.104  0.00  0.00    -0.520 OA
BRANCH  14  19
ATOM     18  C   LIG    1      -10.081  -2.409   1.566  0.00  0.00    +0.040 C 
ATOM     19  C   LIG    1       -9.485  -3.513   0.690  0.00  0.00    +0.170 C 
ATOM     20  C   LIG    1       -9.215  -4.753   1.545  0.00  0.00    +0.040 C 
ATOM     21  C   LIG    1      -10.470  -3.866  -0.425  0.00  0.00    +0.040 C 
ENDBRANCH  14  19
ENDBRANCH  13  16
ENDBRANCH  12  13
ENDBRANCH   1  12
BRANCH   4  22
ATOM     22  C   LIG    1        0.002  -0.004   0.002  0.00  0.00    +0.240 C 
BRANCH  22  23
ATOM     23  S   LIG    1       -0.022   1.806   0.012  0.00  0.00    +0.040 S 
BRANCH  23  24
ATOM     24  C   LIG    1        1.708   2.135  -0.003  0.00  0.00    +0.080 A 
ATOM     25  N   LIG    1        2.630   1.233  -0.011  0.00  0.00    -0.470 NA
ATOM     26  C   LIG    1        3.914   1.643  -0.026  0.00  0.00    +0.090 A 
ATOM     27  C   LIG    1        5.089   0.864  -0.041  0.00  0.00    +0.080 A 
ATOM     28  C   LIG    1        6.323   1.466  -0.049  0.00  0.00    +0.040 A 
ATOM     29  C   LIG    1        6.433   2.848  -0.043  0.00  0.00    +0.040 A 
ATOM     30  C   LIG    1        5.298   3.630  -0.028  0.00  0.00    +0.060 A 
ATOM     31  C   LIG    1        4.039   3.036  -0.020  0.00  0.00    -0.170 A 
ATOM     32  S   LIG    1        2.425   3.741  -0.001  0.00  0.00    +0.110 S 
ENDBRANCH  23  24
ENDBRANCH  22  23
ENDBRANCH   4  22
TORSDOF 8
