REMARK  Name = ZINCpk00000xI8eC.0
REMARK                            x       y       z     vdW  Elec       q    Type
REMARK                         _______ _______ _______ _____ _____    ______ ____
ROOT
ATOM      1  C   LIG    1       -0.013   1.086   0.008  0.00  0.00    +0.260 C 
ATOM      2  C   LIG    1        1.425   1.617  -0.003  0.00  0.00    +0.280 C 
ATOM      3  N   LIG    1        2.057   1.273   1.281  0.00  0.00    -0.620 N 
ATOM      4  C   LIG    1        1.338   1.613   2.519  0.00  0.00    +0.260 C 
ATOM      5  C   LIG    1       -0.095   1.081   2.407  0.00  0.00    +0.230 C 
ATOM      6  C   LIG    1        3.259   0.664   1.321  0.00  0.00    +0.520 C 
ATOM      7  O   LIG    1        3.836   0.393   0.289  0.00  0.00    -0.530 OA
ATOM      8  O   LIG    1       -0.676   1.548   1.187  0.00  0.00    -0.350 OA
ENDROOT
BRANCH   1  13
ATOM      9  N   LIG    1       -1.051   0.864  -2.316  0.00  0.00    -0.470 N 
ATOM     10  C   LIG    1       -1.705   1.711  -3.147  0.00  0.00    +0.380 A 
ATOM     11  N   LIG    1       -1.763   2.871  -2.551  0.00  0.00    -0.290 NA
ATOM     12  N   LIG    1       -1.192   2.797  -1.402  0.00  0.00    -0.260 NA
ATOM     13  C   LIG    1       -0.744   1.586  -1.211  0.00  0.00    +0.170 A 
BRANCH   9  15
ATOM     14  C   LIG    1       -1.832  -1.423  -1.937  0.00  0.00    +0.040 C 
ATOM     15  C   LIG    1       -0.743  -0.547  -2.560  0.00  0.00    +0.310 C 
ENDBRANCH   9  15
ENDBRANCH   1  13
BRANCH   6  16
ATOM     16  C   LIG    1        3.886   0.322   2.648  0.00  0.00    +0.060 C 
BRANCH  16  17
ATOM     17  C   LIG    1        5.237  -0.357   2.413  0.00  0.00    +0.040 C 
BRANCH  17  18
ATOM     18  C   LIG    1        5.874  -0.705   3.760  0.00  0.00    +0.320 C 
BRANCH  18  19
ATOM     19  N   LIG    1        7.167  -1.355   3.536  0.00  0.00    -0.370 N 
ATOM     20  N   LIG    1        8.406  -0.709   3.430  0.00  0.00    -0.300 NA
ATOM     21  C   LIG    1        9.325  -1.619   3.232  0.00  0.00    +0.070 A 
ATOM     22  C   LIG    1        8.702  -2.871   3.205  0.00  0.00    -0.120 A 
ATOM     23  C   LIG    1       10.800  -1.362   3.061  0.00  0.00    +0.160 C 
ATOM     24  C   LIG    1        7.377  -2.681   3.400  0.00  0.00    +0.080 A 
ATOM     25  C   LIG    1        6.323  -3.757   3.453  0.00  0.00    +0.150 C 
ENDBRANCH  18  19
ENDBRANCH  17  18
ENDBRANCH  16  17
ENDBRANCH   6  16
TORSDOF 6
