REMARK  Name = ZINCvU0000000HVV.0
REMARK                            x       y       z     vdW  Elec       q    Type
REMARK                         _______ _______ _______ _____ _____    ______ ____
ROOT
ATOM      1  C   LIG    1        2.986  -2.985  -0.182  0.00  0.00    +0.100 C 
ATOM      2  C   LIG    1        1.671  -3.336  -0.204  0.00  0.00    +0.110 C 
ENDROOT
BRANCH   1   3
ATOM      3  C   LIG    1        4.020  -4.012  -0.335  0.00  0.00    +0.560 C 
ATOM      4  N   LIG    1        4.537  -4.272  -1.552  0.00  0.00    -0.610 N 
ATOM      5  C   LIG    1        4.152  -3.464  -2.717  0.00  0.00    +0.270 C 
ATOM      6  C   LIG    1        5.428  -2.932  -3.387  0.00  0.00    +0.010 C 
ATOM      7  C   LIG    1        6.352  -4.107  -3.715  0.00  0.00    +0.020 C 
ATOM      8  C   LIG    1        6.750  -4.822  -2.421  0.00  0.00    +0.010 C 
ATOM      9  C   LIG    1        5.493  -5.372  -1.740  0.00  0.00    +0.270 C 
ATOM     10  O   LIG    1        4.412  -4.630   0.638  0.00  0.00    -0.500 OA
ENDBRANCH   1   3
BRANCH   2  11
ATOM     11  C   LIG    1        0.672  -2.335  -0.165  0.00  0.00    +0.020 A 
ATOM     12  C   LIG    1       -0.690  -2.551  -0.080  0.00  0.00    +0.000 A 
ATOM     13  C   LIG    1       -1.298  -1.292  -0.066  0.00  0.00    -0.020 A 
ATOM     14  C   LIG    1       -0.300  -0.363  -0.149  0.00  0.00    +0.040 A 
ATOM     15  O   LIG    1        0.883  -1.003  -0.205  0.00  0.00    -0.160 OA
BRANCH  14  16
ATOM     16  C   LIG    1       -0.487   1.101  -0.167  0.00  0.00    -0.010 A 
ATOM     17  C   LIG    1       -1.774   1.643  -0.212  0.00  0.00    +0.060 A 
ATOM     18  C   LIG    1       -1.942   3.011  -0.225  0.00  0.00    +0.040 A 
ATOM     19  C   LIG    1       -0.838   3.848  -0.203  0.00  0.00    -0.030 A 
ATOM     20  C   LIG    1        0.440   3.317  -0.163  0.00  0.00    +0.040 A 
ATOM     21 CL   LIG    1       -1.059   5.570  -0.225  0.00  0.00    -0.060 Cl
ATOM     22  C   LIG    1        0.622   1.950  -0.145  0.00  0.00    +0.040 A 
ENDBRANCH  14  16
ENDBRANCH   2  11
BRANCH   1  25
ATOM     23  O   LIG    1        4.529  -2.123   1.806  0.00  0.00    -0.490 OA
ATOM     24  C   LIG    1        4.109  -1.280   1.038  0.00  0.00    +0.560 C 
ATOM     25  N   LIG    1        3.350  -1.645  -0.014  0.00  0.00    -0.670 N 
ATOM     26  H   LIG    1        3.057  -0.979  -0.655  0.00  0.00    +0.410 HD
BRANCH  24  27
ATOM     27  C   LIG    1        4.431   0.146   1.257  0.00  0.00    -0.130 A 
ATOM     28  C   LIG    1        3.886   1.124   0.423  0.00  0.00    +0.030 A 
ATOM     29  C   LIG    1        4.186   2.454   0.637  0.00  0.00    +0.000 A 
ATOM     30  C   LIG    1        5.033   2.818   1.669  0.00  0.00    +0.040 A 
ATOM     31  C   LIG    1        5.581   1.853   2.496  0.00  0.00    +0.010 A 
ATOM     32  C   LIG    1        5.285   0.520   2.296  0.00  0.00    +0.080 A 
ENDBRANCH  24  27
ENDBRANCH   1  25
TORSDOF 5
