REMARK  Name = ZINCrD000000BQyr.0
REMARK                            x       y       z     vdW  Elec       q    Type
REMARK                         _______ _______ _______ _____ _____    ______ ____
ROOT
ATOM      1  O   LIG    1       -0.690   8.047  -0.906  0.00  0.00    -0.580 OA
ATOM      2  C   LIG    1       -1.398   7.258  -1.502  0.00  0.00    +0.710 C 
ATOM      3  N   LIG    1       -2.433   7.707  -2.240  0.00  0.00    -0.630 N 
ATOM      4  C   LIG    1       -2.655   9.148  -2.422  0.00  0.00    +0.300 C 
ATOM      5  C   LIG    1       -4.088   9.486  -2.015  0.00  0.00    +0.020 C 
ATOM      6  C   LIG    1       -5.060   8.598  -2.794  0.00  0.00    +0.070 C 
ATOM      7  C   LIG    1       -4.794   7.129  -2.455  0.00  0.00    +0.020 C 
ATOM      8  C   LIG    1       -3.366   6.763  -2.871  0.00  0.00    +0.250 C 
ATOM      9  N   LIG    1       -1.148   5.936  -1.425  0.00  0.00    -0.740 N 
ATOM     10  H   LIG    1       -1.754   5.303  -1.840  0.00  0.00    +0.390 HD
ENDROOT
BRANCH   6  11
ATOM     11  C   LIG    1       -6.476   8.951  -2.418  0.00  0.00    -0.230 A 
ATOM     12  C   LIG    1       -7.434   9.403  -3.259  0.00  0.00    +0.240 A 
ATOM     13  N   LIG    1       -8.557   9.599  -2.537  0.00  0.00    -0.480 N 
ATOM     14  H   LIG    1       -9.407   9.918  -2.878  0.00  0.00    +0.440 HD
ATOM     15  N   LIG    1       -8.277   9.265  -1.206  0.00  0.00    -0.290 NA
ATOM     16  C   LIG    1       -7.029   8.878  -1.135  0.00  0.00    +0.240 A 
ENDBRANCH   6  11
BRANCH   9  17
ATOM     17  C   LIG    1        0.040   5.456  -0.714  0.00  0.00    +0.270 C 
ATOM     18  C   LIG    1       -0.256   5.288   0.794  0.00  0.00    +0.020 C 
ATOM     19  C   LIG    1        0.474   3.996   1.206  0.00  0.00    +0.190 C 
ATOM     20  N   LIG    1        1.165   3.486   0.002  0.00  0.00    -0.480 N 
ATOM     21  C   LIG    1        0.404   4.017  -1.158  0.00  0.00    +0.190 C 
BRANCH  20  22
ATOM     22  C   LIG    1        1.186   2.089  -0.010  0.00  0.00    +0.120 A 
ATOM     23  C   LIG    1       -0.006   1.376  -0.006  0.00  0.00    -0.010 A 
ATOM     24  C   LIG    1        0.016  -0.006  -0.018  0.00  0.00    +0.080 A 
ATOM     25  C   LIG    1        1.223  -0.680  -0.033  0.00  0.00    -0.080 A 
ATOM     26  C   LIG    1        2.415   0.028  -0.037  0.00  0.00    +0.120 A 
ATOM     27  F   LIG    1        3.593  -0.633  -0.051  0.00  0.00    -0.120 F 
ATOM     28 CL   LIG    1        1.246  -2.416  -0.048  0.00  0.00    -0.040 Cl
ATOM     29  C   LIG    1        2.398   1.411  -0.025  0.00  0.00    +0.030 A 
ENDBRANCH  20  22
ENDBRANCH   9  17
TORSDOF 3
