REMARK  Name = ZINCpk00000y6uHm.0
REMARK                            x       y       z     vdW  Elec       q    Type
REMARK                         _______ _______ _______ _____ _____    ______ ____
ROOT
ATOM      1  N   LIG    1       -3.852   3.654   5.681  0.00  0.00    -0.630 N 
ATOM      2  C   LIG    1       -4.026   2.663   6.568  0.00  0.00    +0.700 C 
ATOM      3  N   LIG    1       -2.882   2.051   6.927  0.00  0.00    -0.740 N 
ATOM      4  H   LIG    1       -2.795   1.346   7.588  0.00  0.00    +0.430 HD
ATOM      5  C   LIG    1       -1.795   2.639   6.148  0.00  0.00    +0.200 C 
ATOM      6  C   LIG    1       -0.518   2.800   6.901  0.00  0.00    +0.280 C 
ATOM      7  N   LIG    1       -0.252   4.155   7.346  0.00  0.00    -0.600 N 
ATOM      8  C   LIG    1       -0.613   5.304   6.529  0.00  0.00    +0.290 C 
ATOM      9  C   LIG    1       -2.013   5.191   6.005  0.00  0.00    +0.010 C 
ATOM     10  C   LIG    1        0.342   4.354   8.540  0.00  0.00    +0.560 C 
ATOM     11  O   LIG    1        0.640   5.480   8.891  0.00  0.00    -0.530 OA
ATOM     12  O   LIG    1       -5.115   2.345   7.005  0.00  0.00    -0.570 OA
ATOM     13  C   LIG    1       -2.398   3.838   5.451  0.00  0.00    +0.240 C 
ENDROOT
BRANCH  10  14
ATOM     14  C   LIG    1        0.630   3.207   9.421  0.00  0.00    -0.150 A 
ATOM     15  C   LIG    1        0.206   3.220  10.760  0.00  0.00    +0.140 A 
ATOM     16  N   LIG    1       -0.477   4.131  11.524  0.00  0.00    -0.590 N 
ATOM     17  H   LIG    1       -0.799   4.990  11.210  0.00  0.00    +0.420 HD
ATOM     18  C   LIG    1       -0.636   3.649  12.795  0.00  0.00    +0.220 A 
ATOM     19  C   LIG    1       -0.074   2.434  12.897  0.00  0.00    -0.050 A 
ATOM     20  C   LIG    1        0.491   2.115  11.583  0.00  0.00    -0.110 A 
ATOM     21  C   LIG    1        1.186   1.021  11.067  0.00  0.00    +0.090 A 
ATOM     22  C   LIG    1        1.595   1.022   9.750  0.00  0.00    -0.030 A 
ATOM     23  C   LIG    1        1.318   2.100   8.928  0.00  0.00    +0.060 A 
ENDBRANCH  10  14
BRANCH   1  24
ATOM     24  C   LIG    1       -4.922   4.430   5.050  0.00  0.00    +0.340 C 
BRANCH  24  25
ATOM     25  C   LIG    1       -5.345   3.749   3.747  0.00  0.00    +0.150 C 
BRANCH  25  27
ATOM     26  C   LIG    1       -6.357   1.754   2.887  0.00  0.00    +0.200 C 
ATOM     27  O   LIG    1       -5.926   2.477   4.041  0.00  0.00    -0.370 OA
ENDBRANCH  25  27
ENDBRANCH  24  25
ENDBRANCH   1  24
TORSDOF 4
