REMARK  Name = ZINCah0000001hNb.0
REMARK                            x       y       z     vdW  Elec       q    Type
REMARK                         _______ _______ _______ _____ _____    ______ ____
ROOT
ATOM      1  N   LIG    1        0.629   3.161   0.012  0.00  0.00    -0.420 N 
ATOM      2  C   LIG    1        1.078   1.885   0.002  0.00  0.00    +0.160 A 
ATOM      3  C   LIG    1       -0.013   1.076   0.008  0.00  0.00    +0.150 A 
ATOM      4  N   LIG    1       -1.101   1.838   0.017  0.00  0.00    -0.430 NA
ATOM      5  C   LIG    1       -0.738   3.107   0.025  0.00  0.00    +0.100 A 
ENDROOT
BRANCH   5   6
ATOM      6  C   LIG    1       -1.644   4.259   0.039  0.00  0.00    +0.440 C 
ATOM      7  O   LIG    1       -1.193   5.385   0.041  0.00  0.00    -0.460 OA
ATOM      8  C   LIG    1       -3.135   4.045   0.051  0.00  0.00    +0.120 C 
ENDBRANCH   5   6
BRANCH   1  10
ATOM      9  C   LIG    1        1.648   4.858   1.449  0.00  0.00    +0.050 C 
ATOM     10  C   LIG    1        1.452   4.373   0.011  0.00  0.00    +0.300 C 
ENDBRANCH   1  10
TORSDOF 2
