REMARK  Name = ZINCvU0000000BX3.0
REMARK                            x       y       z     vdW  Elec       q    Type
REMARK                         _______ _______ _______ _____ _____    ______ ____
ROOT
ATOM      1  C   LIG    1       -3.064  -2.534  -4.010  0.00  0.00    +0.320 A 
ATOM      2  N   LIG    1       -2.557  -1.517  -3.371  0.00  0.00    -0.250 NA
ATOM      3  N   LIG    1       -1.406  -1.955  -2.702  0.00  0.00    -0.370 N 
ATOM      4  C   LIG    1       -1.252  -3.267  -2.976  0.00  0.00    +0.470 A 
ATOM      5  S   LIG    1        0.008  -4.277  -2.406  0.00  0.00    -0.580 S 
ATOM      6  N   LIG    1       -2.270  -3.640  -3.777  0.00  0.00    -0.480 N 
ENDROOT
BRANCH   1  10
ATOM      7  C   LIG    1       -6.571  -2.461  -6.409  0.00  0.00    +0.160 A 
ATOM      8  C   LIG    1       -6.475  -1.635  -5.297  0.00  0.00    -0.010 A 
ATOM      9  C   LIG    1       -5.339  -1.656  -4.517  0.00  0.00    +0.120 A 
ATOM     10  C   LIG    1       -4.285  -2.509  -4.845  0.00  0.00    -0.080 A 
ATOM     11  C   LIG    1       -4.383  -3.333  -5.967  0.00  0.00    +0.090 A 
ATOM     12  C   LIG    1       -5.524  -3.311  -6.739  0.00  0.00    -0.070 A 
BRANCH   7  14
ATOM     13  C   LIG    1       -7.724  -3.312  -8.305  0.00  0.00    +0.250 C 
ATOM     14  O   LIG    1       -7.692  -2.437  -7.176  0.00  0.00    -0.310 OA
ENDBRANCH   7  14
ENDBRANCH   1  10
BRANCH   6  15
ATOM     15  C   LIG    1       -2.492  -4.985  -4.313  0.00  0.00    +0.250 C 
ATOM     16  C   LIG    1       -2.545  -5.990  -3.161  0.00  0.00    +0.060 C 
ATOM     17  C   LIG    1       -1.347  -5.353  -5.258  0.00  0.00    +0.060 C 
ENDBRANCH   6  15
BRANCH   3  18
ATOM     18  C   LIG    1       -0.528  -1.136  -1.863  0.00  0.00    +0.520 C 
BRANCH  18  19
ATOM     19  N   LIG    1       -1.181  -0.882  -0.572  0.00  0.00    -0.510 NA
ATOM     20  C   LIG    1       -1.937  -2.076  -0.114  0.00  0.00    +0.160 C 
ATOM     21  C   LIG    1       -2.090  -1.836   1.409  0.00  0.00    +0.030 C 
ATOM     22  C   LIG    1       -0.738  -1.193   1.795  0.00  0.00    +0.040 C 
ATOM     23  C   LIG    1       -0.181  -0.609   0.483  0.00  0.00    +0.190 C 
BRANCH  23  24
ATOM     24  C   LIG    1        0.019   0.878   0.628  0.00  0.00    -0.120 A 
ATOM     25  C   LIG    1       -1.063   1.733   0.530  0.00  0.00    +0.090 A 
ATOM     26  C   LIG    1       -0.883   3.095   0.668  0.00  0.00    -0.080 A 
ATOM     27  C   LIG    1        0.387   3.607   0.893  0.00  0.00    +0.130 A 
ATOM     28  C   LIG    1        1.472   2.747   0.985  0.00  0.00    -0.020 A 
ATOM     29  C   LIG    1        1.286   1.385   0.853  0.00  0.00    +0.060 A 
BRANCH  27  30
ATOM     30  O   LIG    1        0.568   4.947   1.024  0.00  0.00    -0.320 OA
ATOM     31  C   LIG    1       -0.594   5.772   0.918  0.00  0.00    +0.250 C 
ENDBRANCH  27  30
ENDBRANCH  23  24
ENDBRANCH  18  19
ENDBRANCH   3  18
TORSDOF 7
