REMARK  Name = ZINCnE000001OwzM.0
REMARK                            x       y       z     vdW  Elec       q    Type
REMARK                         _______ _______ _______ _____ _____    ______ ____
ROOT
ATOM      1  C   LIG    1        0.013   0.107   0.044  0.00  0.00    +0.340 C 
ENDROOT
BRANCH   1   4
ATOM      2  C   LIG    1        3.075  -0.358   0.303  0.00  0.00    +0.130 C 
ATOM      3  C   LIG    1        2.035  -0.652   1.353  0.00  0.00    -0.180 A 
ATOM      4  C   LIG    1        0.713  -0.456   1.254  0.00  0.00    +0.020 A 
ATOM      5  O   LIG    1        0.103  -0.830   2.392  0.00  0.00    -0.170 OA
ATOM      6  C   LIG    1        0.997  -1.297   3.287  0.00  0.00    +0.050 A 
ATOM      7  C   LIG    1        0.884  -1.795   4.578  0.00  0.00    +0.080 A 
ATOM      8  C   LIG    1        2.010  -2.200   5.262  0.00  0.00    +0.020 A 
ATOM      9  C   LIG    1        3.265  -2.114   4.673  0.00  0.00    +0.080 A 
ATOM     10  C   LIG    1        3.399  -1.622   3.392  0.00  0.00    +0.030 A 
ATOM     11  F   LIG    1        4.359  -2.515   5.358  0.00  0.00    -0.140 F 
ATOM     12  C   LIG    1        2.267  -1.210   2.691  0.00  0.00    -0.100 A 
ENDBRANCH   1   4
BRANCH   1  13
ATOM     13  N   LIG    1       -0.194   1.550   0.225  0.00  0.00    -0.520 NA
ATOM     14  C   LIG    1       -0.854   1.830   1.507  0.00  0.00    +0.220 C 
ATOM     15  C   LIG    1       -1.184   3.322   1.597  0.00  0.00    -0.070 C 
ATOM     16  C   LIG    1        0.109   4.133   1.480  0.00  0.00    +0.030 C 
ATOM     17  C   LIG    1        0.802   3.787   0.159  0.00  0.00    +0.290 C 
ATOM     18  F   LIG    1       -0.025   4.147  -0.911  0.00  0.00    -0.190 F 
ATOM     19  F   LIG    1        2.012   4.484   0.069  0.00  0.00    -0.210 F 
ATOM     20  C   LIG    1        1.074   2.282   0.110  0.00  0.00    +0.180 C 
BRANCH  15  21
ATOM     21  C   LIG    1       -1.843   3.613   2.921  0.00  0.00    +0.500 C 
ATOM     22  O   LIG    1       -2.034   2.711   3.718  0.00  0.00    -0.690 OA
ATOM     23  O   LIG    1       -2.184   4.751   3.194  0.00  0.00    -0.690 OA
ENDBRANCH  15  21
ENDBRANCH   1  13
TORSDOF 3
