REMARK  Name = ZINCrH000004uBIl.0
REMARK                            x       y       z     vdW  Elec       q    Type
REMARK                         _______ _______ _______ _____ _____    ______ ____
ROOT
ATOM      1  C   LIG    1       -3.277  -2.912   4.483  0.00  0.00    -0.090 A 
ATOM      2  C   LIG    1       -4.457  -3.014   3.738  0.00  0.00    +0.030 A 
ATOM      3  C   LIG    1       -4.675  -2.193   2.668  0.00  0.00    +0.100 A 
ATOM      4  C   LIG    1       -3.717  -1.246   2.313  0.00  0.00    -0.180 A 
ATOM      5  C   LIG    1       -3.906  -0.339   1.169  0.00  0.00    +0.550 A 
ATOM      6  N   LIG    1       -2.915   0.535   0.898  0.00  0.00    -0.540 N 
ATOM      7  C   LIG    1       -3.031   1.466  -0.231  0.00  0.00    +0.300 C 
ATOM      8  C   LIG    1       -2.125   0.991  -1.365  0.00  0.00    +0.020 C 
ATOM      9  C   LIG    1       -0.731   1.581  -1.235  0.00  0.00    +0.010 C 
ATOM     10  C   LIG    1       -0.013   1.086   0.008  0.00  0.00    +0.040 C 
ATOM     11  C   LIG    1       -0.710   1.570   1.277  0.00  0.00    +0.130 C 
ATOM     12  C   LIG    1       -1.782   0.575   1.662  0.00  0.00    +0.410 A 
ATOM     13  N   LIG    1       -1.599  -0.207   2.683  0.00  0.00    -0.520 NA
ATOM     14  O   LIG    1       -4.918  -0.375   0.493  0.00  0.00    -0.510 OA
ATOM     15  C   LIG    1       -2.519  -1.132   3.054  0.00  0.00    +0.150 A 
ATOM     16  C   LIG    1       -2.308  -1.974   4.147  0.00  0.00    +0.110 A 
ENDROOT
BRANCH   1  18
ATOM     17  O   LIG    1       -2.036  -3.727   6.290  0.00  0.00    -0.520 OA
ATOM     18  C   LIG    1       -3.059  -3.811   5.640  0.00  0.00    +0.560 C 
ATOM     19  N   LIG    1       -3.995  -4.722   5.971  0.00  0.00    -0.720 N 
ATOM     20  H   LIG    1       -4.811  -4.789   5.452  0.00  0.00    +0.400 HD
BRANCH  19  21
ATOM     21  C   LIG    1       -3.779  -5.611   7.115  0.00  0.00    +0.320 C 
BRANCH  21  22
ATOM     22  C   LIG    1       -4.966  -6.527   7.270  0.00  0.00    -0.110 A 
ATOM     23  C   LIG    1       -6.031  -6.150   8.066  0.00  0.00    +0.050 A 
ATOM     24  C   LIG    1       -7.122  -6.988   8.204  0.00  0.00    +0.030 A 
ATOM     25  C   LIG    1       -7.142  -8.209   7.555  0.00  0.00    -0.030 A 
ATOM     26  C   LIG    1       -6.073  -8.589   6.763  0.00  0.00    +0.030 A 
ATOM     27 CL   LIG    1       -8.508  -9.265   7.735  0.00  0.00    -0.060 Cl
ATOM     28  C   LIG    1       -4.986  -7.748   6.621  0.00  0.00    +0.050 A 
ENDBRANCH  21  22
ENDBRANCH  19  21
ENDBRANCH   1  18
TORSDOF 3
