REMARK  Name = ZINCkj000005h6zd.1
REMARK                            x       y       z     vdW  Elec       q    Type
REMARK                         _______ _______ _______ _____ _____    ______ ____
ROOT
ATOM      1  C   LIG    1        1.436   1.379   2.489  0.00  0.00    +0.240 C 
ATOM      2  C   LIG    1        2.131   0.945   1.195  0.00  0.00    +0.060 C 
ATOM      3  C   LIG    1        1.366   1.511  -0.003  0.00  0.00    +0.260 C 
ATOM      4  N   LIG    1       -0.012   1.005   0.008  0.00  0.00    -0.380 N 
ATOM      5  C   LIG    1       -0.707   1.477   1.211  0.00  0.00    +0.270 C 
ATOM      6  H   LIG    1        0.002  -0.004   0.002  0.00  0.00    +0.420 HD
ATOM      7  C   LIG    1       -0.022   0.909   2.456  0.00  0.00    +0.050 C 
ENDROOT
BRANCH   1   9
ATOM      8  C   LIG    1        2.046   1.365   4.848  0.00  0.00    +0.520 C 
ATOM      9  N   LIG    1        2.118   0.777   3.637  0.00  0.00    -0.730 N 
ATOM     10  H   LIG    1        2.623  -0.044   3.526  0.00  0.00    +0.410 HD
ATOM     11  O   LIG    1        1.415   2.391   4.987  0.00  0.00    -0.510 OA
BRANCH   8  12
ATOM     12  C   LIG    1        2.748   0.746   6.029  0.00  0.00    +0.210 C 
BRANCH  12  14
ATOM     13  C   LIG    1        2.982   0.883   8.435  0.00  0.00    +0.200 C 
ATOM     14  N   LIG    1        2.517   1.570   7.223  0.00  0.00    -0.530 NA
ATOM     15  C   LIG    1        3.156   2.886   7.086  0.00  0.00    +0.190 C 
ENDBRANCH  12  14
ENDBRANCH   8  12
ENDBRANCH   1   9
BRANCH   4  16
ATOM     16  C   LIG    1       -0.719   1.490  -1.185  0.00  0.00    +0.320 C 
BRANCH  16  17
ATOM     17  C   LIG    1       -0.084   0.904  -2.419  0.00  0.00    -0.160 A 
ATOM     18  C   LIG    1        0.948   1.573  -3.050  0.00  0.00    +0.030 A 
ATOM     19  C   LIG    1        1.534   1.033  -4.179  0.00  0.00    +0.030 A 
ATOM     20  C   LIG    1        1.081  -0.172  -4.684  0.00  0.00    +0.060 A 
ATOM     21  C   LIG    1        0.045  -0.838  -4.057  0.00  0.00    +0.030 A 
ATOM     22  C   LIG    1       -0.537  -0.301  -2.924  0.00  0.00    +0.040 A 
ENDBRANCH  16  17
ENDBRANCH   4  16
TORSDOF 5
