REMARK  Name = ZINC9p0000006lie.0
REMARK                            x       y       z     vdW  Elec       q    Type
REMARK                         _______ _______ _______ _____ _____    ______ ____
ROOT
ATOM      1  C   LIG    1        3.210   2.774   1.419  0.00  0.00    +0.090 C 
ATOM      2  C   LIG    1        1.952   1.907   1.337  0.00  0.00    +0.160 C 
ATOM      3  C   LIG    1        0.949   2.365   2.399  0.00  0.00    +0.040 C 
ATOM      4  C   LIG    1        0.533   1.159   3.252  0.00  0.00    +0.040 C 
ATOM      5  C   LIG    1       -0.424   0.283   2.445  0.00  0.00    +0.010 C 
ATOM      6  C   LIG    1        0.359  -0.509   1.398  0.00  0.00    +0.020 C 
ATOM      7  C   LIG    1        0.002  -0.004   0.002  0.00  0.00    +0.060 C 
ATOM      8  C   LIG    1       -0.019   1.527   0.010  0.00  0.00    +0.240 C 
ATOM      9  N   LIG    1        1.357   2.037   0.000  0.00  0.00    -0.500 N 
ATOM     10  H   LIG    1        1.352   3.009  -0.271  0.00  0.00    +0.430 HD
ATOM     11  H   LIG    1        1.905   1.509  -0.663  0.00  0.00    +0.430 HD
ENDROOT
TORSDOF 0
