REMARK  Name = ZINCrg000000tQXO.1
REMARK                            x       y       z     vdW  Elec       q    Type
REMARK                         _______ _______ _______ _____ _____    ______ ____
ROOT
ATOM      1  C   LIG    1        3.502  -1.644  -1.492  0.00  0.00    -0.140 A 
ATOM      2  C   LIG    1        2.436  -2.524  -1.297  0.00  0.00    +0.030 A 
ATOM      3  C   LIG    1        2.489  -3.796  -1.829  0.00  0.00    +0.030 A 
ATOM      4  C   LIG    1        3.600  -4.203  -2.546  0.00  0.00    -0.050 A 
ATOM      5  C   LIG    1        4.662  -3.337  -2.740  0.00  0.00    +0.010 A 
ATOM      6  C   LIG    1        4.620  -2.061  -2.217  0.00  0.00    +0.070 A 
ENDROOT
BRANCH   1  13
ATOM      7  O   LIG    1       -0.665   0.567  -2.791  0.00  0.00    -0.540 OA
ATOM      8  C   LIG    1        0.259   0.880  -2.071  0.00  0.00    +0.510 C 
ATOM      9  C   LIG    1        1.035  -0.210  -1.383  0.00  0.00    +0.330 C 
ATOM     10  N   LIG    1        2.269   0.363  -0.825  0.00  0.00    -0.620 N 
ATOM     11  C   LIG    1        2.162   1.667  -0.149  0.00  0.00    +0.300 C 
ATOM     12  C   LIG    1        1.673   2.696  -1.170  0.00  0.00    +0.250 C 
ATOM     13  C   LIG    1        3.450  -0.279  -0.928  0.00  0.00    +0.570 C 
ATOM     14  O   LIG    1        4.472   0.265  -0.558  0.00  0.00    -0.520 OA
ATOM     15  N   LIG    1        0.541   2.176  -1.926  0.00  0.00    -0.720 N 
ATOM     16  H   LIG    1       -0.046   2.816  -2.357  0.00  0.00    +0.400 HD
ENDBRANCH   1  13
BRANCH   4  17
ATOM     17  C   LIG    1        3.654  -5.596  -3.120  0.00  0.00    +0.220 C 
BRANCH  17  18
ATOM     18  N   LIG    1        4.257  -6.506  -2.138  0.00  0.00    -0.680 NA
ATOM     19  H   LIG    1        5.170  -6.181  -1.856  0.00  0.00    +0.350 HD
BRANCH  18  20
ATOM     20  C   LIG    1        4.326  -7.877  -2.663  0.00  0.00    +0.260 C 
BRANCH  20  21
ATOM     21  C   LIG    1        4.949  -8.780  -1.631  0.00  0.00    -0.230 A 
ATOM     22  C   LIG    1        4.288  -9.466  -0.670  0.00  0.00    +0.260 A 
ATOM     23  N   LIG    1        5.201 -10.153   0.047  0.00  0.00    -0.380 N 
ATOM     24  N   LIG    1        6.466  -9.880  -0.490  0.00  0.00    -0.280 NA
ATOM     25  C   LIG    1        6.313  -9.062  -1.499  0.00  0.00    +0.240 A 
BRANCH  23  26
ATOM     26  C   LIG    1        4.920 -11.030   1.187  0.00  0.00    +0.330 C 
BRANCH  26  27
ATOM     27  C   LIG    1        5.516 -12.415   0.924  0.00  0.00    +0.370 C 
ATOM     28  F   LIG    1        5.151 -13.284   1.958  0.00  0.00    -0.200 F 
ATOM     29  F   LIG    1        6.911 -12.318   0.867  0.00  0.00    -0.190 F 
ENDBRANCH  26  27
ENDBRANCH  23  26
ENDBRANCH  20  21
ENDBRANCH  18  20
ENDBRANCH  17  18
ENDBRANCH   4  17
TORSDOF 7
