REMARK  Name = ZINCqH0000001yaM.0
REMARK                            x       y       z     vdW  Elec       q    Type
REMARK                         _______ _______ _______ _____ _____    ______ ____
ROOT
ATOM      1  O   LIG    1       -0.054   8.277  -0.802  0.00  0.00    -0.350 OA
ENDROOT
BRANCH   1   2
ATOM      2  C   LIG    1        0.228   9.433  -0.172  0.00  0.00    +0.510 C 
ATOM      3  O   LIG    1        1.333   9.927  -0.275  0.00  0.00    -0.480 OA
BRANCH   2   9
ATOM      4  C   LIG    1       -0.532  11.305   1.315  0.00  0.00    +0.140 A 
ATOM      5  C   LIG    1       -1.539  11.898   2.065  0.00  0.00    +0.180 A 
ATOM      6  N   LIG    1       -2.728  11.340   2.158  0.00  0.00    -0.420 NA
ATOM      7  C   LIG    1       -3.022  10.208   1.548  0.00  0.00    +0.220 A 
ATOM      8  C   LIG    1       -2.086   9.551   0.776  0.00  0.00    +0.090 A 
ATOM      9  C   LIG    1       -0.806  10.101   0.644  0.00  0.00    -0.120 A 
BRANCH   4  10
ATOM     10  O   LIG    1        0.693  11.880   1.226  0.00  0.00    -0.270 OA
BRANCH  10  12
ATOM     11  C   LIG    1        1.175  12.988   3.319  0.00  0.00    +0.030 C 
ATOM     12  C   LIG    1        0.852  13.164   1.834  0.00  0.00    +0.150 C 
ATOM     13  C   LIG    1        1.996  13.914   1.149  0.00  0.00    +0.070 C 
ENDBRANCH  10  12
ENDBRANCH   4  10
ENDBRANCH   2   9
ENDBRANCH   1   2
BRANCH   1  14
ATOM     14  C   LIG    1        1.010   7.676  -1.586  0.00  0.00    +0.180 C 
ATOM     15  C   LIG    1        0.946   8.204  -3.021  0.00  0.00    +0.040 C 
BRANCH  14  16
ATOM     16  C   LIG    1        0.842   6.155  -1.594  0.00  0.00    +0.060 C 
BRANCH  16  17
ATOM     17  C   LIG    1        1.030   5.614  -0.175  0.00  0.00    +0.080 C 
BRANCH  17  18
ATOM     18  C   LIG    1        0.864   4.116  -0.183  0.00  0.00    -0.070 A 
ATOM     19  C   LIG    1       -0.385   3.559   0.017  0.00  0.00    +0.040 A 
ATOM     20  C   LIG    1       -0.543   2.186   0.006  0.00  0.00    +0.040 A 
ATOM     21  C   LIG    1        0.553   1.364  -0.198  0.00  0.00    +0.030 A 
ATOM     22  O   LIG    1        0.668   0.005  -0.251  0.00  0.00    -0.310 OA
ATOM     23  C   LIG    1        2.071  -0.270  -0.081  0.00  0.00    +0.430 C 
ATOM     24  O   LIG    1        2.715   0.917  -0.580  0.00  0.00    -0.310 OA
ATOM     25  C   LIG    1        1.812   1.925  -0.400  0.00  0.00    +0.030 A 
ATOM     26  C   LIG    1        1.962   3.302  -0.391  0.00  0.00    +0.030 A 
ENDBRANCH  17  18
ENDBRANCH  16  17
ENDBRANCH  14  16
ENDBRANCH   1  14
TORSDOF 8
