REMARK  Name = ZINCpe000000W4oj.0
REMARK                            x       y       z     vdW  Elec       q    Type
REMARK                         _______ _______ _______ _____ _____    ______ ____
ROOT
ATOM      1  N   LIG    1       -0.819   2.041   0.983  0.00  0.00    -1.100 NA
ATOM      2  H   LIG    1       -1.651   2.526   0.866  0.00  0.00    +0.430 HD
ENDROOT
BRANCH   1   3
ATOM      3  S   LIG    1       -0.238   1.750   2.507  0.00  0.00    +2.690 S 
ATOM      4  O   LIG    1        0.096   0.369   2.552  0.00  0.00    -0.950 OA
ATOM      5  O   LIG    1       -1.153   2.358   3.408  0.00  0.00    -0.950 OA
BRANCH   3  10
ATOM      6  C   LIG    1        2.462   4.628   3.261  0.00  0.00    -0.100 A 
ATOM      7  C   LIG    1        3.656   4.024   2.913  0.00  0.00    +0.110 A 
ATOM      8  C   LIG    1        3.660   2.723   2.441  0.00  0.00    -0.060 A 
ATOM      9  C   LIG    1        2.471   2.027   2.322  0.00  0.00    +0.140 A 
ATOM     10  C   LIG    1        1.278   2.634   2.664  0.00  0.00    -0.670 A 
ATOM     11 CL   LIG    1        5.159   1.964   2.003  0.00  0.00    -0.050 Cl
ATOM     12  C   LIG    1        1.274   3.933   3.136  0.00  0.00    +0.160 A 
BRANCH   6  13
ATOM     13  C   LIG    1        2.457   6.044   3.776  0.00  0.00    +0.240 C 
BRANCH  13  15
ATOM     14  C   LIG    1        2.597   7.335   5.790  0.00  0.00    +0.210 C 
ATOM     15  O   LIG    1        2.591   6.035   5.198  0.00  0.00    -0.380 OA
ENDBRANCH  13  15
ENDBRANCH   6  13
ENDBRANCH   3  10
ENDBRANCH   1   3
BRANCH   1  16
ATOM     16  C   LIG    1       -0.077   1.566  -0.187  0.00  0.00    +0.250 C 
BRANCH  16  17
ATOM     17  C   LIG    1       -0.975   1.634  -1.423  0.00  0.00    +0.070 C 
ATOM     18  C   LIG    1       -2.277   0.874  -1.152  0.00  0.00    +0.250 C 
ATOM     19  O   LIG    1       -1.979  -0.506  -0.926  0.00  0.00    -0.370 OA
ATOM     20  C   LIG    1       -1.307  -1.136  -2.020  0.00  0.00    +0.220 C 
ATOM     21  C   LIG    1        0.004  -0.397  -2.300  0.00  0.00    +0.100 C 
ATOM     22  C   LIG    1        0.690  -1.018  -3.519  0.00  0.00    +0.050 C 
ATOM     23  N   LIG    1       -0.284   1.020  -2.567  0.00  0.00    -0.520 NA
ATOM     24  C   LIG    1        0.943   1.756  -2.896  0.00  0.00    +0.190 C 
BRANCH  17  25
ATOM     25  C   LIG    1       -1.294   3.095  -1.743  0.00  0.00    +0.200 C 
BRANCH  25  26
ATOM     26  O   LIG    1       -2.094   3.649  -0.696  0.00  0.00    -0.570 OA
ATOM     27  H   LIG    1       -2.334   4.575  -0.833  0.00  0.00    +0.390 HD
ENDBRANCH  25  26
ENDBRANCH  17  25
ENDBRANCH  16  17
ENDBRANCH   1  16
TORSDOF 8
