REMARK  Name = ZINCnE000001LwkL.1
REMARK                            x       y       z     vdW  Elec       q    Type
REMARK                         _______ _______ _______ _____ _____    ______ ____
ROOT
ATOM      1  C   LIG    1       -2.906  -3.119  -1.408  0.00  0.00    +0.470 C 
ATOM      2  N   LIG    1       -4.046  -3.798  -1.647  0.00  0.00    -0.690 NA
ATOM      3  O   LIG    1       -2.239  -2.710  -2.334  0.00  0.00    -0.560 OA
ENDROOT
BRANCH   2   4
ATOM      4  C   LIG    1       -4.455  -4.028  -2.951  0.00  0.00    +0.400 A 
ATOM      5  N   LIG    1       -3.823  -3.632  -4.000  0.00  0.00    -0.560 NA
ATOM      6  C   LIG    1       -4.346  -3.937  -5.205  0.00  0.00    +0.130 A 
ATOM      7  C   LIG    1       -3.848  -3.623  -6.487  0.00  0.00    +0.040 A 
ATOM      8  C   LIG    1       -4.527  -4.016  -7.613  0.00  0.00    -0.060 A 
ATOM      9  C   LIG    1       -5.717  -4.729  -7.509  0.00  0.00    +0.080 A 
ATOM     10  C   LIG    1       -6.222  -5.046  -6.263  0.00  0.00    +0.030 A 
ATOM     11  C   LIG    1       -5.543  -4.653  -5.112  0.00  0.00    -0.180 A 
ATOM     12  S   LIG    1       -5.915  -4.895  -3.407  0.00  0.00    -0.030 S 
BRANCH   9  13
ATOM     13  O   LIG    1       -6.382  -5.113  -8.631  0.00  0.00    -0.320 OA
ATOM     14  C   LIG    1       -5.801  -4.750  -9.885  0.00  0.00    +0.220 C 
ENDBRANCH   9  13
ENDBRANCH   2   4
BRANCH   1  15
ATOM     15  C   LIG    1       -2.462  -2.869   0.010  0.00  0.00    +0.100 C 
BRANCH  15  20
ATOM     16  C   LIG    1        0.002  -0.004   0.002  0.00  0.00    +0.120 A 
ATOM     17  C   LIG    1        1.212  -0.682  -0.019  0.00  0.00    -0.100 A 
ATOM     18  C   LIG    1        1.228  -2.064  -0.022  0.00  0.00    +0.040 A 
ATOM     19  C   LIG    1        0.040  -2.770  -0.014  0.00  0.00    -0.020 A 
ATOM     20  C   LIG    1       -1.168  -2.096   0.002  0.00  0.00    -0.010 A 
ATOM     21  C   LIG    1       -1.189  -0.715   0.010  0.00  0.00    -0.010 A 
BRANCH  16  23
ATOM     22  C   LIG    1        1.248   2.021   0.001  0.00  0.00    +0.230 C 
ATOM     23  O   LIG    1       -0.016   1.355   0.009  0.00  0.00    -0.320 OA
ENDBRANCH  16  23
ENDBRANCH  15  20
ENDBRANCH   1  15
TORSDOF 5
