REMARK  Name = ZINC650000002F8l.0
REMARK                            x       y       z     vdW  Elec       q    Type
REMARK                         _______ _______ _______ _____ _____    ______ ____
ROOT
ATOM      1  C   LIG    1        2.513   3.717  -0.002  0.00  0.00    +0.550 C 
ENDROOT
BRANCH   1   2
ATOM      2  N   LIG    1        3.102   4.000  -1.151  0.00  0.00    -0.750 NA
ATOM      3  H   LIG    1        3.983   4.407  -1.157  0.00  0.00    +0.430 HD
ATOM      4  H   LIG    1        2.654   3.801  -1.988  0.00  0.00    +0.450 HD
ENDBRANCH   1   2
BRANCH   1   5
ATOM      5  N   LIG    1        3.124   3.988   1.138  0.00  0.00    -0.750 NA
ATOM      6  H   LIG    1        2.692   3.780   1.982  0.00  0.00    +0.450 HD
ATOM      7  H   LIG    1        4.005   4.394   1.132  0.00  0.00    +0.430 HD
ENDBRANCH   1   5
BRANCH   1   8
ATOM      8  C   LIG    1        1.145   3.085   0.008  0.00  0.00    +0.150 C 
BRANCH   8   9
ATOM      9  C   LIG    1        1.286   1.562  -0.002  0.00  0.00    +0.200 C 
BRANCH   9  10
ATOM     10  O   LIG    1       -0.011   0.963   0.007  0.00  0.00    -0.560 OA
ATOM     11  H   LIG    1        0.002  -0.004   0.002  0.00  0.00    +0.400 HD
ENDBRANCH   9  10
ENDBRANCH   8   9
ENDBRANCH   1   8
TORSDOF 5
