REMARK  Name = ZINCqH0000002qcw.0
REMARK                            x       y       z     vdW  Elec       q    Type
REMARK                         _______ _______ _______ _____ _____    ______ ____
ROOT
ATOM      1  C   LIG    1       -0.108   6.262   0.035  0.00  0.00    +0.460 A 
ATOM      2  N   LIG    1        1.177   6.063   0.021  0.00  0.00    -0.560 NA
ATOM      3  C   LIG    1        1.735   4.832   0.010  0.00  0.00    +0.560 A 
ATOM      4  C   LIG    1        0.783   3.700   0.014  0.00  0.00    -0.230 A 
ATOM      5  C   LIG    1       -0.580   3.975   0.029  0.00  0.00    +0.050 A 
ATOM      6  S   LIG    1       -1.484   2.484   0.037  0.00  0.00    +0.180 S 
ATOM      7  C   LIG    1       -0.018   1.513   0.010  0.00  0.00    -0.200 A 
ATOM      8  C   LIG    1        0.002  -0.004   0.002  0.00  0.00    +0.120 C 
ATOM      9  C   LIG    1        1.392  -0.478  -0.429  0.00  0.00    +0.030 C 
ATOM     10  C   LIG    1        2.446   0.252   0.409  0.00  0.00    +0.020 C 
ATOM     11  C   LIG    1        2.491   1.721  -0.014  0.00  0.00    +0.110 C 
ATOM     12  C   LIG    1        1.076   2.285   0.004  0.00  0.00    -0.030 A 
ATOM     13  O   LIG    1        2.944   4.666  -0.002  0.00  0.00    -0.470 OA
ATOM     14  N   LIG    1       -1.034   5.278   0.040  0.00  0.00    -0.590 N 
ATOM     15  H   LIG    1       -1.983   5.479   0.051  0.00  0.00    +0.430 HD
ENDROOT
BRANCH   1  16
ATOM     16  C   LIG    1       -0.599   7.687   0.045  0.00  0.00    +0.140 C 
BRANCH  16  17
ATOM     17  S   LIG    1        0.822   8.815   0.035  0.00  0.00    -0.060 S 
BRANCH  17  18
ATOM     18  C   LIG    1        0.042  10.453   0.050  0.00  0.00    +0.050 C 
BRANCH  18  20
ATOM     19  N   LIG    1        0.762  12.819   0.051  0.00  0.00    -0.610 N 
ATOM     20  C   LIG    1        1.109  11.517   0.043  0.00  0.00    +0.530 C 
ATOM     21  O   LIG    1        2.280  11.202   0.029  0.00  0.00    -0.510 OA
BRANCH  19  22
ATOM     22  C   LIG    1       -0.653  13.200   0.067  0.00  0.00    +0.260 C 
ATOM     23  C   LIG    1       -1.130  13.327   1.515  0.00  0.00    +0.020 C 
ENDBRANCH  19  22
BRANCH  19  24
ATOM     24  C   LIG    1        1.799  13.854   0.044  0.00  0.00    +0.290 C 
BRANCH  24  25
ATOM     25  C   LIG    1        2.145  14.220  -1.401  0.00  0.00    +0.000 C 
BRANCH  25  27
ATOM     26  C   LIG    1        3.574  15.666  -2.852  0.00  0.00    +0.010 C 
ATOM     27  C   LIG    1        3.228  15.300  -1.408  0.00  0.00    +0.000 C 
ENDBRANCH  25  27
ENDBRANCH  24  25
ENDBRANCH  19  24
ENDBRANCH  18  20
ENDBRANCH  17  18
ENDBRANCH  16  17
ENDBRANCH   1  16
TORSDOF 8
