REMARK  Name = ZINCpe00000MJL5k.0
REMARK                            x       y       z     vdW  Elec       q    Type
REMARK                         _______ _______ _______ _____ _____    ______ ____
ROOT
ATOM      1  C   LIG    1        0.071   0.503  -0.796  0.00  0.00    -0.080 C 
ATOM      2  C   LIG    1       -0.788   0.740   0.434  0.00  0.00    +0.030 C 
ATOM      3  C   LIG    1       -2.274   0.663   0.123  0.00  0.00    +0.220 C 
ATOM      4  O   LIG    1       -2.561   1.627  -0.897  0.00  0.00    -0.370 OA
ATOM      5  C   LIG    1       -1.982   1.280  -2.150  0.00  0.00    +0.230 C 
ATOM      6  C   LIG    1        1.423   1.221  -0.586  0.00  0.00    +0.300 C 
ATOM      7  N   LIG    1        1.604   2.160  -1.701  0.00  0.00    -0.610 N 
ATOM      8  C   LIG    1        2.769   2.712  -2.094  0.00  0.00    +0.610 C 
ATOM      9  O   LIG    1        3.799   2.443  -1.504  0.00  0.00    -0.530 OA
ATOM     10  C   LIG    1        0.282   2.392  -2.313  0.00  0.00    +0.280 C 
ATOM     11  C   LIG    1       -0.494   1.088  -2.077  0.00  0.00    -0.020 C 
ENDROOT
BRANCH   1  15
ATOM     12  N   LIG    1        0.871  -1.692   0.016  0.00  0.00    -0.850 N 
ATOM     13  H   LIG    1        1.021  -2.644  -0.098  0.00  0.00    +0.410 HD
ATOM     14  H   LIG    1        1.129  -1.256   0.844  0.00  0.00    +0.400 HD
ATOM     15  C   LIG    1        0.304  -0.975  -0.974  0.00  0.00    +0.530 C 
ATOM     16  O   LIG    1       -0.019  -1.520  -2.008  0.00  0.00    -0.530 OA
ENDBRANCH   1  15
BRANCH   8  17
ATOM     17  C   LIG    1        2.796   3.636  -3.233  0.00  0.00    -0.080 A 
ATOM     18  C   LIG    1        1.717   4.163  -3.887  0.00  0.00    +0.220 A 
ATOM     19  N   LIG    1        2.174   4.953  -4.859  0.00  0.00    -0.490 NA
ATOM     20  C   LIG    1        3.483   4.950  -4.851  0.00  0.00    +0.440 A 
ATOM     21  N   LIG    1        3.918   4.153  -3.856  0.00  0.00    -0.380 N 
BRANCH  21  22
ATOM     22  C   LIG    1        5.252   3.893  -3.519  0.00  0.00    +0.100 A 
ATOM     23  C   LIG    1        5.709   4.155  -2.234  0.00  0.00    +0.070 A 
ATOM     24  C   LIG    1        7.024   3.893  -1.903  0.00  0.00    +0.020 A 
ATOM     25  C   LIG    1        7.888   3.380  -2.853  0.00  0.00    +0.030 A 
ATOM     26  C   LIG    1        7.438   3.123  -4.134  0.00  0.00    +0.020 A 
ATOM     27  C   LIG    1        6.123   3.377  -4.470  0.00  0.00    +0.020 A 
ENDBRANCH  21  22
ENDBRANCH   8  17
TORSDOF 3
