REMARK  Name = ZINCah0000006lv7.0
REMARK                            x       y       z     vdW  Elec       q    Type
REMARK                         _______ _______ _______ _____ _____    ______ ____
ROOT
ATOM      1  C   LIG    1        1.142   1.913   0.001  0.00  0.00    +0.330 A 
ATOM      2  N   LIG    1       -0.016   1.335   0.009  0.00  0.00    -0.520 NA
ATOM      3  C   LIG    1        0.002  -0.004   0.002  0.00  0.00    +0.020 A 
ATOM      4  C   LIG    1        1.249  -0.555  -0.013  0.00  0.00    -0.050 A 
ATOM      5  S   LIG    1        2.413   0.697  -0.017  0.00  0.00    +0.150 S 
ENDROOT
BRANCH   1   6
ATOM      6  N   LIG    1        1.349   3.282   0.007  0.00  0.00    -0.810 N 
ATOM      7  H   LIG    1        2.252   3.635   0.000  0.00  0.00    +0.420 HD
ATOM      8  H   LIG    1        0.591   3.887   0.017  0.00  0.00    +0.420 HD
ENDBRANCH   1   6
BRANCH   3   9
ATOM      9  C   LIG    1       -1.218  -0.811   0.009  0.00  0.00    +0.420 C 
ATOM     10  O   LIG    1       -1.145  -2.023   0.001  0.00  0.00    -0.420 OA
BRANCH   9  11
ATOM     11  C   LIG    1       -2.567  -0.138   0.025  0.00  0.00    +0.190 C 
ATOM     12 CL   LIG    1       -3.863  -1.391   0.030  0.00  0.00    -0.150 Cl
ENDBRANCH   9  11
ENDBRANCH   3   9
TORSDOF 3
