REMARK  Name = ZINCkj000005lsum.0
REMARK                            x       y       z     vdW  Elec       q    Type
REMARK                         _______ _______ _______ _____ _____    ______ ____
ROOT
ATOM      1  S   LIG    1       -3.420   2.523  -1.619  0.00  0.00    +2.710 S 
ATOM      2  O   LIG    1       -2.814   3.226  -2.695  0.00  0.00    -0.920 OA
ATOM      3  O   LIG    1       -4.324   3.129  -0.705  0.00  0.00    -0.940 OA
ENDROOT
BRANCH   1   4
ATOM      4  C   LIG    1       -4.276   1.159  -2.334  0.00  0.00    -0.690 A 
ATOM      5  C   LIG    1       -5.584   0.898  -1.975  0.00  0.00    +0.170 A 
ATOM      6  C   LIG    1       -6.258  -0.168  -2.542  0.00  0.00    +0.000 A 
ATOM      7  C   LIG    1       -5.622  -0.983  -3.459  0.00  0.00    +0.140 A 
ATOM      8  C   LIG    1       -4.312  -0.730  -3.817  0.00  0.00    -0.060 A 
ATOM      9  C   LIG    1       -3.635   0.343  -3.255  0.00  0.00    +0.200 A 
BRANCH   9  10
ATOM     10  O   LIG    1       -2.346   0.594  -3.607  0.00  0.00    -0.320 OA
BRANCH  10  11
ATOM     11  C   LIG    1       -1.750  -0.287  -4.560  0.00  0.00    +0.610 C 
ATOM     12  F   LIG    1       -1.755  -1.592  -4.056  0.00  0.00    -0.160 F 
ATOM     13  F   LIG    1       -0.432   0.113  -4.806  0.00  0.00    -0.120 F 
ATOM     14  F   LIG    1       -2.480  -0.246  -5.753  0.00  0.00    -0.150 F 
ENDBRANCH  10  11
ENDBRANCH   9  10
ENDBRANCH   1   4
BRANCH   1  18
ATOM     15  C   LIG    1       -0.802   1.617   1.234  0.00  0.00    +0.180 C 
ATOM     16  C   LIG    1       -0.013   1.086   0.008  0.00  0.00    +0.080 C 
ATOM     17  C   LIG    1       -0.821   1.627  -1.190  0.00  0.00    +0.300 C 
ATOM     18  N   LIG    1       -2.183   1.902  -0.710  0.00  0.00    -1.010 NA
ATOM     19  C   LIG    1       -2.264   1.534   0.716  0.00  0.00    +0.310 C 
BRANCH  15  20
ATOM     20  N   LIG    1       -0.603   0.752   2.404  0.00  0.00    -0.630 N 
ATOM     21  H   LIG    1       -0.903  -0.186   2.183  0.00  0.00    +0.440 HD
ATOM     22  H   LIG    1       -1.144   1.105   3.179  0.00  0.00    +0.440 HD
ATOM     23  H   LIG    1        0.375   0.743   2.653  0.00  0.00    +0.440 HD
ENDBRANCH  15  20
ENDBRANCH   1  18
TORSDOF 5
