REMARK  Name = ZINCrD00000l5wED.0
REMARK                            x       y       z     vdW  Elec       q    Type
REMARK                         _______ _______ _______ _____ _____    ______ ____
ROOT
ATOM      1  C   LIG    1       -0.823   1.612  -1.209  0.00  0.00    +0.240 C 
ATOM      2  C   LIG    1       -0.006   1.091  -0.007  0.00  0.00    +0.070 C 
ATOM      3  C   LIG    1       -0.787   1.641   1.215  0.00  0.00    +0.070 C 
ATOM      4  C   LIG    1       -2.253   1.548   0.708  0.00  0.00    +0.250 C 
ATOM      5  N   LIG    1       -2.182   1.893  -0.724  0.00  0.00    -0.600 N 
ATOM      6  C   LIG    1       -3.194   2.385  -1.465  0.00  0.00    +0.620 C 
ATOM      7  O   LIG    1       -2.994   2.733  -2.614  0.00  0.00    -0.510 OA
ENDROOT
BRANCH   6   8
ATOM      8  C   LIG    1       -4.535   2.500  -0.888  0.00  0.00    -0.290 A 
ATOM      9  C   LIG    1       -5.664   2.898  -1.550  0.00  0.00    +0.330 A 
ATOM     10  N   LIG    1       -6.752   2.921  -0.833  0.00  0.00    -0.460 NA
ATOM     11  C   LIG    1       -6.649   2.577   0.426  0.00  0.00    +0.140 A 
ATOM     12  S   LIG    1       -4.977   2.157   0.783  0.00  0.00    +0.180 S 
BRANCH  11  13
ATOM     13  C   LIG    1       -7.756   2.547   1.390  0.00  0.00    +0.020 A 
ATOM     14  C   LIG    1       -9.056   2.869   1.129  0.00  0.00    +0.040 A 
ATOM     15  C   LIG    1       -9.765   2.700   2.332  0.00  0.00    -0.060 A 
ATOM     16  C   LIG    1       -8.877   2.286   3.260  0.00  0.00    +0.220 A 
ATOM     17  O   LIG    1       -7.668   2.190   2.687  0.00  0.00    -0.170 OA
ENDBRANCH  11  13
ENDBRANCH   6   8
BRANCH   1  20
ATOM     18  N   LIG    1        0.182   0.408  -3.122  0.00  0.00    -0.660 N 
ATOM     19  H   LIG    1        0.995   0.919  -2.978  0.00  0.00    +0.420 HD
ATOM     20  C   LIG    1       -0.868   0.564  -2.291  0.00  0.00    +0.500 C 
ATOM     21  O   LIG    1       -1.848  -0.138  -2.415  0.00  0.00    -0.450 OA
BRANCH  18  27
ATOM     22  C   LIG    1       -2.333  -2.953  -5.427  0.00  0.00    +0.140 C 
ATOM     23  C   LIG    1       -1.091  -2.108  -5.317  0.00  0.00    +0.160 A 
ATOM     24  C   LIG    1       -0.089  -2.244  -6.258  0.00  0.00    -0.060 A 
ATOM     25  C   LIG    1        1.054  -1.462  -6.152  0.00  0.00    +0.100 A 
ATOM     26  C   LIG    1        1.145  -0.567  -5.101  0.00  0.00    -0.070 A 
ATOM     27  C   LIG    1        0.101  -0.487  -4.188  0.00  0.00    +0.370 A 
ATOM     28  N   LIG    1       -0.973  -1.249  -4.323  0.00  0.00    -0.480 NA
ENDBRANCH  18  27
ENDBRANCH   1  20
TORSDOF 4
