REMARK  Name = ZINCvU0000000F7G.0
REMARK                            x       y       z     vdW  Elec       q    Type
REMARK                         _______ _______ _______ _____ _____    ______ ____
ROOT
ATOM      1  N   LIG    1       -1.194   2.127   0.019  0.00  0.00    -0.660 N 
ATOM      2  H   LIG    1       -2.022   1.625   0.070  0.00  0.00    +0.420 HD
ATOM      3  C   LIG    1       -0.024   1.483  -0.160  0.00  0.00    +0.590 C 
ATOM      4  O   LIG    1        1.001   2.118  -0.321  0.00  0.00    -0.490 OA
ENDROOT
BRANCH   1   8
ATOM      5  C   LIG    1       -1.256   6.279   0.357  0.00  0.00    +0.010 A 
ATOM      6  C   LIG    1       -0.170   5.553   0.852  0.00  0.00    +0.110 A 
ATOM      7  C   LIG    1       -0.155   4.180   0.744  0.00  0.00    +0.070 A 
ATOM      8  C   LIG    1       -1.215   3.518   0.132  0.00  0.00    +0.180 A 
ATOM      9  C   LIG    1       -2.298   4.238  -0.362  0.00  0.00    +0.060 A 
ATOM     10  C   LIG    1       -2.322   5.610  -0.252  0.00  0.00    -0.120 A 
BRANCH  10  11
ATOM     11  C   LIG    1       -3.496   6.389  -0.786  0.00  0.00    +0.510 C 
ATOM     12  F   LIG    1       -3.054   7.283  -1.768  0.00  0.00    -0.170 F 
ATOM     13  F   LIG    1       -4.096   7.102   0.257  0.00  0.00    -0.170 F 
ATOM     14  F   LIG    1       -4.426   5.506  -1.345  0.00  0.00    -0.170 F 
ENDBRANCH  10  11
BRANCH   5  16
ATOM     15  N   LIG    1       -1.295   8.838   0.567  0.00  0.00    -0.380 NA
ATOM     16  C   LIG    1       -1.278   7.706   0.474  0.00  0.00    +0.230 C 
ENDBRANCH   5  16
ENDBRANCH   1   8
BRANCH   3  17
ATOM     17  C   LIG    1        0.013   0.010  -0.166  0.00  0.00    -0.220 A 
ATOM     18  C   LIG    1        1.131  -0.781  -0.342  0.00  0.00    +0.060 A 
ATOM     19  N   LIG    1        0.729  -2.064  -0.279  0.00  0.00    -0.270 N 
ATOM     20  N   LIG    1       -0.653  -2.085  -0.061  0.00  0.00    -0.240 NA
ATOM     21  C   LIG    1       -1.089  -0.858   0.014  0.00  0.00    +0.300 A 
BRANCH  19  22
ATOM     22  C   LIG    1        1.555  -3.189  -0.409  0.00  0.00    +0.150 A 
ATOM     23  C   LIG    1        1.292  -4.334   0.330  0.00  0.00    +0.050 A 
ATOM     24  C   LIG    1        2.107  -5.442   0.199  0.00  0.00    +0.080 A 
ATOM     25  C   LIG    1        3.184  -5.412  -0.666  0.00  0.00    +0.010 A 
ATOM     26  C   LIG    1        3.450  -4.271  -1.406  0.00  0.00    +0.130 A 
ATOM     27  F   LIG    1        4.503  -4.245  -2.252  0.00  0.00    -0.120 F 
ATOM     28  C   LIG    1        2.634  -3.161  -1.282  0.00  0.00    -0.010 A 
ENDBRANCH  19  22
BRANCH  18  29
ATOM     29  C   LIG    1        2.540  -0.298  -0.565  0.00  0.00    +0.530 C 
ATOM     30  F   LIG    1        3.442  -1.230  -0.040  0.00  0.00    -0.170 F 
ATOM     31  F   LIG    1        2.717   0.934   0.075  0.00  0.00    -0.130 F 
ATOM     32  F   LIG    1        2.771  -0.148  -1.937  0.00  0.00    -0.160 F 
ENDBRANCH  18  29
ENDBRANCH   3  17
TORSDOF 6
