REMARK  Name = ZINCtV00001bB3Id.0
REMARK                            x       y       z     vdW  Elec       q    Type
REMARK                         _______ _______ _______ _____ _____    ______ ____
ROOT
ATOM      1  C   LIG    1        0.012   0.008   0.189  0.00  0.00    +0.460 A 
ATOM      2  N   LIG    1       -0.015   1.316   0.017  0.00  0.00    -0.480 NA
ATOM      3  C   LIG    1        1.117   1.998  -0.185  0.00  0.00    +0.170 A 
ATOM      4  C   LIG    1        1.123   3.389  -0.370  0.00  0.00    +0.080 A 
ATOM      5  C   LIG    1        2.305   4.035  -0.572  0.00  0.00    +0.080 A 
ATOM      6  C   LIG    1        3.511   3.337  -0.597  0.00  0.00    -0.030 A 
ATOM      7  C   LIG    1        3.542   1.983  -0.420  0.00  0.00    +0.090 A 
ATOM      8 CL   LIG    1        4.995   4.199  -0.857  0.00  0.00    -0.050 Cl
ATOM      9  C   LIG    1        2.346   1.288  -0.211  0.00  0.00    -0.140 A 
ATOM     10  C   LIG    1        2.316  -0.117  -0.021  0.00  0.00    +0.280 A 
ATOM     11  N   LIG    1        1.141  -0.698   0.172  0.00  0.00    -0.470 NA
ENDROOT
BRANCH  10  12
ATOM     12  C   LIG    1        3.564  -0.913  -0.038  0.00  0.00    -0.060 A 
ATOM     13  C   LIG    1        3.614  -2.122  -0.733  0.00  0.00    +0.060 A 
ATOM     14  C   LIG    1        4.782  -2.857  -0.749  0.00  0.00    +0.010 A 
ATOM     15  C   LIG    1        5.898  -2.402  -0.069  0.00  0.00    +0.030 A 
ATOM     16  C   LIG    1        5.853  -1.207   0.626  0.00  0.00    +0.010 A 
ATOM     17  C   LIG    1        4.693  -0.460   0.645  0.00  0.00    +0.040 A 
ENDBRANCH  10  12
BRANCH   1  19
ATOM     18  N   LIG    1       -2.241  -0.022   0.413  0.00  0.00    -0.140 NA
ATOM     19  N   LIG    1       -1.174  -0.654   0.393  0.00  0.00    -0.180 NA
BRANCH  18  20
ATOM     20  C   LIG    1       -3.506  -0.728   0.632  0.00  0.00    +0.260 C 
BRANCH  20  24
ATOM     21  C   LIG    1       -5.396   0.789   4.150  0.00  0.00    -0.070 A 
ATOM     22  C   LIG    1       -5.661   1.363   2.920  0.00  0.00    +0.000 A 
ATOM     23  C   LIG    1       -5.049   0.873   1.782  0.00  0.00    +0.040 A 
ATOM     24  C   LIG    1       -4.173  -0.193   1.873  0.00  0.00    -0.090 A 
ATOM     25  C   LIG    1       -3.912  -0.770   3.101  0.00  0.00    +0.020 A 
ATOM     26  C   LIG    1       -4.519  -0.276   4.240  0.00  0.00    +0.000 A 
BRANCH  21  28
ATOM     27  C   LIG    1       -6.893   0.216   6.041  0.00  0.00    +0.030 C 
ATOM     28  C   LIG    1       -6.063   1.324   5.391  0.00  0.00    +0.020 C 
ATOM     29  C   LIG    1       -4.996   1.807   6.375  0.00  0.00    +0.030 C 
ENDBRANCH  21  28
ENDBRANCH  20  24
ENDBRANCH  18  20
ENDBRANCH   1  19
TORSDOF 5
