REMARK  Name = ZINCqH00000054Nl.1
REMARK                            x       y       z     vdW  Elec       q    Type
REMARK                         _______ _______ _______ _____ _____    ______ ____
ROOT
ATOM      1  N   LIG    1       -0.156  -1.460  -1.901  0.00  0.00    -0.730 N 
ATOM      2  H   LIG    1       -0.055  -2.172  -1.250  0.00  0.00    +0.400 HD
ATOM      3  C   LIG    1       -0.203  -1.752  -3.216  0.00  0.00    +0.710 C 
ATOM      4  N   LIG    1       -0.109  -3.032  -3.627  0.00  0.00    -0.740 N 
ATOM      5  H   LIG    1       -0.007  -3.744  -2.976  0.00  0.00    +0.400 HD
ATOM      6  O   LIG    1       -0.330  -0.859  -4.032  0.00  0.00    -0.590 OA
ENDROOT
BRANCH   1   7
ATOM      7  C   LIG    1       -0.259  -0.069  -1.454  0.00  0.00    +0.310 C 
BRANCH   7   8
ATOM      8  C   LIG    1       -0.135  -0.012   0.069  0.00  0.00    +0.220 C 
BRANCH   8   9
ATOM      9  C   LIG    1       -1.321  -0.699   0.696  0.00  0.00    -0.180 A 
ATOM     10  C   LIG    1       -2.392  -0.081   1.196  0.00  0.00    +0.010 A 
ATOM     11  C   LIG    1       -3.358  -0.921   1.721  0.00  0.00    +0.010 A 
ATOM     12  C   LIG    1       -3.072  -2.222   1.647  0.00  0.00    -0.060 A 
ATOM     13  S   LIG    1       -1.508  -2.439   0.872  0.00  0.00    +0.130 S 
ENDBRANCH   8   9
BRANCH   8  15
ATOM     14  C   LIG    1        2.269  -0.123  -0.200  0.00  0.00    +0.190 C 
ATOM     15  N   LIG    1        1.100  -0.690   0.486  0.00  0.00    -0.540 NA
ATOM     16  C   LIG    1        1.266  -0.631   1.944  0.00  0.00    +0.190 C 
ENDBRANCH   8  15
ENDBRANCH   7   8
ENDBRANCH   1   7
BRANCH   4  17
ATOM     17  C   LIG    1       -0.160  -3.348  -5.056  0.00  0.00    +0.350 C 
BRANCH  17  18
ATOM     18  C   LIG    1       -0.034  -4.838  -5.246  0.00  0.00    -0.110 A 
ATOM     19  C   LIG    1        1.181  -5.389  -5.604  0.00  0.00    +0.080 A 
ATOM     20  C   LIG    1        1.297  -6.756  -5.778  0.00  0.00    -0.010 A 
ATOM     21  C   LIG    1        0.198  -7.574  -5.595  0.00  0.00    +0.070 A 
ATOM     22  C   LIG    1       -1.020  -7.028  -5.237  0.00  0.00    -0.050 A 
ATOM     23  C   LIG    1       -1.137  -5.657  -5.056  0.00  0.00    +0.120 A 
BRANCH  23  24
ATOM     24  O   LIG    1       -2.332  -5.118  -4.698  0.00  0.00    -0.300 OA
BRANCH  24  25
ATOM     25  C   LIG    1       -3.425  -6.022  -4.519  0.00  0.00    +0.600 C 
ATOM     26  F   LIG    1       -3.664  -6.706  -5.716  0.00  0.00    -0.160 F 
ATOM     27  F   LIG    1       -4.569  -5.304  -4.155  0.00  0.00    -0.130 F 
ATOM     28  F   LIG    1       -3.110  -6.940  -3.512  0.00  0.00    -0.160 F 
ENDBRANCH  24  25
ENDBRANCH  23  24
ENDBRANCH  17  18
ENDBRANCH   4  17
TORSDOF 8
