REMARK  Name = ZINCtj00000t5JcZ.0
REMARK                            x       y       z     vdW  Elec       q    Type
REMARK                         _______ _______ _______ _____ _____    ______ ____
ROOT
ATOM      1  N   LIG    1        3.380  -1.379  -6.827  0.00  0.00    -0.720 N 
ATOM      2  H   LIG    1        3.011  -1.135  -7.690  0.00  0.00    +0.410 HD
ATOM      3  C   LIG    1        2.751  -1.005  -5.695  0.00  0.00    +0.710 C 
ATOM      4  N   LIG    1        1.609  -0.292  -5.762  0.00  0.00    -0.680 N 
ATOM      5  H   LIG    1        1.199  -0.114  -6.623  0.00  0.00    +0.420 HD
ATOM      6  O   LIG    1        3.213  -1.312  -4.613  0.00  0.00    -0.570 OA
ENDROOT
BRANCH   4   7
ATOM      7  C   LIG    1        1.014   0.192  -4.588  0.00  0.00    +0.070 A 
ATOM      8  C   LIG    1       -0.369   0.313  -4.487  0.00  0.00    +0.330 A 
ATOM      9  N   LIG    1       -0.894   0.773  -3.364  0.00  0.00    -0.500 NA
ATOM     10  C   LIG    1       -0.122   1.116  -2.344  0.00  0.00    +0.450 A 
ATOM     11  N   LIG    1        1.197   1.019  -2.406  0.00  0.00    -0.530 NA
ATOM     12  C   LIG    1        1.792   0.562  -3.495  0.00  0.00    +0.370 A 
BRANCH  10  13
ATOM     13  N   LIG    1       -0.711   1.594  -1.183  0.00  0.00    -0.460 N 
ATOM     14  C   LIG    1        0.306   1.919  -0.173  0.00  0.00    +0.250 C 
ATOM     15  C   LIG    1       -0.385   2.385   1.110  0.00  0.00    +0.290 C 
ATOM     16  N   LIG    1       -1.208   3.567   0.822  0.00  0.00    -0.510 N 
ATOM     17  C   LIG    1       -2.234   3.220  -0.171  0.00  0.00    +0.290 C 
ATOM     18  H   LIG    1       -1.654   3.881   1.670  0.00  0.00    +0.440 HD
ATOM     19  H   LIG    1       -0.623   4.303   0.457  0.00  0.00    +0.430 HD
ATOM     20  C   LIG    1       -1.559   2.761  -1.465  0.00  0.00    +0.240 C 
ENDBRANCH  10  13
ENDBRANCH   4   7
BRANCH   1  22
ATOM     21  C   LIG    1        5.807  -1.203  -6.582  0.00  0.00    +0.040 C 
ATOM     22  C   LIG    1        4.621  -2.154  -6.753  0.00  0.00    +0.360 C 
BRANCH  22  23
ATOM     23  C   LIG    1        4.793  -2.949  -8.022  0.00  0.00    -0.030 A 
ATOM     24  C   LIG    1        5.499  -4.094  -8.171  0.00  0.00    +0.170 A 
ATOM     25  N   LIG    1        5.372  -4.447  -9.480  0.00  0.00    -0.230 N 
ATOM     26  N   LIG    1        4.637  -3.565 -10.063  0.00  0.00    -0.070 NA
ATOM     27  N   LIG    1        4.272  -2.663  -9.221  0.00  0.00    -0.260 NA
BRANCH  25  28
ATOM     28  C   LIG    1        5.942  -5.575 -10.087  0.00  0.00    +0.110 A 
ATOM     29  C   LIG    1        6.723  -6.447  -9.340  0.00  0.00    +0.020 A 
ATOM     30  C   LIG    1        7.278  -7.560  -9.940  0.00  0.00    +0.040 A 
ATOM     31  C   LIG    1        7.067  -7.801 -11.285  0.00  0.00    +0.040 A 
ATOM     32  C   LIG    1        6.295  -6.931 -12.033  0.00  0.00    +0.040 A 
ATOM     33  C   LIG    1        5.732  -5.819 -11.438  0.00  0.00    +0.040 A 
ENDBRANCH  25  28
ENDBRANCH  22  23
ENDBRANCH   1  22
TORSDOF 5
