REMARK  Name = ZINCrg00000SjSFj.0
REMARK                            x       y       z     vdW  Elec       q    Type
REMARK                         _______ _______ _______ _____ _____    ______ ____
ROOT
ATOM      1  C   LIG    1        4.939   0.856   1.026  0.00  0.00    +0.060 C 
ATOM      2  C   LIG    1        5.237   1.331  -0.398  0.00  0.00    +0.260 C 
ENDROOT
BRANCH   2   3
ATOM      3  N   LIG    1        6.618   1.812  -0.474  0.00  0.00    -0.730 N 
ATOM      4  H   LIG    1        6.809   2.757  -0.367  0.00  0.00    +0.410 HD
ATOM      5  C   LIG    1        7.624   0.942  -0.692  0.00  0.00    +0.730 C 
ATOM      6  N   LIG    1        8.895   1.385  -0.762  0.00  0.00    -0.630 N 
ATOM      7  C   LIG    1        9.317   2.785  -0.624  0.00  0.00    +0.270 C 
ATOM      8  C   LIG    1       10.852   2.824  -0.796  0.00  0.00    +0.180 C 
ATOM      9  O   LIG    1       11.106   3.215  -2.130  0.00  0.00    -0.370 OA
ATOM     10  C   LIG    1       12.456   3.009  -2.547  0.00  0.00    +0.230 C 
ATOM     11  C   LIG    1       12.751   1.510  -2.504  0.00  0.00    +0.160 C 
ATOM     12  N   LIG    1       12.509   0.982  -1.170  0.00  0.00    -0.550 NA
ATOM     13  C   LIG    1       12.666  -0.479  -1.146  0.00  0.00    +0.200 C 
ATOM     14  C   LIG    1       11.283   1.379  -0.529  0.00  0.00    +0.160 C 
ATOM     15  C   LIG    1       10.079   0.543  -0.995  0.00  0.00    +0.240 C 
ATOM     16  O   LIG    1        7.385  -0.243  -0.826  0.00  0.00    -0.580 OA
ENDBRANCH   2   3
BRANCH   2  17
ATOM     17  C   LIG    1        4.294   2.449  -0.761  0.00  0.00    +0.520 C 
ATOM     18  N   LIG    1        2.995   2.184  -1.003  0.00  0.00    -0.550 N 
ATOM     19  C   LIG    1        2.008   3.148  -1.227  0.00  0.00    +0.140 A 
ATOM     20  C   LIG    1        2.121   4.540  -1.255  0.00  0.00    +0.010 A 
ATOM     21  C   LIG    1        1.011   5.322  -1.497  0.00  0.00    +0.040 A 
ATOM     22  C   LIG    1       -0.221   4.734  -1.713  0.00  0.00    -0.010 A 
ATOM     23  C   LIG    1       -0.341   3.357  -1.687  0.00  0.00    +0.050 A 
ATOM     24  C   LIG    1        0.768   2.569  -1.446  0.00  0.00    -0.130 A 
ATOM     25  C   LIG    1        0.918   1.067  -1.364  0.00  0.00    +0.110 C 
ATOM     26  C   LIG    1        2.409   0.842  -1.068  0.00  0.00    +0.220 C 
ATOM     27  C   LIG    1        3.058   0.034  -2.194  0.00  0.00    +0.040 C 
ATOM     28  O   LIG    1        4.705   3.588  -0.837  0.00  0.00    -0.510 OA
ENDBRANCH   2  17
TORSDOF 2
