REMARK  Name = ZINCkj00000WpoMW.0
REMARK                            x       y       z     vdW  Elec       q    Type
REMARK                         _______ _______ _______ _____ _____    ______ ____
ROOT
ATOM      1  C   LIG    1        1.154  -0.651  -0.013  0.00  0.00    +0.490 C 
ATOM      2  N   LIG    1        0.002  -0.004   0.002  0.00  0.00    -0.580 NA
ATOM      3  C   LIG    1       -0.016   1.327   0.009  0.00  0.00    +0.680 C 
ATOM      4  N   LIG    1        1.126   2.005   0.002  0.00  0.00    -0.620 N 
ATOM      5  C   LIG    1        2.283   1.351  -0.013  0.00  0.00    +0.700 C 
ATOM      6  N   LIG    1        3.472   2.051  -0.020  0.00  0.00    -0.630 N 
ATOM      7  H   LIG    1        3.464   3.021  -0.014  0.00  0.00    +0.430 HD
ATOM      8  H   LIG    1        1.116   2.975   0.008  0.00  0.00    +0.440 HD
ATOM      9  N   LIG    1        2.293   0.020  -0.020  0.00  0.00    -0.580 NA
ENDROOT
BRANCH   3  10
ATOM     10  N   LIG    1       -1.220   2.002   0.019  0.00  0.00    -0.770 NA
ATOM     11  H   LIG    1       -1.232   2.971   0.024  0.00  0.00    +0.430 HD
ATOM     12  H   LIG    1       -2.054   1.506   0.020  0.00  0.00    +0.450 HD
ENDBRANCH   3  10
BRANCH   1  14
ATOM     13  C   LIG    1       -0.267  -2.683  -0.011  0.00  0.00    +0.070 C 
ATOM     14  C   LIG    1        1.170  -2.158  -0.021  0.00  0.00    +0.170 C 
ENDBRANCH   1  14
BRANCH   6  15
ATOM     15  C   LIG    1        4.747   1.329  -0.035  0.00  0.00    +0.250 C 
BRANCH  15  16
ATOM     16  C   LIG    1        5.557   1.698   1.209  0.00  0.00    +0.390 C 
ATOM     17  F   LIG    1        4.890   1.246   2.352  0.00  0.00    -0.190 F 
ATOM     18  F   LIG    1        5.704   3.088   1.274  0.00  0.00    -0.200 F 
ENDBRANCH  15  16
BRANCH  15  19
ATOM     19  C   LIG    1        5.534   1.712  -1.290  0.00  0.00    +0.100 C 
BRANCH  19  20
ATOM     20  C   LIG    1        4.781   1.230  -2.531  0.00  0.00    +0.120 C 
ATOM     21  C   LIG    1        4.899  -0.283  -2.775  0.00  0.00    +0.010 C 
ATOM     22  C   LIG    1        5.030   0.049  -4.272  0.00  0.00    +0.010 C 
ATOM     23  C   LIG    1        5.565   1.424  -3.841  0.00  0.00    +0.010 C 
BRANCH  20  24
ATOM     24  O   LIG    1        3.439   1.717  -2.590  0.00  0.00    -0.550 OA
ATOM     25  H   LIG    1        2.947   1.423  -3.369  0.00  0.00    +0.380 HD
ENDBRANCH  20  24
ENDBRANCH  19  20
ENDBRANCH  15  19
ENDBRANCH   6  15
TORSDOF 7
