REMARK  Name = ZINCqH0000001HzD.0
REMARK                            x       y       z     vdW  Elec       q    Type
REMARK                         _______ _______ _______ _____ _____    ______ ____
ROOT
ATOM      1  C   LIG    1       -4.258  -0.234   0.025  0.00  0.00    +0.460 C 
ATOM      2  O   LIG    1       -3.972  -1.301  -0.466  0.00  0.00    -0.490 OA
ENDROOT
BRANCH   1   3
ATOM      3  O   LIG    1       -5.455  -0.063   0.608  0.00  0.00    -0.330 OA
BRANCH   3  10
ATOM      4  C   LIG    1       -7.252  -1.140   1.849  0.00  0.00    +0.010 C 
ATOM      5  C   LIG    1       -8.067   0.154   1.825  0.00  0.00    +0.030 C 
ATOM      6  C   LIG    1       -8.934   0.187   0.565  0.00  0.00    +0.010 C 
ATOM      7  C   LIG    1       -8.038   0.125  -0.673  0.00  0.00    -0.020 C 
ATOM      8  C   LIG    1       -7.223  -1.170  -0.649  0.00  0.00    +0.020 C 
ATOM      9  C   LIG    1       -7.089   1.325  -0.677  0.00  0.00    +0.020 C 
ATOM     10  C   LIG    1       -6.355  -1.202   0.611  0.00  0.00    +0.190 C 
BRANCH   4  12
ATOM     11  C   LIG    1       -7.280  -1.110   4.348  0.00  0.00    +0.020 C 
ATOM     12  C   LIG    1       -6.384  -1.172   3.109  0.00  0.00    -0.010 C 
ATOM     13  C   LIG    1       -5.569  -2.467   3.134  0.00  0.00    +0.020 C 
ENDBRANCH   4  12
ENDBRANCH   3  10
ENDBRANCH   1   3
BRANCH   1  14
ATOM     14  C   LIG    1       -3.270   0.903  -0.016  0.00  0.00    +0.310 C 
BRANCH  14  15
ATOM     15  O   LIG    1       -2.061   0.470  -0.694  0.00  0.00    -0.330 OA
BRANCH  15  16
ATOM     16  C   LIG    1       -1.071   1.375  -0.816  0.00  0.00    +0.500 C 
ATOM     17  O   LIG    1       -1.214   2.496  -0.369  0.00  0.00    -0.470 OA
BRANCH  16  18
ATOM     18  C   LIG    1        0.188   1.006  -1.494  0.00  0.00    -0.080 A 
ATOM     19  C   LIG    1        0.307  -0.234  -2.125  0.00  0.00    +0.110 A 
ATOM     20  C   LIG    1        1.484  -0.571  -2.761  0.00  0.00    +0.070 A 
ATOM     21  C   LIG    1        2.546   0.316  -2.774  0.00  0.00    +0.090 A 
ATOM     22  C   LIG    1        2.435   1.546  -2.149  0.00  0.00    +0.090 A 
ATOM     23  C   LIG    1        1.264   1.896  -1.511  0.00  0.00    +0.020 A 
BRANCH  23  24
ATOM     24  N   LIG    1        1.147   3.213  -0.844  0.00  0.00    +0.010 N 
ATOM     25  O   LIG    1        0.751   3.280   0.306  0.00  0.00    -0.090 OA
ATOM     26  O   LIG    1        1.446   4.229  -1.446  0.00  0.00    -0.160 OA
ENDBRANCH  23  24
ENDBRANCH  16  18
ENDBRANCH  15  16
ENDBRANCH  14  15
ENDBRANCH   1  14
TORSDOF 8
