REMARK  Name = ZINCfA000001cVNr.0
REMARK                            x       y       z     vdW  Elec       q    Type
REMARK                         _______ _______ _______ _____ _____    ______ ____
ROOT
ATOM      1  C   LIG    1       -4.148   2.936   3.820  0.00  0.00    +0.240 C 
ENDROOT
BRANCH   1   2
ATOM      2  C   LIG    1       -4.356   2.400   5.213  0.00  0.00    -0.200 A 
ATOM      3  C   LIG    1       -5.530   1.741   5.544  0.00  0.00    +0.110 A 
ATOM      4  C   LIG    1       -5.675   1.259   6.836  0.00  0.00    -0.010 A 
ATOM      5  C   LIG    1       -4.657   1.461   7.748  0.00  0.00    +0.300 A 
ATOM      6  N   LIG    1       -3.555   2.097   7.400  0.00  0.00    -0.470 NA
ATOM      7  C   LIG    1       -3.381   2.563   6.179  0.00  0.00    +0.260 A 
ENDBRANCH   1   2
BRANCH   1   8
ATOM      8  N   LIG    1       -3.496   4.250   3.893  0.00  0.00    -0.640 N 
ATOM      9  H   LIG    1       -2.603   4.157   4.355  0.00  0.00    +0.430 HD
ATOM     10  H   LIG    1       -4.080   4.886   4.415  0.00  0.00    +0.440 HD
ATOM     11  H   LIG    1       -3.357   4.609   2.961  0.00  0.00    +0.440 HD
ENDBRANCH   1   8
BRANCH   1  12
ATOM     12  C   LIG    1       -3.263   1.971   3.029  0.00  0.00    +0.060 C 
BRANCH  12  13
ATOM     13  C   LIG    1       -3.154   2.450   1.580  0.00  0.00    +0.010 C 
BRANCH  13  14
ATOM     14  C   LIG    1       -2.268   1.485   0.789  0.00  0.00    -0.010 C 
ATOM     15  C   LIG    1       -0.789   1.611   1.242  0.00  0.00    +0.010 C 
ATOM     16  C   LIG    1       -0.013   1.086   0.008  0.00  0.00    +0.010 C 
ATOM     17  C   LIG    1       -0.809   1.622  -1.200  0.00  0.00    +0.010 C 
ATOM     18  C   LIG    1       -2.243   1.875  -0.703  0.00  0.00    +0.010 C 
ENDBRANCH  13  14
ENDBRANCH  12  13
ENDBRANCH   1  12
TORSDOF 5
