REMARK  Name = ZINCnE000007MrPV.0
REMARK                            x       y       z     vdW  Elec       q    Type
REMARK                         _______ _______ _______ _____ _____    ______ ____
ROOT
ATOM      1  N   LIG    1        0.994  -0.477   0.570  0.00  0.00    -0.500 NA
ATOM      2  C   LIG    1        0.110  -0.213  -0.573  0.00  0.00    +0.140 C 
ATOM      3  C   LIG    1        0.284   1.237  -1.030  0.00  0.00    -0.000 C 
ATOM      4  C   LIG    1        1.745   1.469  -1.427  0.00  0.00    +0.160 C 
ATOM      5  C   LIG    1        2.648   1.141  -0.235  0.00  0.00    +0.020 C 
ATOM      6  C   LIG    1        2.405  -0.306   0.200  0.00  0.00    +0.190 C 
ENDROOT
BRANCH   5   7
ATOM      7  C   LIG    1        4.113   1.313  -0.641  0.00  0.00    -0.010 C 
ATOM      8  C   LIG    1        4.461   0.343  -1.790  0.00  0.00    +0.010 C 
ATOM      9  C   LIG    1        5.911  -0.108  -1.479  0.00  0.00    +0.000 C 
ATOM     10  C   LIG    1        5.908  -0.232   0.065  0.00  0.00    +0.010 C 
ATOM     11  C   LIG    1        5.033   0.948   0.537  0.00  0.00    +0.010 C 
ENDBRANCH   5   7
BRANCH   4  12
ATOM     12  O   LIG    1        1.927   2.836  -1.802  0.00  0.00    -0.560 OA
ATOM     13  H   LIG    1        1.380   3.115  -2.550  0.00  0.00    +0.370 HD
ENDBRANCH   4  12
BRANCH   1  14
ATOM     14  C   LIG    1        0.753  -1.816   1.124  0.00  0.00    +0.090 C 
BRANCH  14  15
ATOM     15  C   LIG    1       -0.676  -1.917   1.591  0.00  0.00    -0.030 A 
ATOM     16  C   LIG    1       -1.225  -0.905   2.357  0.00  0.00    +0.070 A 
ATOM     17  C   LIG    1       -2.538  -0.995   2.782  0.00  0.00    +0.010 A 
ATOM     18  C   LIG    1       -3.297  -2.101   2.451  0.00  0.00    +0.010 A 
ATOM     19  C   LIG    1       -2.746  -3.116   1.690  0.00  0.00    -0.090 A 
ATOM     20 BR   LIG    1       -3.785  -4.630   1.237  0.00  0.00    -0.070 Br
ATOM     21  C   LIG    1       -1.435  -3.023   1.260  0.00  0.00    +0.040 A 
ENDBRANCH  14  15
BRANCH  14  23
ATOM     22  O   LIG    1        2.166  -1.105   2.883  0.00  0.00    -0.670 OA
ATOM     23  C   LIG    1        1.681  -2.052   2.288  0.00  0.00    +0.510 C 
ATOM     24  O   LIG    1        1.946  -3.191   2.634  0.00  0.00    -0.690 OA
ENDBRANCH  14  23
ENDBRANCH   1  14
TORSDOF 5
