REMARK  Name = ZINCrg00000BodF5.0
REMARK                            x       y       z     vdW  Elec       q    Type
REMARK                         _______ _______ _______ _____ _____    ______ ____
ROOT
ATOM      1  C   LIG    1        1.248   3.012   1.542  0.00  0.00    +0.260 C 
ATOM      2  C   LIG    1        1.255   3.099   0.007  0.00  0.00    +0.060 C 
ATOM      3  C   LIG    1        1.286   1.562  -0.002  0.00  0.00    +0.100 C 
ATOM      4  C   LIG    1        1.936   1.645   1.389  0.00  0.00    +0.000 C 
ENDROOT
BRANCH   1   7
ATOM      5  O   LIG    1        0.877   3.924   4.053  0.00  0.00    -0.530 OA
ATOM      6  C   LIG    1        1.816   4.413   3.453  0.00  0.00    +0.580 C 
ATOM      7  N   LIG    1        2.085   4.024   2.191  0.00  0.00    -0.720 N 
ATOM      8  H   LIG    1        2.834   4.414   1.713  0.00  0.00    +0.400 HD
BRANCH   6   9
ATOM      9  C   LIG    1        2.655   5.427   4.104  0.00  0.00    -0.140 A 
ATOM     10  C   LIG    1        3.705   6.000   3.503  0.00  0.00    -0.020 A 
ATOM     11  S   LIG    1        4.478   7.137   4.503  0.00  0.00    +0.180 S 
ATOM     12  C   LIG    1        3.365   6.859   5.835  0.00  0.00    -0.160 A 
ATOM     13  C   LIG    1        3.312   7.432   7.109  0.00  0.00    +0.050 A 
ATOM     14  C   LIG    1        2.336   7.053   8.001  0.00  0.00    +0.030 A 
ATOM     15  C   LIG    1        1.396   6.098   7.642  0.00  0.00    +0.010 A 
ATOM     16  C   LIG    1        1.432   5.523   6.396  0.00  0.00    +0.070 A 
ATOM     17  C   LIG    1        2.423   5.898   5.470  0.00  0.00    -0.040 A 
ENDBRANCH   6   9
ENDBRANCH   1   7
BRANCH   3  18
ATOM     18  O   LIG    1       -0.011   0.963   0.007  0.00  0.00    -0.530 OA
ATOM     19  H   LIG    1        0.002  -0.004   0.002  0.00  0.00    +0.380 HD
ENDBRANCH   3  18
BRANCH   3  20
ATOM     20  C   LIG    1        2.205   0.973  -1.075  0.00  0.00    +0.270 C 
BRANCH  20  21
ATOM     21  N   LIG    1        2.194  -0.488  -0.978  0.00  0.00    -0.730 N 
ATOM     22  H   LIG    1        1.654  -0.926  -0.302  0.00  0.00    +0.400 HD
ATOM     23  C   LIG    1        2.936  -1.225  -1.829  0.00  0.00    +0.530 C 
ATOM     24  O   LIG    1        3.611  -0.678  -2.675  0.00  0.00    -0.510 OA
BRANCH  23  25
ATOM     25  C   LIG    1        2.925  -2.729  -1.730  0.00  0.00    +0.140 C 
ATOM     26  C   LIG    1        1.525  -3.254  -2.064  0.00  0.00    +0.220 C 
ATOM     27  O   LIG    1        1.551  -4.684  -2.077  0.00  0.00    -0.370 OA
ATOM     28  C   LIG    1        2.491  -5.231  -3.006  0.00  0.00    +0.200 C 
ATOM     29  C   LIG    1        3.891  -4.707  -2.673  0.00  0.00    +0.200 C 
ATOM     30  O   LIG    1        3.865  -3.276  -2.660  0.00  0.00    -0.350 OA
ENDBRANCH  23  25
ENDBRANCH  20  21
ENDBRANCH   3  20
TORSDOF 6
