REMARK  Name = ZINCrD000000fWq3.0
REMARK                            x       y       z     vdW  Elec       q    Type
REMARK                         _______ _______ _______ _____ _____    ______ ____
ROOT
ATOM      1  C   LIG    1        7.044   2.853  -1.086  0.00  0.00    +0.000 C 
ATOM      2  C   LIG    1        6.551   1.507  -1.681  0.00  0.00    +0.050 C 
ATOM      3  C   LIG    1        5.016   1.715  -1.690  0.00  0.00    +0.230 C 
ATOM      4  N   LIG    1        4.830   3.136  -2.038  0.00  0.00    -0.620 N 
ATOM      5  C   LIG    1        3.728   3.668  -2.603  0.00  0.00    +0.730 C 
ATOM      6  N   LIG    1        2.674   2.881  -2.895  0.00  0.00    -0.660 N 
ATOM      7  H   LIG    1        2.708   1.932  -2.700  0.00  0.00    +0.400 HD
ATOM      8  O   LIG    1        3.685   4.858  -2.847  0.00  0.00    -0.550 OA
ATOM      9  C   LIG    1        6.048   3.874  -1.674  0.00  0.00    +0.190 C 
ATOM     10  C   LIG    1        5.718   4.938  -0.625  0.00  0.00    +0.030 C 
ATOM     11  C   LIG    1        6.648   4.534  -2.917  0.00  0.00    +0.040 C 
ENDROOT
BRANCH   6  12
ATOM     12  C   LIG    1        1.533   3.432  -3.479  0.00  0.00    +0.330 A 
ATOM     13  C   LIG    1        1.348   4.741  -3.805  0.00  0.00    -0.090 A 
ATOM     14  C   LIG    1        0.073   4.867  -4.364  0.00  0.00    +0.260 A 
ATOM     15  N   LIG    1       -0.487   3.685  -4.381  0.00  0.00    -0.290 NA
ATOM     16  N   LIG    1        0.409   2.764  -3.824  0.00  0.00    -0.390 N 
BRANCH  16  17
ATOM     17  C   LIG    1        0.173   1.328  -3.651  0.00  0.00    +0.290 C 
ATOM     18  C   LIG    1       -0.086   0.678  -5.021  0.00  0.00    +0.080 C 
ATOM     19  C   LIG    1       -0.647  -0.740  -4.741  0.00  0.00    -0.300 C 
ATOM     20  S   LIG    1       -1.826  -0.438  -3.370  0.00  0.00    +2.400 S 
ATOM     21  O   LIG    1       -1.679  -1.456  -2.390  0.00  0.00    -0.930 OA
ATOM     22  O   LIG    1       -3.110  -0.152  -3.907  0.00  0.00    -0.920 OA
ATOM     23  C   LIG    1       -1.067   1.110  -2.762  0.00  0.00    -0.310 C 
ENDBRANCH  16  17
ENDBRANCH   6  12
BRANCH   1  24
ATOM     24  C   LIG    1        8.469   3.161  -1.552  0.00  0.00    +0.040 C 
BRANCH  24  26
ATOM     25  C   LIG    1        9.166   0.763  -1.486  0.00  0.00    +0.020 C 
ATOM     26  C   LIG    1        9.439   2.159  -0.923  0.00  0.00    -0.070 C 
ATOM     27  C   LIG    1        9.245   2.145   0.594  0.00  0.00    +0.020 C 
ATOM     28  C   LIG    1       10.877   2.568  -1.250  0.00  0.00    +0.020 C 
ENDBRANCH  24  26
ENDBRANCH   1  24
TORSDOF 4
