REMARK  Name = ZINCwl0000000flq.0
REMARK                            x       y       z     vdW  Elec       q    Type
REMARK                         _______ _______ _______ _____ _____    ______ ____
ROOT
ATOM      1  C   LIG    1       -4.285   0.181   6.186  0.00  0.00    +0.250 C 
ATOM      2  C   LIG    1       -3.094  -0.015   7.088  0.00  0.00    +0.400 C 
ATOM      3  N   LIG    1       -3.047  -0.843   8.091  0.00  0.00    -0.380 N 
ATOM      4  C   LIG    1       -1.832  -0.764   8.691  0.00  0.00    +0.060 A 
ATOM      5  C   LIG    1       -1.256  -1.408   9.789  0.00  0.00    +0.070 A 
ATOM      6  C   LIG    1        0.024  -1.107  10.161  0.00  0.00    +0.080 A 
ATOM      7  C   LIG    1        0.761  -0.164   9.459  0.00  0.00    +0.090 A 
ATOM      8  C   LIG    1        0.213   0.485   8.373  0.00  0.00    +0.060 A 
ATOM      9  C   LIG    1       -1.085   0.191   7.980  0.00  0.00    +0.090 A 
ATOM     10  N   LIG    1       -1.910   0.644   6.969  0.00  0.00    -0.420 N 
ENDROOT
BRANCH   3  11
ATOM     11  C   LIG    1       -4.141  -1.721   8.512  0.00  0.00    +0.360 C 
BRANCH  11  12
ATOM     12  C   LIG    1       -5.006  -1.001   9.514  0.00  0.00    +0.500 C 
ATOM     13  N   LIG    1       -6.081  -1.618  10.044  0.00  0.00    -0.600 N 
ATOM     14  C   LIG    1       -6.940  -0.935  11.024  0.00  0.00    +0.280 C 
ATOM     15  C   LIG    1       -8.397  -1.067  10.565  0.00  0.00    +0.150 C 
ATOM     16  O   LIG    1       -8.689  -2.444  10.315  0.00  0.00    -0.370 OA
ATOM     17  C   LIG    1       -7.911  -3.026   9.266  0.00  0.00    +0.150 C 
ATOM     18  C   LIG    1       -8.351  -4.475   9.048  0.00  0.00    +0.080 C 
ATOM     19  C   LIG    1       -9.327  -0.537  11.658  0.00  0.00    +0.070 C 
ATOM     20  C   LIG    1       -6.433  -2.993   9.655  0.00  0.00    +0.260 C 
ATOM     21  O   LIG    1       -4.735   0.135   9.844  0.00  0.00    -0.520 OA
ENDBRANCH  11  12
ENDBRANCH   3  11
BRANCH  10  22
ATOM     22  C   LIG    1       -1.574   1.651   5.960  0.00  0.00    +0.370 C 
BRANCH  22  23
ATOM     23  C   LIG    1       -0.970   0.975   4.757  0.00  0.00    +0.500 C 
ATOM     24  N   LIG    1       -0.581   1.710   3.696  0.00  0.00    -0.600 N 
ATOM     25  C   LIG    1        0.012   1.072   2.509  0.00  0.00    +0.280 C 
ATOM     26  C   LIG    1       -0.729   1.579   1.267  0.00  0.00    +0.140 C 
ATOM     27  O   LIG    1       -0.744   3.009   1.278  0.00  0.00    -0.360 OA
ATOM     28  C   LIG    1       -1.442   3.578   2.389  0.00  0.00    +0.190 C 
ATOM     29  C   LIG    1       -2.882   3.062   2.406  0.00  0.00    +0.020 C 
ATOM     30  C   LIG    1       -0.013   1.086   0.008  0.00  0.00    +0.070 C 
ATOM     31  C   LIG    1       -0.737   3.173   3.689  0.00  0.00    +0.260 C 
ATOM     32  O   LIG    1       -0.833  -0.230   4.743  0.00  0.00    -0.520 OA
ENDBRANCH  22  23
ENDBRANCH  10  22
TORSDOF 4
