REMARK  Name = ZINCtV00001bB3bJ.0
REMARK                            x       y       z     vdW  Elec       q    Type
REMARK                         _______ _______ _______ _____ _____    ______ ____
ROOT
ATOM      1  C   LIG    1        0.262  -6.339   3.166  0.00  0.00    -0.050 A 
ATOM      2  C   LIG    1        0.632  -7.125   2.071  0.00  0.00    +0.070 A 
ATOM      3  C   LIG    1        0.608  -8.498   2.172  0.00  0.00    +0.010 A 
ATOM      4  C   LIG    1        0.205  -9.104   3.357  0.00  0.00    +0.170 A 
ATOM      5  C   LIG    1       -0.169  -8.325   4.447  0.00  0.00    +0.010 A 
ATOM      6  C   LIG    1       -0.142  -6.950   4.356  0.00  0.00    +0.050 A 
ENDROOT
BRANCH   1   8
ATOM      7  N   LIG    1        0.667  -4.302   1.957  0.00  0.00    -0.230 NA
ATOM      8  C   LIG    1        0.292  -4.869   3.063  0.00  0.00    +0.210 C 
BRANCH   7   9
ATOM      9  N   LIG    1        0.696  -2.905   1.860  0.00  0.00    -0.580 N 
ATOM     10  H   LIG    1        0.435  -2.361   2.619  0.00  0.00    +0.390 HD
BRANCH   9  16
ATOM     11  C   LIG    1        1.560   1.191  -0.713  0.00  0.00    +0.090 C 
ATOM     12  C   LIG    1        1.528  -0.311  -0.605  0.00  0.00    -0.050 A 
ATOM     13  C   LIG    1        1.893  -1.089  -1.689  0.00  0.00    -0.040 A 
ATOM     14  C   LIG    1        1.871  -2.469  -1.593  0.00  0.00    +0.040 A 
ATOM     15  C   LIG    1        1.473  -3.075  -0.418  0.00  0.00    -0.030 A 
ATOM     16  C   LIG    1        1.099  -2.296   0.671  0.00  0.00    +0.210 A 
ATOM     17  C   LIG    1        1.128  -0.910   0.573  0.00  0.00    -0.060 A 
ENDBRANCH   9  16
ENDBRANCH   7   9
ENDBRANCH   1   8
BRANCH   4  18
ATOM     18  N   LIG    1        0.177 -10.496   3.454  0.00  0.00    -0.540 N 
BRANCH  18  19
ATOM     19  C   LIG    1        1.117 -11.162   4.246  0.00  0.00    +0.200 A 
ATOM     20  C   LIG    1        2.155 -10.452   4.839  0.00  0.00    -0.060 A 
ATOM     21  C   LIG    1        3.079 -11.111   5.625  0.00  0.00    +0.040 A 
ATOM     22  C   LIG    1        2.979 -12.478   5.814  0.00  0.00    -0.040 A 
ATOM     23  C   LIG    1        1.951 -13.188   5.221  0.00  0.00    +0.040 A 
ATOM     24  C   LIG    1        1.020 -12.534   4.438  0.00  0.00    -0.060 A 
ENDBRANCH  18  19
BRANCH  18  25
ATOM     25  C   LIG    1       -0.792 -11.226   2.759  0.00  0.00    +0.150 A 
ATOM     26  C   LIG    1       -0.430 -11.992   1.658  0.00  0.00    +0.000 A 
ATOM     27  C   LIG    1       -1.389 -12.715   0.977  0.00  0.00    +0.020 A 
ATOM     28  C   LIG    1       -2.710 -12.669   1.383  0.00  0.00    +0.010 A 
ATOM     29  C   LIG    1       -3.075 -11.903   2.475  0.00  0.00    +0.020 A 
ATOM     30  C   LIG    1       -2.120 -11.182   3.164  0.00  0.00    +0.000 A 
ENDBRANCH  18  25
ENDBRANCH   4  18
TORSDOF 6
