REMARK  Name = ZINCBI0000000iQA.1
REMARK                            x       y       z     vdW  Elec       q    Type
REMARK                         _______ _______ _______ _____ _____    ______ ____
ROOT
ATOM      1  O   LIG    1       -4.052   3.273  -0.361  0.00  0.00    -0.580 OA
ATOM      2  C   LIG    1       -3.358   3.022  -1.327  0.00  0.00    +0.710 C 
ATOM      3  N   LIG    1       -3.687   3.513  -2.539  0.00  0.00    -0.750 N 
ATOM      4  H   LIG    1       -3.133   3.312  -3.310  0.00  0.00    +0.400 HD
ATOM      5  N   LIG    1       -2.260   2.253  -1.187  0.00  0.00    -0.730 N 
ATOM      6  H   LIG    1       -1.706   2.053  -1.958  0.00  0.00    +0.400 HD
ENDROOT
BRANCH   3   7
ATOM      7  C   LIG    1       -4.880   4.349  -2.692  0.00  0.00    +0.280 C 
BRANCH   7   8
ATOM      8  C   LIG    1       -5.024   4.771  -4.155  0.00  0.00    +0.200 C 
BRANCH   8   9
ATOM      9  O   LIG    1       -3.869   5.513  -4.552  0.00  0.00    -0.550 OA
ATOM     10  H   LIG    1       -3.721   6.317  -4.036  0.00  0.00    +0.390 HD
ENDBRANCH   8   9
BRANCH   8  11
ATOM     11  C   LIG    1       -6.270   5.644  -4.314  0.00  0.00    +0.250 C 
BRANCH  11  12
ATOM     12  N   LIG    1       -6.409   6.046  -5.720  0.00  0.00    -0.380 N 
ATOM     13  C   LIG    1       -6.696   4.863  -6.545  0.00  0.00    +0.260 C 
ATOM     14  C   LIG    1       -6.535   5.243  -8.017  0.00  0.00    +0.120 C 
ATOM     15  C   LIG    1       -7.325   6.492  -8.312  0.00  0.00    -0.090 A 
ATOM     16  C   LIG    1       -7.593   6.813  -9.633  0.00  0.00    +0.040 A 
ATOM     17  C   LIG    1       -8.310   7.953  -9.942  0.00  0.00    +0.050 A 
ATOM     18  C   LIG    1       -8.762   8.776  -8.928  0.00  0.00    +0.030 A 
ATOM     19  C   LIG    1       -8.496   8.456  -7.611  0.00  0.00    +0.040 A 
ATOM     20  C   LIG    1       -7.778   7.312  -7.300  0.00  0.00    -0.140 A 
ATOM     21  C   LIG    1       -7.515   7.000  -5.850  0.00  0.00    +0.330 C 
ATOM     22  H   LIG    1       -5.553   6.477  -6.035  0.00  0.00    +0.430 HD
ENDBRANCH  11  12
ENDBRANCH   8  11
ENDBRANCH   7   8
ENDBRANCH   3   7
BRANCH   5  23
ATOM     23  C   LIG    1       -1.903   1.720   0.130  0.00  0.00    +0.350 C 
BRANCH  23  24
ATOM     24  C   LIG    1       -0.580   1.003   0.040  0.00  0.00    -0.100 A 
ATOM     25  C   LIG    1       -0.539  -0.376   0.057  0.00  0.00    +0.030 A 
ATOM     26  C   LIG    1        0.674  -1.035  -0.032  0.00  0.00    +0.020 A 
ATOM     27  C   LIG    1        1.851  -0.317  -0.138  0.00  0.00    +0.030 A 
ATOM     28  C   LIG    1        1.822   1.063  -0.156  0.00  0.00    +0.030 A 
ATOM     29  C   LIG    1        0.603   1.732  -0.067  0.00  0.00    -0.040 A 
BRANCH  29  30
ATOM     30  C   LIG    1        0.565   3.215  -0.087  0.00  0.00    -0.030 A 
ATOM     31  C   LIG    1        1.130   3.916  -1.151  0.00  0.00    +0.020 A 
ATOM     32  C   LIG    1        1.087   5.295  -1.166  0.00  0.00    +0.020 A 
ATOM     33  C   LIG    1        0.493   5.983  -0.123  0.00  0.00    -0.120 A 
ATOM     34  C   LIG    1       -0.065   5.293   0.938  0.00  0.00    +0.040 A 
ATOM     35  C   LIG    1       -0.032   3.913   0.961  0.00  0.00    +0.030 A 
BRANCH  33  36
ATOM     36  C   LIG    1        0.455   7.489  -0.143  0.00  0.00    +0.350 C 
BRANCH  36  37
ATOM     37  N   LIG    1        1.654   8.017   0.513  0.00  0.00    -0.460 N 
ATOM     38  C   LIG    1        2.847   8.310  -0.090  0.00  0.00    +0.110 A 
ATOM     39  C   LIG    1        3.669   8.767   0.875  0.00  0.00    +0.140 A 
ATOM     40  N   LIG    1        2.996   8.753   2.034  0.00  0.00    -0.490 NA
ATOM     41  C   LIG    1        1.786   8.310   1.825  0.00  0.00    +0.380 A 
ENDBRANCH  36  37
ENDBRANCH  33  36
ENDBRANCH  29  30
ENDBRANCH  23  24
ENDBRANCH   5  23
TORSDOF 10
