REMARK  Name = ZINCBI0000000iQA.0
REMARK                            x       y       z     vdW  Elec       q    Type
REMARK                         _______ _______ _______ _____ _____    ______ ____
ROOT
ATOM      1  O   LIG    1        2.204  -2.027  -6.168  0.00  0.00    -0.580 OA
ATOM      2  C   LIG    1        1.594  -2.673  -5.337  0.00  0.00    +0.710 C 
ATOM      3  N   LIG    1        0.723  -2.058  -4.513  0.00  0.00    -0.750 N 
ATOM      4  H   LIG    1        0.236  -2.574  -3.850  0.00  0.00    +0.400 HD
ATOM      5  N   LIG    1        1.790  -4.003  -5.241  0.00  0.00    -0.730 N 
ATOM      6  H   LIG    1        1.303  -4.518  -4.578  0.00  0.00    +0.400 HD
ENDROOT
BRANCH   3   7
ATOM      7  C   LIG    1        0.510  -0.613  -4.617  0.00  0.00    +0.280 C 
BRANCH   7   8
ATOM      8  C   LIG    1       -0.520  -0.172  -3.575  0.00  0.00    +0.200 C 
BRANCH   8   9
ATOM      9  O   LIG    1       -1.754  -0.853  -3.808  0.00  0.00    -0.550 OA
ATOM     10  H   LIG    1       -2.139  -0.683  -4.679  0.00  0.00    +0.390 HD
ENDBRANCH   8   9
BRANCH   8  11
ATOM     11  C   LIG    1       -0.742   1.338  -3.685  0.00  0.00    +0.250 C 
BRANCH  11  12
ATOM     12  N   LIG    1       -1.638   1.780  -2.609  0.00  0.00    -0.380 N 
ATOM     13  C   LIG    1       -1.939   3.211  -2.775  0.00  0.00    +0.270 C 
ATOM     14  C   LIG    1       -3.099   3.576  -1.847  0.00  0.00    +0.110 C 
ATOM     15  C   LIG    1       -2.804   3.095  -0.449  0.00  0.00    -0.090 A 
ATOM     16  C   LIG    1       -3.547   3.610   0.601  0.00  0.00    +0.040 A 
ATOM     17  C   LIG    1       -3.307   3.192   1.895  0.00  0.00    +0.050 A 
ATOM     18  C   LIG    1       -2.322   2.255   2.143  0.00  0.00    +0.040 A 
ATOM     19  C   LIG    1       -1.581   1.742   1.097  0.00  0.00    +0.040 A 
ATOM     20  C   LIG    1       -1.820   2.162  -0.203  0.00  0.00    -0.130 A 
ATOM     21  C   LIG    1       -0.985   1.578  -1.312  0.00  0.00    +0.320 C 
ATOM     22  H   LIG    1       -2.495   1.248  -2.642  0.00  0.00    +0.430 HD
ENDBRANCH  11  12
ENDBRANCH   8  11
ENDBRANCH   7   8
ENDBRANCH   3   7
BRANCH   5  23
ATOM     23  C   LIG    1        2.736  -4.671  -6.137  0.00  0.00    +0.340 C 
BRANCH  23  24
ATOM     24  C   LIG    1        2.671  -6.160  -5.918  0.00  0.00    -0.100 A 
ATOM     25  C   LIG    1        3.680  -6.803  -5.231  0.00  0.00    +0.030 A 
ATOM     26  C   LIG    1        3.621  -8.171  -5.029  0.00  0.00    +0.020 A 
ATOM     27  C   LIG    1        2.551  -8.901  -5.513  0.00  0.00    +0.030 A 
ATOM     28  C   LIG    1        1.536  -8.268  -6.202  0.00  0.00    +0.030 A 
ATOM     29  C   LIG    1        1.587  -6.890  -6.403  0.00  0.00    -0.040 A 
BRANCH  29  30
ATOM     30  C   LIG    1        0.495  -6.204  -7.136  0.00  0.00    -0.030 A 
ATOM     31  C   LIG    1       -0.823  -6.323  -6.700  0.00  0.00    +0.020 A 
ATOM     32  C   LIG    1       -1.834  -5.678  -7.383  0.00  0.00    +0.020 A 
ATOM     33  C   LIG    1       -1.542  -4.922  -8.504  0.00  0.00    -0.120 A 
ATOM     34  C   LIG    1       -0.236  -4.805  -8.945  0.00  0.00    +0.040 A 
ATOM     35  C   LIG    1        0.783  -5.441  -8.266  0.00  0.00    +0.030 A 
BRANCH  33  36
ATOM     36  C   LIG    1       -2.651  -4.225  -9.249  0.00  0.00    +0.350 C 
BRANCH  36  37
ATOM     37  N   LIG    1       -3.178  -5.116 -10.286  0.00  0.00    -0.460 N 
ATOM     38  C   LIG    1       -4.204  -6.011 -10.144  0.00  0.00    +0.110 A 
ATOM     39  C   LIG    1       -4.360  -6.618 -11.336  0.00  0.00    +0.140 A 
ATOM     40  N   LIG    1       -3.454  -6.108 -12.183  0.00  0.00    -0.490 NA
ATOM     41  C   LIG    1       -2.747  -5.203 -11.563  0.00  0.00    +0.380 A 
ENDBRANCH  36  37
ENDBRANCH  33  36
ENDBRANCH  29  30
ENDBRANCH  23  24
ENDBRANCH   5  23
TORSDOF 10
