REMARK  Name = ZINCpk000000mR0O.0
REMARK                            x       y       z     vdW  Elec       q    Type
REMARK                         _______ _______ _______ _____ _____    ______ ____
ROOT
ATOM      1  N   LIG    1       -1.156  -0.694   0.009  0.00  0.00    -0.740 N 
ATOM      2  H   LIG    1       -2.002  -0.220   0.020  0.00  0.00    +0.400 HD
ATOM      3  C   LIG    1        0.002  -0.004   0.002  0.00  0.00    +0.710 C 
ATOM      4  N   LIG    1       -0.016   1.344   0.009  0.00  0.00    -0.630 N 
ATOM      5  C   LIG    1       -1.295   2.059   0.019  0.00  0.00    +0.290 C 
ATOM      6  O   LIG    1        1.063  -0.598  -0.011  0.00  0.00    -0.590 OA
ENDROOT
BRANCH   1  12
ATOM      7  C   LIG    1       -2.671  -6.096  -2.693  0.00  0.00    +0.090 C 
ATOM      8  C   LIG    1       -2.951  -5.608  -1.295  0.00  0.00    +0.510 C 
ATOM      9  N   LIG    1       -2.131  -4.706  -0.719  0.00  0.00    -0.620 N 
ATOM     10  C   LIG    1       -2.391  -4.221   0.643  0.00  0.00    +0.280 C 
ATOM     11  C   LIG    1       -2.430  -2.689   0.621  0.00  0.00    +0.010 C 
ATOM     12  C   LIG    1       -1.136  -2.159   0.001  0.00  0.00    +0.250 C 
ATOM     13  C   LIG    1       -1.016  -2.659  -1.440  0.00  0.00    +0.000 C 
ATOM     14  C   LIG    1       -0.961  -4.190  -1.442  0.00  0.00    +0.280 C 
ATOM     15  O   LIG    1       -3.914  -6.026  -0.688  0.00  0.00    -0.540 OA
ENDBRANCH   1  12
BRANCH   4  16
ATOM     16  C   LIG    1        1.242   2.093   0.001  0.00  0.00    +0.350 C 
BRANCH  16  17
ATOM     17  C   LIG    1        1.667   2.362  -1.444  0.00  0.00    +0.130 C 
ATOM     18  C   LIG    1        3.045   3.037  -1.462  0.00  0.00    +0.240 C 
ATOM     19  O   LIG    1        3.405   3.285  -2.825  0.00  0.00    -0.300 OA
ATOM     20  C   LIG    1        2.448   3.836  -3.620  0.00  0.00    +0.050 A 
ATOM     21  C   LIG    1        2.816   4.424  -4.821  0.00  0.00    +0.020 A 
ATOM     22  C   LIG    1        1.855   4.986  -5.640  0.00  0.00    +0.010 A 
ATOM     23  C   LIG    1        0.524   4.961  -5.266  0.00  0.00    +0.010 A 
ATOM     24  C   LIG    1        0.151   4.377  -4.070  0.00  0.00    +0.010 A 
ATOM     25  C   LIG    1        1.110   3.814  -3.243  0.00  0.00    +0.050 A 
ATOM     26  O   LIG    1        0.728   3.245  -2.067  0.00  0.00    -0.300 OA
ENDBRANCH  16  17
ENDBRANCH   4  16
TORSDOF 3
