REMARK  Name = ZINCtV000002PT6Z.0
REMARK                            x       y       z     vdW  Elec       q    Type
REMARK                         _______ _______ _______ _____ _____    ______ ____
ROOT
ATOM      1  C   LIG    1        0.729  -2.677  -1.102  0.00  0.00    +0.420 A 
ATOM      2  C   LIG    1        0.632  -4.092  -1.124  0.00  0.00    -0.190 A 
ATOM      3  C   LIG    1        0.991  -5.071  -0.121  0.00  0.00    +0.080 A 
ATOM      4  C   LIG    1        0.758  -6.336  -0.471  0.00  0.00    -0.130 A 
ATOM      5  S   LIG    1        0.063  -6.432  -2.079  0.00  0.00    +0.210 S 
ATOM      6  C   LIG    1        0.096  -4.686  -2.273  0.00  0.00    +0.110 A 
ATOM      7  N   LIG    1       -0.289  -3.905  -3.289  0.00  0.00    -0.510 NA
ATOM      8  C   LIG    1       -0.173  -2.599  -3.221  0.00  0.00    +0.560 A 
ATOM      9  N   LIG    1        0.322  -1.991  -2.158  0.00  0.00    -0.570 NA
ENDROOT
BRANCH   4  10
ATOM     10  C   LIG    1        1.046  -7.506   0.385  0.00  0.00    -0.020 A 
ATOM     11  C   LIG    1        1.606  -7.328   1.651  0.00  0.00    +0.030 A 
ATOM     12  C   LIG    1        1.869  -8.424   2.446  0.00  0.00    +0.020 A 
ATOM     13  C   LIG    1        1.587  -9.699   1.988  0.00  0.00    +0.020 A 
ATOM     14  C   LIG    1        1.038  -9.883   0.731  0.00  0.00    +0.020 A 
ATOM     15  C   LIG    1        0.766  -8.795  -0.072  0.00  0.00    +0.010 A 
ENDBRANCH   4  10
BRANCH   1  16
ATOM     16  O   LIG    1        1.235  -2.039  -0.020  0.00  0.00    -0.230 OA
BRANCH  16  20
ATOM     17  C   LIG    1        1.107   2.084   0.033  0.00  0.00    -0.070 A 
ATOM     18  C   LIG    1       -0.057   1.356   0.193  0.00  0.00    +0.030 A 
ATOM     19  C   LIG    1       -0.017  -0.025   0.176  0.00  0.00    +0.020 A 
ATOM     20  C   LIG    1        1.193  -0.681  -0.003  0.00  0.00    +0.080 A 
ATOM     21  C   LIG    1        2.360   0.053  -0.164  0.00  0.00    +0.020 A 
ATOM     22  C   LIG    1        2.314   1.433  -0.146  0.00  0.00    +0.030 A 
BRANCH  17  23
ATOM     23  C   LIG    1        1.061   3.590   0.052  0.00  0.00    +0.140 C 
BRANCH  23  27
ATOM     24  C   LIG    1        1.587   4.980   4.057  0.00  0.00    +0.000 A 
ATOM     25  C   LIG    1        2.687   4.794   3.240  0.00  0.00    +0.000 A 
ATOM     26  C   LIG    1        2.516   4.344   1.944  0.00  0.00    +0.010 A 
ATOM     27  C   LIG    1        1.247   4.080   1.465  0.00  0.00    -0.080 A 
ATOM     28  C   LIG    1        0.147   4.272   2.281  0.00  0.00    +0.010 A 
ATOM     29  C   LIG    1        0.318   4.717   3.578  0.00  0.00    +0.000 A 
ENDBRANCH  23  27
ENDBRANCH  17  23
ENDBRANCH  16  20
ENDBRANCH   1  16
TORSDOF 5
