REMARK  Name = ZINCvU00000009AX.0
REMARK                            x       y       z     vdW  Elec       q    Type
REMARK                         _______ _______ _______ _____ _____    ______ ____
ROOT
ATOM      1  N   LIG    1        3.756   5.789  -2.935  0.00  0.00    -0.480 N 
ATOM      2  C   LIG    1        4.260   4.744  -3.684  0.00  0.00    +0.060 A 
ATOM      3  C   LIG    1        3.716   3.581  -4.210  0.00  0.00    +0.010 A 
ATOM      4  C   LIG    1        4.514   2.720  -4.934  0.00  0.00    +0.030 A 
ATOM      5  C   LIG    1        5.855   3.010  -5.139  0.00  0.00    +0.000 A 
ATOM      6  C   LIG    1        6.408   4.150  -4.629  0.00  0.00    +0.070 A 
ATOM      7  C   LIG    1        5.619   5.037  -3.892  0.00  0.00    +0.040 A 
ATOM      8  N   LIG    1        5.868   6.220  -3.273  0.00  0.00    -0.480 NA
ATOM      9  C   LIG    1        4.777   6.661  -2.719  0.00  0.00    +0.290 A 
ENDROOT
BRANCH   1  10
ATOM     10  C   LIG    1        2.376   5.934  -2.466  0.00  0.00    +0.280 C 
BRANCH  10  11
ATOM     11  C   LIG    1        2.240   5.303  -1.079  0.00  0.00    +0.210 C 
BRANCH  11  12
ATOM     12  O   LIG    1        2.448   3.892  -1.174  0.00  0.00    -0.530 OA
ATOM     13  H   LIG    1        1.822   3.441  -1.756  0.00  0.00    +0.370 HD
ENDBRANCH  11  12
BRANCH  11  14
ATOM     14  C   LIG    1        0.838   5.575  -0.530  0.00  0.00    +0.180 C 
BRANCH  14  15
ATOM     15  N   LIG    1        0.707   4.969   0.802  0.00  0.00    -0.480 N 
ATOM     16  C   LIG    1        1.536   5.674   1.783  0.00  0.00    +0.210 C 
ATOM     17  C   LIG    1        0.896   7.037   2.076  0.00  0.00    -0.010 C 
ATOM     18  C   LIG    1       -0.416   6.791   2.824  0.00  0.00    +0.080 C 
ATOM     19  C   LIG    1       -1.207   5.716   2.120  0.00  0.00    -0.120 A 
ATOM     20  C   LIG    1       -2.549   5.580   2.436  0.00  0.00    +0.020 A 
ATOM     21  C   LIG    1       -3.316   4.604   1.832  0.00  0.00    -0.010 A 
ATOM     22  C   LIG    1       -2.745   3.761   0.895  0.00  0.00    +0.010 A 
ATOM     23  C   LIG    1       -1.412   3.896   0.570  0.00  0.00    +0.000 A 
ATOM     24  C   LIG    1       -0.631   4.878   1.181  0.00  0.00    +0.110 A 
ENDBRANCH  14  15
ENDBRANCH  11  14
ENDBRANCH  10  11
ENDBRANCH   1  10
BRANCH   9  25
ATOM     25  C   LIG    1        4.662   7.950  -1.945  0.00  0.00    +0.200 C 
BRANCH  25  26
ATOM     26  C   LIG    1        4.433   9.091  -2.902  0.00  0.00    -0.080 A 
ATOM     27  C   LIG    1        5.509   9.700  -3.522  0.00  0.00    +0.060 A 
ATOM     28  C   LIG    1        5.299  10.743  -4.403  0.00  0.00    +0.030 A 
ATOM     29  C   LIG    1        4.013  11.186  -4.657  0.00  0.00    -0.030 A 
ATOM     30  C   LIG    1        2.938  10.580  -4.033  0.00  0.00    +0.020 A 
ATOM     31 CL   LIG    1        3.750  12.502  -5.758  0.00  0.00    -0.070 Cl
ATOM     32  C   LIG    1        3.148   9.533  -3.156  0.00  0.00    +0.030 A 
ENDBRANCH  25  26
ENDBRANCH   9  25
TORSDOF 7
