REMARK  Name = ZINCrH00000No4Vf.0
REMARK                            x       y       z     vdW  Elec       q    Type
REMARK                         _______ _______ _______ _____ _____    ______ ____
ROOT
ATOM      1  N   LIG    1       -5.950   1.049   8.746  0.00  0.00    -0.670 N 
ATOM      2  H   LIG    1       -5.667   0.141   8.939  0.00  0.00    +0.420 HD
ATOM      3  C   LIG    1       -5.451   1.696   7.674  0.00  0.00    +0.560 C 
ATOM      4  O   LIG    1       -5.876   2.798   7.376  0.00  0.00    -0.520 OA
ENDROOT
BRANCH   1   8
ATOM      5  C   LIG    1       -8.704   2.945  11.229  0.00  0.00    -0.700 A 
ATOM      6  C   LIG    1       -8.785   1.580  11.024  0.00  0.00    +0.150 A 
ATOM      7  C   LIG    1       -7.874   0.948  10.201  0.00  0.00    -0.030 A 
ATOM      8  C   LIG    1       -6.875   1.685   9.579  0.00  0.00    +0.210 A 
ATOM      9  C   LIG    1       -6.793   3.056   9.791  0.00  0.00    +0.010 A 
ATOM     10  C   LIG    1       -7.711   3.682  10.611  0.00  0.00    +0.140 A 
BRANCH   5  11
ATOM     11  S   LIG    1       -9.870   3.747  12.279  0.00  0.00    +2.700 S 
ATOM     12  O   LIG    1      -11.023   2.917  12.306  0.00  0.00    -0.960 OA
ATOM     13  O   LIG    1       -9.902   5.109  11.876  0.00  0.00    -0.950 OA
BRANCH  11  14
ATOM     14  N   LIG    1       -9.243   3.728  13.812  0.00  0.00    -1.110 NA
ATOM     15  H   LIG    1       -9.688   3.225  14.511  0.00  0.00    +0.420 HD
BRANCH  14  17
ATOM     16  C   LIG    1       -8.377   5.848  14.669  0.00  0.00    +0.020 C 
ATOM     17  C   LIG    1       -8.016   4.470  14.111  0.00  0.00    +0.230 C 
ATOM     18  C   LIG    1       -7.193   3.700  15.146  0.00  0.00    +0.030 C 
ENDBRANCH  14  17
ENDBRANCH  11  14
ENDBRANCH   5  11
ENDBRANCH   1   8
BRANCH   3  19
ATOM     19  C   LIG    1       -4.434   1.096   6.895  0.00  0.00    -0.090 C 
ATOM     20  C   LIG    1       -3.932   1.748   5.816  0.00  0.00    +0.190 C 
BRANCH  20  21
ATOM     21  C   LIG    1       -2.914   1.147   5.037  0.00  0.00    -0.030 A 
ATOM     22  C   LIG    1       -2.343  -0.089   5.259  0.00  0.00    +0.020 A 
ATOM     23  C   LIG    1       -1.386  -0.274   4.249  0.00  0.00    -0.050 A 
ATOM     24  C   LIG    1       -1.410   0.829   3.469  0.00  0.00    +0.060 A 
ATOM     25  O   LIG    1       -2.325   1.683   3.948  0.00  0.00    -0.160 OA
BRANCH  24  26
ATOM     26  C   LIG    1       -0.543   1.064   2.259  0.00  0.00    +0.050 C 
ATOM     27  C   LIG    1       -0.575   2.457   1.627  0.00  0.00    +0.050 C 
ATOM     28  C   LIG    1       -1.246   1.280   0.917  0.00  0.00    -0.020 C 
ATOM     29  C   LIG    1       -0.562   0.727  -0.335  0.00  0.00    +0.060 C 
ENDBRANCH  24  26
ENDBRANCH  20  21
ENDBRANCH   3  19
TORSDOF 7
