REMARK  Name = ZINCrD000000AATf.0
REMARK                            x       y       z     vdW  Elec       q    Type
REMARK                         _______ _______ _______ _____ _____    ______ ____
ROOT
ATOM      1  O   LIG    1        2.185  -5.780  -4.563  0.00  0.00    -0.520 OA
ATOM      2  C   LIG    1        1.449  -4.820  -4.476  0.00  0.00    +0.520 C 
ATOM      3  N   LIG    1        1.792  -3.778  -3.693  0.00  0.00    -0.620 N 
ATOM      4  C   LIG    1        3.053  -3.784  -2.936  0.00  0.00    +0.300 C 
ATOM      5  C   LIG    1        2.744  -3.446  -1.474  0.00  0.00    +0.190 C 
ATOM      6  N   LIG    1        1.990  -2.187  -1.414  0.00  0.00    -0.530 NA
ATOM      7  C   LIG    1        0.690  -2.312  -2.087  0.00  0.00    +0.170 C 
ATOM      8  C   LIG    1        0.914  -2.603  -3.574  0.00  0.00    +0.280 C 
ENDROOT
BRANCH   6   9
ATOM      9  C   LIG    1        1.823  -1.740  -0.025  0.00  0.00    +0.360 C 
BRANCH   9  10
ATOM     10  C   LIG    1        1.268  -0.339  -0.012  0.00  0.00    +0.200 A 
ATOM     11  N   LIG    1        0.002  -0.004   0.002  0.00  0.00    -0.470 NA
ATOM     12  C   LIG    1       -0.016   1.350   0.009  0.00  0.00    +0.240 A 
ATOM     13  N   LIG    1        1.231   1.752  -0.000  0.00  0.00    -0.360 NA
ATOM     14  O   LIG    1        1.976   0.795  -0.013  0.00  0.00    +0.100 OA
BRANCH  12  15
ATOM     15  C   LIG    1       -1.216   2.211   0.020  0.00  0.00    -0.140 A 
ATOM     16  C   LIG    1       -1.207   3.560   0.033  0.00  0.00    +0.060 A 
ATOM     17  C   LIG    1       -2.455   4.145   0.038  0.00  0.00    +0.010 A 
ATOM     18  C   LIG    1       -3.482   3.289   0.038  0.00  0.00    -0.030 A 
ATOM     19  S   LIG    1       -2.879   1.637   0.026  0.00  0.00    +0.180 S 
ENDBRANCH  12  15
ENDBRANCH   9  10
ENDBRANCH   6   9
BRANCH   2  20
ATOM     20  C   LIG    1        0.152  -4.793  -5.243  0.00  0.00    +0.110 C 
BRANCH  20  21
ATOM     21  C   LIG    1        0.010  -6.068  -6.034  0.00  0.00    -0.060 A 
ATOM     22  C   LIG    1        0.404  -6.107  -7.358  0.00  0.00    +0.030 A 
ATOM     23  C   LIG    1        0.277  -7.279  -8.082  0.00  0.00    +0.020 A 
ATOM     24  C   LIG    1       -0.254  -8.407  -7.486  0.00  0.00    +0.020 A 
ATOM     25  C   LIG    1       -0.653  -8.367  -6.163  0.00  0.00    +0.020 A 
ATOM     26  C   LIG    1       -0.521  -7.197  -5.436  0.00  0.00    -0.020 A 
ATOM     27 CL   LIG    1       -1.022  -7.146  -3.775  0.00  0.00    -0.070 Cl
ENDBRANCH  20  21
ENDBRANCH   2  20
TORSDOF 5
