REMARK  Name = ZINCqH0000007iQ5.1
REMARK                            x       y       z     vdW  Elec       q    Type
REMARK                         _______ _______ _______ _____ _____    ______ ____
ROOT
ATOM      1  N   LIG    1       -1.520  -3.599  -2.662  0.00  0.00    -0.680 N 
ATOM      2  H   LIG    1       -1.453  -4.153  -1.869  0.00  0.00    +0.410 HD
ATOM      3  C   LIG    1       -1.256  -2.279  -2.586  0.00  0.00    +0.700 C 
ATOM      4  N   LIG    1       -0.797  -1.749  -1.435  0.00  0.00    -0.730 N 
ATOM      5  H   LIG    1       -0.655  -2.318  -0.661  0.00  0.00    +0.410 HD
ATOM      6  O   LIG    1       -1.433  -1.567  -3.555  0.00  0.00    -0.570 OA
ENDROOT
BRANCH   1  10
ATOM      7  C   LIG    1       -2.625  -5.293  -6.312  0.00  0.00    +0.100 A 
ATOM      8  C   LIG    1       -1.839  -4.152  -6.286  0.00  0.00    -0.010 A 
ATOM      9  C   LIG    1       -1.474  -3.591  -5.077  0.00  0.00    +0.040 A 
ATOM     10  C   LIG    1       -1.892  -4.169  -3.887  0.00  0.00    +0.170 A 
ATOM     11  C   LIG    1       -2.675  -5.315  -3.909  0.00  0.00    -0.050 A 
ATOM     12  C   LIG    1       -3.047  -5.875  -5.120  0.00  0.00    +0.100 A 
BRANCH   7  14
ATOM     13  C   LIG    1       -2.516  -5.195  -8.687  0.00  0.00    +0.250 C 
ATOM     14  O   LIG    1       -2.985  -5.844  -7.503  0.00  0.00    -0.310 OA
ENDBRANCH   7  14
BRANCH  12  15
ATOM     15  O   LIG    1       -3.818  -6.995  -5.145  0.00  0.00    -0.310 OA
BRANCH  15  16
ATOM     16  C   LIG    1       -4.214  -7.537  -3.884  0.00  0.00    +0.590 C 
ATOM     17  F   LIG    1       -4.958  -6.584  -3.179  0.00  0.00    -0.200 F 
ATOM     18  F   LIG    1       -3.077  -7.880  -3.145  0.00  0.00    -0.200 F 
ENDBRANCH  15  16
ENDBRANCH  12  15
ENDBRANCH   1  10
BRANCH   4  19
ATOM     19  C   LIG    1       -0.510  -0.315  -1.352  0.00  0.00    +0.290 C 
BRANCH  19  20
ATOM     20  C   LIG    1       -0.005   0.024   0.052  0.00  0.00    +0.250 C 
BRANCH  20  21
ATOM     21  C   LIG    1        0.174   1.515   0.176  0.00  0.00    -0.220 A 
ATOM     22  C   LIG    1        1.347   2.146   0.244  0.00  0.00    +0.020 A 
ATOM     23  C   LIG    1        1.262   3.523   0.354  0.00  0.00    +0.000 A 
ATOM     24  C   LIG    1        0.021   4.011   0.376  0.00  0.00    -0.060 A 
ATOM     25  S   LIG    1       -1.133   2.690   0.245  0.00  0.00    +0.120 S 
ENDBRANCH  20  21
BRANCH  20  26
ATOM     26  N   LIG    1       -0.981  -0.437   1.048  0.00  0.00    -0.530 NA
ATOM     27  C   LIG    1       -2.347  -0.064   0.658  0.00  0.00    +0.200 C 
ATOM     28  C   LIG    1       -0.655   0.080   2.384  0.00  0.00    +0.200 C 
ENDBRANCH  20  26
ENDBRANCH  19  20
ENDBRANCH   4  19
TORSDOF 8
