REMARK  Name = ZINCpe000027pH4L.0
REMARK                            x       y       z     vdW  Elec       q    Type
REMARK                         _______ _______ _______ _____ _____    ______ ____
ROOT
ATOM      1  C   LIG    1        2.178   0.019   1.231  0.00  0.00    -0.010 C 
ATOM      2  C   LIG    1        0.742  -0.511   1.242  0.00  0.00    +0.070 C 
ATOM      3  C   LIG    1        0.002  -0.004   0.002  0.00  0.00    +0.020 C 
ATOM      4  C   LIG    1       -0.019   1.526   0.010  0.00  0.00    +0.230 C 
ATOM      5  C   LIG    1        1.417   2.055  -0.000  0.00  0.00    +0.010 C 
ATOM      6  C   LIG    1        2.157   1.548   1.239  0.00  0.00    +0.030 C 
ENDROOT
BRANCH   1   9
ATOM      7  N   LIG    1        4.194  -0.139   2.654  0.00  0.00    -0.720 N 
ATOM      8  H   LIG    1        4.652   0.429   2.014  0.00  0.00    +0.410 HD
ATOM      9  C   LIG    1        2.906  -0.480   2.452  0.00  0.00    +0.520 C 
ATOM     10  O   LIG    1        2.334  -1.190   3.252  0.00  0.00    -0.530 OA
BRANCH   7  12
ATOM     11  C   LIG    1        5.470  -2.017   3.563  0.00  0.00    +0.060 C 
ATOM     12  C   LIG    1        4.903  -0.624   3.841  0.00  0.00    +0.340 C 
BRANCH  12  13
ATOM     13  C   LIG    1        6.030   0.320   4.174  0.00  0.00    +0.260 A 
ATOM     14  N   LIG    1        6.879   0.833   3.322  0.00  0.00    -0.530 NA
ATOM     15  C   LIG    1        7.740   1.623   3.962  0.00  0.00    +0.420 A 
ATOM     16  N   LIG    1        7.450   1.623   5.236  0.00  0.00    -0.310 NA
ATOM     17  N   LIG    1        6.334   0.784   5.398  0.00  0.00    -0.370 N 
ATOM     18  C   LIG    1        5.643   0.475   6.652  0.00  0.00    +0.370 C 
ENDBRANCH  12  13
ENDBRANCH   7  12
ENDBRANCH   1   9
BRANCH   4  19
ATOM     19  N   LIG    1       -0.727   2.011  -1.176  0.00  0.00    -0.710 N 
ATOM     20  H   LIG    1       -0.775   1.459  -1.972  0.00  0.00    +0.410 HD
ATOM     21  C   LIG    1       -1.312   3.225  -1.163  0.00  0.00    +0.610 C 
ATOM     22  O   LIG    1       -1.252   3.918  -0.165  0.00  0.00    -0.520 OA
BRANCH  21  23
ATOM     23  C   LIG    1       -2.025   3.714  -2.357  0.00  0.00    -0.030 A 
ATOM     24  C   LIG    1       -2.654   4.939  -2.437  0.00  0.00    -0.030 A 
ATOM     25  S   LIG    1       -3.303   4.973  -4.030  0.00  0.00    +0.480 S 
ATOM     26  N   LIG    1       -2.783   3.559  -4.453  0.00  0.00    -0.290 NA
ATOM     27  N   LIG    1       -2.137   3.030  -3.490  0.00  0.00    -0.210 NA
ENDBRANCH  21  23
ENDBRANCH   4  19
TORSDOF 5
