REMARK  Name = ZINCrg00000SjSpj.0
REMARK                            x       y       z     vdW  Elec       q    Type
REMARK                         _______ _______ _______ _____ _____    ______ ____
ROOT
ATOM      1  N   LIG    1        3.401   2.256  -0.018  0.00  0.00    -0.490 N 
ATOM      2  C   LIG    1        4.262   1.937  -1.166  0.00  0.00    +0.180 C 
ATOM      3  C   LIG    1        5.472   2.876  -1.166  0.00  0.00    +0.250 C 
ATOM      4  O   LIG    1        6.162   2.757   0.080  0.00  0.00    -0.370 OA
ATOM      5  C   LIG    1        5.352   3.067   1.220  0.00  0.00    +0.100 C 
ATOM      6  C   LIG    1        4.863   4.510   1.113  0.00  0.00    +0.070 C 
ATOM      7  C   LIG    1        6.033   5.429   0.743  0.00  0.00    -0.270 C 
ATOM      8  S   LIG    1        7.284   5.314   2.061  0.00  0.00    +2.280 S 
ATOM      9  C   LIG    1        7.546   3.532   2.333  0.00  0.00    -0.140 C 
ATOM     10  N   LIG    1        8.558   5.888   1.534  0.00  0.00    -1.120 NA
ATOM     11  O   LIG    1        6.946   6.031   3.240  0.00  0.00    -0.920 OA
ATOM     12  C   LIG    1        6.173   2.866   2.491  0.00  0.00    +0.110 C 
ATOM     13  C   LIG    1        4.144   2.123   1.243  0.00  0.00    +0.210 C 
ENDROOT
BRANCH   1  17
ATOM     14  C   LIG    1        0.002  -0.004   0.002  0.00  0.00    +0.140 A 
ATOM     15  C   LIG    1        1.227  -0.683  -0.013  0.00  0.00    +0.110 A 
ATOM     16  C   LIG    1        2.387   0.070  -0.020  0.00  0.00    +0.020 A 
ATOM     17  C   LIG    1        2.266   1.461  -0.012  0.00  0.00    +0.270 A 
ATOM     18  N   LIG    1        1.062   2.021   0.003  0.00  0.00    -0.200 NA
ATOM     19  N   LIG    1       -0.016   1.324   0.009  0.00  0.00    -0.180 NA
BRANCH  14  21
ATOM     20  N   LIG    1       -2.202  -1.322   0.017  0.00  0.00    -0.360 NA
ATOM     21  C   LIG    1       -1.227  -0.739   0.010  0.00  0.00    +0.260 C 
ENDBRANCH  14  21
ENDBRANCH   1  17
BRANCH  10  22
ATOM     22  C   LIG    1        8.635   7.179   1.250  0.00  0.00    +0.580 C 
ATOM     23  O   LIG    1        7.669   7.897   1.419  0.00  0.00    -0.570 OA
BRANCH  22  24
ATOM     24  C   LIG    1        9.921   7.758   0.719  0.00  0.00    -0.030 C 
ATOM     25  C   LIG    1        9.946   9.257   0.410  0.00  0.00    +0.070 C 
ATOM     26  C   LIG    1       10.694   8.714   1.629  0.00  0.00    +0.180 C 
ATOM     27  F   LIG    1       10.155   8.983   2.891  0.00  0.00    -0.180 F 
ENDBRANCH  22  24
ENDBRANCH  10  22
TORSDOF 4
