REMARK  Name = ZINCpe000027pHva.0
REMARK                            x       y       z     vdW  Elec       q    Type
REMARK                         _______ _______ _______ _____ _____    ______ ____
ROOT
ATOM      1  C   LIG    1       -4.049   4.977  -0.062  0.00  0.00    +0.250 C 
ATOM      2  C   LIG    1       -5.508   4.516  -0.051  0.00  0.00    +0.010 C 
ATOM      3  C   LIG    1       -5.799   3.775   1.256  0.00  0.00    +0.000 C 
ATOM      4  C   LIG    1       -4.879   2.557   1.367  0.00  0.00    +0.010 C 
ATOM      5  C   LIG    1       -3.420   3.018   1.356  0.00  0.00    +0.030 C 
ATOM      6  C   LIG    1       -3.129   3.759   0.050  0.00  0.00    +0.020 C 
ENDROOT
BRANCH   1   7
ATOM      7  N   LIG    1       -3.811   5.873   1.072  0.00  0.00    -0.700 N 
ATOM      8  H   LIG    1       -3.452   5.522   1.901  0.00  0.00    +0.410 HD
BRANCH   7  13
ATOM      9  C   LIG    1       -4.164   9.336   1.869  0.00  0.00    +0.100 A 
ATOM     10  C   LIG    1       -4.679   9.835   0.675  0.00  0.00    +0.230 A 
ATOM     11  N   LIG    1       -4.892   9.021  -0.345  0.00  0.00    -0.400 NA
ATOM     12  C   LIG    1       -4.612   7.736  -0.238  0.00  0.00    +0.200 A 
ATOM     13  C   LIG    1       -4.100   7.228   0.959  0.00  0.00    +0.360 A 
ATOM     14  N   LIG    1       -3.886   8.039   1.982  0.00  0.00    -0.460 NA
BRANCH   9  15
ATOM     15  C   LIG    1       -3.926  10.248   3.011  0.00  0.00    +0.530 C 
ATOM     16  O   LIG    1       -4.180  11.431   2.907  0.00  0.00    -0.490 OA
BRANCH  15  18
ATOM     17  C   LIG    1       -3.219  10.716   5.242  0.00  0.00    +0.280 C 
ATOM     18  O   LIG    1       -3.427   9.765   4.165  0.00  0.00    -0.330 OA
ENDBRANCH  15  18
ENDBRANCH   9  15
ENDBRANCH   7  13
ENDBRANCH   1   7
BRANCH   6  19
ATOM     19  C   LIG    1       -1.670   4.220   0.038  0.00  0.00    +0.160 C 
BRANCH  19  20
ATOM     20  C   LIG    1       -0.763   3.016   0.024  0.00  0.00    +0.280 A 
ATOM     21  N   LIG    1       -1.151   1.781   0.017  0.00  0.00    -0.270 NA
ATOM     22  N   LIG    1       -0.011   0.966   0.007  0.00  0.00    -0.550 N 
ATOM     23  H   LIG    1        0.002  -0.004   0.002  0.00  0.00    +0.460 HD
ATOM     24  C   LIG    1        1.065   1.780   0.002  0.00  0.00    +0.650 A 
ATOM     25  O   LIG    1        2.232   1.433  -0.011  0.00  0.00    -0.550 OA
ATOM     26  N   LIG    1        0.610   3.049   0.012  0.00  0.00    -0.560 N 
ATOM     27  C   LIG    1        1.438   4.258   0.010  0.00  0.00    +0.350 C 
ENDBRANCH  19  20
ENDBRANCH   6  19
TORSDOF 6
