REMARK  Name = ZINCpk00000y6xuF.0
REMARK                            x       y       z     vdW  Elec       q    Type
REMARK                         _______ _______ _______ _____ _____    ______ ____
ROOT
ATOM      1  N   LIG    1       -0.322   1.538  -1.709  0.00  0.00    -0.580 N 
ATOM      2  C   LIG    1       -1.395   0.878  -2.193  0.00  0.00    +0.530 C 
ATOM      3  C   LIG    1       -1.883   1.696  -3.369  0.00  0.00    +0.210 C 
ATOM      4  C   LIG    1       -3.326   2.163  -3.143  0.00  0.00    +0.320 C 
ATOM      5  N   LIG    1       -3.576   3.313  -4.026  0.00  0.00    -0.590 N 
ATOM      6  C   LIG    1       -2.727   4.507  -3.928  0.00  0.00    +0.300 C 
ATOM      7  C   LIG    1       -1.259   4.096  -4.130  0.00  0.00    +0.350 C 
ATOM      8  C   LIG    1       -4.582   3.271  -4.922  0.00  0.00    +0.500 C 
ATOM      9  O   LIG    1       -4.825   4.242  -5.606  0.00  0.00    -0.480 OA
ATOM     10  N   LIG    1       -1.024   2.900  -3.316  0.00  0.00    -0.620 N 
ATOM     11  O   LIG    1       -1.871  -0.154  -1.772  0.00  0.00    -0.450 OA
ATOM     12  C   LIG    1       -0.093   2.674  -2.386  0.00  0.00    +0.710 C 
ATOM     13  O   LIG    1        0.850   3.411  -2.176  0.00  0.00    -0.530 OA
ENDROOT
BRANCH   8  14
ATOM     14  C   LIG    1       -5.404   2.018  -5.073  0.00  0.00    +0.340 C 
ATOM     15  F   LIG    1       -5.750   1.531  -3.808  0.00  0.00    -0.170 F 
ATOM     16  F   LIG    1       -4.659   1.051  -5.757  0.00  0.00    -0.170 F 
BRANCH  14  17
ATOM     17  C   LIG    1       -6.657   2.329  -5.851  0.00  0.00    -0.190 A 
ATOM     18  C   LIG    1       -6.838   1.796  -7.113  0.00  0.00    +0.100 A 
ATOM     19  C   LIG    1       -7.987   2.083  -7.826  0.00  0.00    +0.010 A 
ATOM     20  C   LIG    1       -8.956   2.903  -7.279  0.00  0.00    +0.080 A 
ATOM     21  C   LIG    1       -8.777   3.437  -6.016  0.00  0.00    +0.000 A 
ATOM     22  C   LIG    1       -7.629   3.146  -5.299  0.00  0.00    +0.150 A 
ATOM     23  F   LIG    1       -7.456   3.663  -4.062  0.00  0.00    -0.130 F 
ENDBRANCH  14  17
ENDBRANCH   8  14
BRANCH   1  25
ATOM     24  C   LIG    1       -0.068   1.624   0.722  0.00  0.00    +0.030 C 
ATOM     25  C   LIG    1        0.496   1.069  -0.588  0.00  0.00    +0.310 C 
ENDBRANCH   1  25
TORSDOF 3
