REMARK  Name = ZINCvU0000000I40.0
REMARK                            x       y       z     vdW  Elec       q    Type
REMARK                         _______ _______ _______ _____ _____    ______ ____
ROOT
ATOM      1  N   LIG    1       -4.541  11.033   0.811  0.00  0.00    -0.730 N 
ATOM      2  H   LIG    1       -3.770  11.621   0.845  0.00  0.00    +0.400 HD
ATOM      3  C   LIG    1       -4.375   9.714   0.593  0.00  0.00    +0.710 C 
ATOM      4  N   LIG    1       -3.136   9.211   0.420  0.00  0.00    -0.680 N 
ATOM      5  H   LIG    1       -2.373   9.807   0.367  0.00  0.00    +0.410 HD
ATOM      6  O   LIG    1       -5.341   8.978   0.551  0.00  0.00    -0.560 OA
ENDROOT
BRANCH   4   7
ATOM      7  C   LIG    1       -2.951   7.827   0.318  0.00  0.00    +0.180 A 
ATOM      8  C   LIG    1       -1.858   7.321  -0.372  0.00  0.00    -0.020 A 
ATOM      9  C   LIG    1       -1.675   5.955  -0.472  0.00  0.00    +0.050 A 
ATOM     10  C   LIG    1       -2.576   5.090   0.118  0.00  0.00    +0.000 A 
ATOM     11  C   LIG    1       -3.673   5.590   0.805  0.00  0.00    +0.120 A 
ATOM     12  C   LIG    1       -3.860   6.959   0.908  0.00  0.00    +0.020 A 
BRANCH  11  13
ATOM     13  O   LIG    1       -4.561   4.737   1.382  0.00  0.00    -0.250 OA
BRANCH  13  14
ATOM     14  C   LIG    1       -4.191   4.110   2.526  0.00  0.00    +0.320 A 
ATOM     15  C   LIG    1       -5.106   3.313   3.201  0.00  0.00    -0.050 A 
ATOM     16  C   LIG    1       -4.715   2.679   4.368  0.00  0.00    +0.100 A 
ATOM     17  C   LIG    1       -3.417   2.865   4.820  0.00  0.00    -0.070 A 
ATOM     18  C   LIG    1       -2.561   3.677   4.101  0.00  0.00    +0.300 A 
ATOM     19  N   LIG    1       -2.961   4.264   2.989  0.00  0.00    -0.530 NA
ENDBRANCH  13  14
ENDBRANCH  11  13
ENDBRANCH   4   7
BRANCH   1  20
ATOM     20  C   LIG    1       -5.887  11.581   0.999  0.00  0.00    +0.360 C 
BRANCH  20  21
ATOM     21  C   LIG    1       -5.805  12.854   1.801  0.00  0.00    +0.200 A 
ATOM     22  N   LIG    1       -5.220  13.954   1.417  0.00  0.00    -0.460 NA
ATOM     23  C   LIG    1       -5.347  14.884   2.386  0.00  0.00    +0.040 A 
ATOM     24  C   LIG    1       -6.034  14.320   3.413  0.00  0.00    +0.160 A 
ATOM     25  N   LIG    1       -6.320  13.037   3.037  0.00  0.00    -0.550 N 
ATOM     26  H   LIG    1       -6.804  12.380   3.560  0.00  0.00    +0.420 HD
BRANCH  23  27
ATOM     27  C   LIG    1       -4.823  16.271   2.340  0.00  0.00    -0.000 A 
ATOM     28  C   LIG    1       -5.026  17.131   3.418  0.00  0.00    +0.010 A 
ATOM     29  C   LIG    1       -4.532  18.419   3.373  0.00  0.00    +0.000 A 
ATOM     30  C   LIG    1       -3.847  18.860   2.256  0.00  0.00    +0.000 A 
ATOM     31  C   LIG    1       -3.648  18.013   1.180  0.00  0.00    +0.000 A 
ATOM     32  C   LIG    1       -4.132  16.722   1.217  0.00  0.00    +0.040 A 
ENDBRANCH  23  27
ENDBRANCH  20  21
BRANCH  20  34
ATOM     33  C   LIG    1       -6.710  10.568  -1.132  0.00  0.00    +0.030 C 
ATOM     34  C   LIG    1       -6.512  11.877  -0.366  0.00  0.00    +0.030 C 
ENDBRANCH  20  34
ENDBRANCH   1  20
TORSDOF 7
