REMARK  Name = ZINCvU0000000AnW.0
REMARK                            x       y       z     vdW  Elec       q    Type
REMARK                         _______ _______ _______ _____ _____    ______ ____
ROOT
ATOM      1  C   LIG    1       -0.717   1.573   1.248  0.00  0.00    +0.510 C 
ATOM      2  N   LIG    1       -0.242   1.246   2.466  0.00  0.00    -0.670 N 
ATOM      3  H   LIG    1        0.511   0.639   2.546  0.00  0.00    +0.410 HD
ATOM      4  O   LIG    1       -1.709   2.265   1.150  0.00  0.00    -0.480 OA
ENDROOT
BRANCH   2   5
ATOM      5  C   LIG    1       -0.834   1.783   3.617  0.00  0.00    +0.140 A 
ATOM      6  C   LIG    1       -0.052   2.086   4.723  0.00  0.00    +0.010 A 
ATOM      7  C   LIG    1       -0.634   2.620   5.855  0.00  0.00    +0.010 A 
ATOM      8  C   LIG    1       -2.005   2.844   5.891  0.00  0.00    -0.100 A 
ATOM      9  C   LIG    1       -2.789   2.535   4.786  0.00  0.00    +0.050 A 
ATOM     10  C   LIG    1       -2.204   2.006   3.652  0.00  0.00    +0.050 A 
BRANCH   8  11
ATOM     11  S   LIG    1       -2.751   3.518   7.338  0.00  0.00    -0.100 S 
BRANCH  11  12
ATOM     12  C   LIG    1       -1.341   3.737   8.459  0.00  0.00    +0.140 C 
BRANCH  12  13
ATOM     13  C   LIG    1       -1.822   4.316   9.764  0.00  0.00    -0.130 A 
ATOM     14  C   LIG    1       -1.873   5.690   9.947  0.00  0.00    +0.080 A 
ATOM     15  C   LIG    1       -2.328   6.178  11.162  0.00  0.00    -0.030 A 
ATOM     16  C   LIG    1       -2.701   5.285  12.149  0.00  0.00    +0.270 A 
ATOM     17  N   LIG    1       -2.635   3.984  11.942  0.00  0.00    -0.480 NA
ATOM     18  C   LIG    1       -2.213   3.485  10.797  0.00  0.00    +0.280 A 
ENDBRANCH  12  13
ENDBRANCH  11  12
ENDBRANCH   8  11
ENDBRANCH   2   5
BRANCH   1  19
ATOM     19  C   LIG    1       -0.016   1.080   0.008  0.00  0.00    +0.240 C 
BRANCH  19  20
ATOM     20  O   LIG    1       -0.705   1.557  -1.150  0.00  0.00    -0.270 OA
BRANCH  20  25
ATOM     21  C   LIG    1        1.410   0.065  -6.158  0.00  0.00    +0.100 C 
ATOM     22  C   LIG    1        0.837   0.469  -4.824  0.00  0.00    -0.120 A 
ATOM     23  C   LIG    1        1.449   0.045  -3.656  0.00  0.00    +0.100 A 
ATOM     24  C   LIG    1        0.937   0.413  -2.428  0.00  0.00    -0.090 A 
ATOM     25  C   LIG    1       -0.200   1.200  -2.357  0.00  0.00    +0.190 A 
ATOM     26  C   LIG    1       -0.829   1.635  -3.541  0.00  0.00    -0.220 A 
ATOM     27  C   LIG    1       -2.024   2.467  -3.726  0.00  0.00    +0.400 C 
ATOM     28  O   LIG    1       -2.703   2.943  -2.840  0.00  0.00    -0.430 OA
ATOM     29  C   LIG    1       -2.262   2.627  -5.208  0.00  0.00    +0.050 C 
ATOM     30  C   LIG    1       -1.134   1.839  -5.887  0.00  0.00    +0.050 C 
ATOM     31  C   LIG    1       -0.287   2.774  -6.753  0.00  0.00    +0.050 C 
ATOM     32  C   LIG    1       -0.295   1.258  -4.775  0.00  0.00    -0.000 A 
ENDBRANCH  20  25
ENDBRANCH  19  20
ENDBRANCH   1  19
TORSDOF 7
