REMARK  Name = ZINCrH000004rv26.0
REMARK                            x       y       z     vdW  Elec       q    Type
REMARK                         _______ _______ _______ _____ _____    ______ ____
ROOT
ATOM      1  C   LIG    1        3.412   5.201   5.125  0.00  0.00    +0.100 C 
ATOM      2  C   LIG    1        2.450   4.294   4.400  0.00  0.00    +0.020 A 
ATOM      3  C   LIG    1        2.902   3.124   3.826  0.00  0.00    +0.000 A 
ATOM      4  C   LIG    1        2.019   2.288   3.165  0.00  0.00    +0.160 A 
ATOM      5  C   LIG    1        0.681   2.625   3.065  0.00  0.00    -0.690 A 
ATOM      6  C   LIG    1        0.217   3.793   3.635  0.00  0.00    +0.160 A 
ATOM      7  C   LIG    1        1.101   4.638   4.308  0.00  0.00    -0.150 A 
ENDROOT
BRANCH   7   8
ATOM      8  C   LIG    1        0.609   5.890   4.921  0.00  0.00    +0.570 C 
ATOM      9  N   LIG    1       -0.146   6.742   4.199  0.00  0.00    -0.610 N 
ATOM     10  C   LIG    1       -0.562   6.383   2.842  0.00  0.00    +0.290 C 
ATOM     11  O   LIG    1        0.886   6.151   6.075  0.00  0.00    -0.520 OA
BRANCH   9  12
ATOM     12  C   LIG    1       -0.550   8.028   4.773  0.00  0.00    +0.340 C 
BRANCH  12  13
ATOM     13  C   LIG    1        0.488   9.071   4.449  0.00  0.00    -0.100 A 
ATOM     14  C   LIG    1        1.545   9.286   5.314  0.00  0.00    +0.040 A 
ATOM     15  C   LIG    1        2.501  10.239   5.015  0.00  0.00    +0.020 A 
ATOM     16  C   LIG    1        2.395  10.985   3.856  0.00  0.00    +0.020 A 
ATOM     17  C   LIG    1        1.334  10.775   2.993  0.00  0.00    -0.040 A 
ATOM     18 CL   LIG    1        1.200  11.711   1.538  0.00  0.00    -0.070 Cl
ATOM     19  C   LIG    1        0.381   9.817   3.290  0.00  0.00    +0.030 A 
ENDBRANCH  12  13
ENDBRANCH   9  12
ENDBRANCH   7   8
BRANCH   5  20
ATOM     20  S   LIG    1       -0.433   1.557   2.216  0.00  0.00    +2.710 S 
ATOM     21  O   LIG    1        0.155   0.264   2.239  0.00  0.00    -0.950 OA
ATOM     22  O   LIG    1       -1.727   1.832   2.735  0.00  0.00    -0.950 OA
BRANCH  20  23
ATOM     23  N   LIG    1       -0.455   2.033   0.630  0.00  0.00    -1.010 NA
ATOM     24  C   LIG    1        0.433   1.529  -0.428  0.00  0.00    +0.270 C 
ATOM     25  C   LIG    1        0.033   2.235  -1.741  0.00  0.00    +0.030 C 
ATOM     26  C   LIG    1       -1.429   2.675  -1.467  0.00  0.00    +0.040 C 
ATOM     27  C   LIG    1       -1.369   3.032   0.039  0.00  0.00    +0.270 C 
ENDBRANCH  20  23
ENDBRANCH   5  20
TORSDOF 5
