REMARK  Name = ZINCpk00000ChhQz.0
REMARK                            x       y       z     vdW  Elec       q    Type
REMARK                         _______ _______ _______ _____ _____    ______ ____
ROOT
ATOM      1  C   LIG    1       -5.158   4.225  -5.546  0.00  0.00    +0.150 A 
ATOM      2  C   LIG    1       -5.503   2.964  -6.014  0.00  0.00    +0.030 A 
ATOM      3  C   LIG    1       -5.063   1.832  -5.351  0.00  0.00    +0.060 A 
ATOM      4  C   LIG    1       -4.281   1.953  -4.226  0.00  0.00    -0.090 A 
ATOM      5  C   LIG    1       -3.648   0.947  -3.296  0.00  0.00    +0.350 C 
ATOM      6  N   LIG    1       -2.935   1.723  -2.276  0.00  0.00    -0.610 N 
ATOM      7  C   LIG    1       -3.094   3.032  -2.538  0.00  0.00    +0.570 C 
ATOM      8  O   LIG    1       -2.621   3.935  -1.876  0.00  0.00    -0.510 OA
ATOM      9  C   LIG    1       -3.926   3.215  -3.743  0.00  0.00    -0.140 A 
ATOM     10  C   LIG    1       -4.370   4.355  -4.412  0.00  0.00    +0.110 A 
ENDROOT
BRANCH   6  11
ATOM     11  C   LIG    1       -2.170   1.164  -1.159  0.00  0.00    +0.290 C 
ATOM     12  C   LIG    1       -0.710   1.619  -1.259  0.00  0.00    +0.060 C 
ATOM     13  C   LIG    1        0.044   1.115  -0.024  0.00  0.00    +0.100 C 
ATOM     14  C   LIG    1       -0.655   1.602   1.217  0.00  0.00    +0.520 C 
ATOM     15  N   LIG    1       -1.979   1.829   1.226  0.00  0.00    -0.670 N 
ATOM     16  H   LIG    1       -2.393   2.135   2.048  0.00  0.00    +0.420 HD
ATOM     17  O   LIG    1       -0.011   1.794   2.226  0.00  0.00    -0.500 OA
ATOM     18  C   LIG    1       -2.750   1.649   0.144  0.00  0.00    +0.510 C 
ATOM     19  O   LIG    1       -3.938   1.882   0.215  0.00  0.00    -0.480 OA
ENDBRANCH   6  11
BRANCH   1  21
ATOM     20  C   LIG    1       -5.923   6.478  -5.526  0.00  0.00    +0.650 C 
ATOM     21  N   LIG    1       -5.605   5.367  -6.220  0.00  0.00    -0.650 N 
ATOM     22  H   LIG    1       -5.686   5.359  -7.186  0.00  0.00    +0.420 HD
ATOM     23  O   LIG    1       -5.742   6.517  -4.325  0.00  0.00    -0.550 OA
BRANCH  20  24
ATOM     24  O   LIG    1       -6.440   7.545  -6.164  0.00  0.00    -0.360 OA
BRANCH  24  25
ATOM     25  C   LIG    1       -6.759   8.707  -5.353  0.00  0.00    +0.220 C 
BRANCH  25  27
ATOM     26  C   LIG    1       -7.667  11.034  -5.392  0.00  0.00    +0.040 C 
ATOM     27  C   LIG    1       -7.332   9.810  -6.246  0.00  0.00    +0.040 C 
ENDBRANCH  25  27
ENDBRANCH  24  25
ENDBRANCH  20  24
ENDBRANCH   1  21
TORSDOF 5
