REMARK  Name = ZINCrD000000AzhJ.2
REMARK                            x       y       z     vdW  Elec       q    Type
REMARK                         _______ _______ _______ _____ _____    ______ ____
ROOT
ATOM      1  O   LIG    1       -1.662   1.752  -3.269  0.00  0.00    -0.530 OA
ATOM      2  C   LIG    1       -1.745   2.702  -4.019  0.00  0.00    +0.510 C 
ATOM      3  N   LIG    1       -1.719   3.955  -3.524  0.00  0.00    -0.730 N 
ATOM      4  H   LIG    1       -1.784   4.715  -4.124  0.00  0.00    +0.400 HD
ENDROOT
BRANCH   3   5
ATOM      5  C   LIG    1       -1.591   4.170  -2.081  0.00  0.00    +0.270 C 
BRANCH   5   6
ATOM      6  C   LIG    1       -1.587   5.672  -1.787  0.00  0.00    +0.170 C 
BRANCH   6   7
ATOM      7  N   LIG    1       -1.589   5.887  -0.334  0.00  0.00    -0.520 NA
ATOM      8  C   LIG    1       -0.486   5.156   0.309  0.00  0.00    +0.220 C 
ATOM      9  C   LIG    1        0.817   5.516  -0.405  0.00  0.00    +0.040 C 
ATOM     10  C   LIG    1        0.947   7.014  -0.513  0.00  0.00    -0.080 A 
ATOM     11  C   LIG    1        2.192   7.550  -0.806  0.00  0.00    +0.000 A 
ATOM     12  C   LIG    1        2.355   8.916  -0.913  0.00  0.00    +0.000 A 
ATOM     13  C   LIG    1        1.270   9.754  -0.738  0.00  0.00    +0.000 A 
ATOM     14  C   LIG    1        0.029   9.221  -0.449  0.00  0.00    +0.010 A 
ATOM     15  C   LIG    1       -0.135   7.849  -0.335  0.00  0.00    -0.120 A 
ATOM     16  C   LIG    1       -1.506   7.316  -0.014  0.00  0.00    +0.270 C 
ENDBRANCH   6   7
ENDBRANCH   5   6
ENDBRANCH   3   5
BRANCH   2  17
ATOM     17  C   LIG    1       -1.876   2.481  -5.504  0.00  0.00    +0.120 C 
BRANCH  17  18
ATOM     18  C   LIG    1       -1.880   1.002  -5.793  0.00  0.00    -0.090 A 
ATOM     19  C   LIG    1       -0.690   0.344  -6.040  0.00  0.00    +0.070 A 
ATOM     20  C   LIG    1       -0.690  -1.013  -6.299  0.00  0.00    -0.060 A 
ATOM     21  C   LIG    1       -1.888  -1.713  -6.324  0.00  0.00    +0.100 A 
ATOM     22  C   LIG    1       -3.082  -1.049  -6.082  0.00  0.00    +0.020 A 
ATOM     23  C   LIG    1       -3.075   0.306  -5.817  0.00  0.00    +0.070 A 
BRANCH  21  24
ATOM     24  O   LIG    1       -1.891  -3.047  -6.586  0.00  0.00    -0.310 OA
BRANCH  24  25
ATOM     25  C   LIG    1       -0.625  -3.664  -6.825  0.00  0.00    +0.600 C 
ATOM     26  F   LIG    1       -0.017  -3.066  -7.934  0.00  0.00    -0.170 F 
ATOM     27  F   LIG    1       -0.812  -5.028  -7.076  0.00  0.00    -0.130 F 
ATOM     28  F   LIG    1        0.192  -3.504  -5.701  0.00  0.00    -0.160 F 
ENDBRANCH  24  25
ENDBRANCH  21  24
ENDBRANCH  17  18
ENDBRANCH   2  17
TORSDOF 7
