REMARK  Name = ZINCah0000002HWl.0
REMARK                            x       y       z     vdW  Elec       q    Type
REMARK                         _______ _______ _______ _____ _____    ______ ____
ROOT
ATOM      1  C   LIG    1       -0.736   1.583   1.265  0.00  0.00    -0.170 C 
ATOM      2  C   LIG    1       -0.013   1.086   0.008  0.00  0.00    +0.040 C 
ATOM      3  C   LIG    1       -0.759   1.596  -1.229  0.00  0.00    +0.000 C 
ATOM      4  C   LIG    1       -1.955   2.440  -0.778  0.00  0.00    +0.200 C 
ATOM      5  O   LIG    1       -2.818   1.641   0.033  0.00  0.00    -0.370 OA
ATOM      6  C   LIG    1       -1.452   3.633   0.040  0.00  0.00    +0.010 C 
ATOM      7  C   LIG    1       -2.197   1.115   1.209  0.00  0.00    +0.230 C 
ATOM      8  C   LIG    1       -0.709   3.116   1.279  0.00  0.00    +0.050 C 
ENDROOT
BRANCH   1  10
ATOM      9  O   LIG    1        0.901   0.315   2.388  0.00  0.00    -0.450 OA
ATOM     10  C   LIG    1       -0.063   1.034   2.497  0.00  0.00    +0.460 C 
ENDBRANCH   1  10
TORSDOF 1
