REMARK  Name = ZINCrH000004mkNM.0
REMARK                            x       y       z     vdW  Elec       q    Type
REMARK                         _______ _______ _______ _____ _____    ______ ____
ROOT
ATOM      1  C   LIG    1       -2.037   0.650  -4.363  0.00  0.00    +0.100 A 
ATOM      2  C   LIG    1       -1.124   0.237  -3.409  0.00  0.00    -0.040 A 
ATOM      3  C   LIG    1       -1.238   0.668  -2.095  0.00  0.00    -0.080 A 
ATOM      4  C   LIG    1       -2.265   1.514  -1.735  0.00  0.00    -0.110 A 
ATOM      5  C   LIG    1       -2.423   2.016  -0.323  0.00  0.00    +0.280 C 
ATOM      6  N   LIG    1       -1.654   1.183   0.607  0.00  0.00    -0.500 NA
ATOM      7  C   LIG    1       -0.260   1.072   0.154  0.00  0.00    +0.230 C 
ATOM      8  C   LIG    1       -3.184   1.930  -2.688  0.00  0.00    -0.030 A 
ATOM      9  C   LIG    1       -0.221   0.186  -1.092  0.00  0.00    +0.030 C 
ATOM     10  C   LIG    1       -3.075   1.503  -3.999  0.00  0.00    +0.100 A 
ENDROOT
BRANCH   1  12
ATOM     11  C   LIG    1       -0.830  -0.649  -5.948  0.00  0.00    +0.240 C 
ATOM     12  O   LIG    1       -1.920   0.225  -5.649  0.00  0.00    -0.310 OA
ENDBRANCH   1  12
BRANCH   6  13
ATOM     13  C   LIG    1       -2.267  -0.143   0.756  0.00  0.00    +0.130 C 
ATOM     14  C   LIG    1       -3.664   0.006   1.361  0.00  0.00    +0.080 C 
BRANCH  13  15
ATOM     15  C   LIG    1       -1.414  -0.991   1.664  0.00  0.00    +0.520 C 
ATOM     16  N   LIG    1       -1.416  -2.332   1.532  0.00  0.00    -0.670 N 
ATOM     17  H   LIG    1       -2.019  -2.757   0.902  0.00  0.00    +0.410 HD
ATOM     18  O   LIG    1       -0.727  -0.467   2.515  0.00  0.00    -0.490 OA
BRANCH  16  19
ATOM     19  C   LIG    1       -0.547  -3.113   2.303  0.00  0.00    +0.150 A 
ATOM     20  C   LIG    1        0.571  -2.535   2.890  0.00  0.00    +0.010 A 
ATOM     21  C   LIG    1        1.423  -3.307   3.656  0.00  0.00    -0.070 A 
ATOM     22  C   LIG    1        1.170  -4.655   3.829  0.00  0.00    -0.020 A 
ATOM     23  C   LIG    1        0.060  -5.235   3.240  0.00  0.00    +0.040 A 
ATOM     24  C   LIG    1        2.633  -2.680   4.298  0.00  0.00    +0.100 C 
ATOM     25  C   LIG    1       -0.799  -4.467   2.478  0.00  0.00    -0.130 A 
ATOM     26  C   LIG    1       -2.007  -5.099   1.837  0.00  0.00    +0.090 C 
ENDBRANCH  16  19
ENDBRANCH  13  15
ENDBRANCH   6  13
BRANCH  10  27
ATOM     27  O   LIG    1       -3.979   1.913  -4.929  0.00  0.00    -0.310 OA
ATOM     28  C   LIG    1       -5.017   2.787  -4.482  0.00  0.00    +0.250 C 
ENDBRANCH  10  27
TORSDOF 5
