REMARK  Name = ZINCrD000003S6N1.0
REMARK                            x       y       z     vdW  Elec       q    Type
REMARK                         _______ _______ _______ _____ _____    ______ ____
ROOT
ATOM      1  S   LIG    1        0.473   3.078  -2.155  0.00  0.00    +2.720 S 
ATOM      2  O   LIG    1       -0.239   3.326  -0.951  0.00  0.00    -0.910 OA
ATOM      3  O   LIG    1       -0.162   2.698  -3.369  0.00  0.00    -0.940 OA
ENDROOT
BRANCH   1   9
ATOM      4  C   LIG    1        1.958   1.591  -0.423  0.00  0.00    +0.340 C 
ATOM      5  C   LIG    1        3.488   1.582  -0.336  0.00  0.00    +0.230 C 
ATOM      6  O   LIG    1        4.012   0.710  -1.340  0.00  0.00    -0.370 OA
ATOM      7  C   LIG    1        3.715   1.114  -2.679  0.00  0.00    +0.200 C 
ATOM      8  C   LIG    1        2.196   1.100  -2.886  0.00  0.00    +0.270 C 
ATOM      9  N   LIG    1        1.574   1.889  -1.812  0.00  0.00    -1.000 NA
BRANCH   4  14
ATOM     10  C   LIG    1        0.831   6.107   1.522  0.00  0.00    +0.170 C 
ATOM     11  C   LIG    1        0.913   4.613   1.341  0.00  0.00    +0.030 A 
ATOM     12  C   LIG    1        0.377   3.691   2.161  0.00  0.00    -0.080 A 
ATOM     13  C   LIG    1        0.693   2.425   1.616  0.00  0.00    -0.020 A 
ATOM     14  C   LIG    1        1.403   2.649   0.495  0.00  0.00    -0.060 A 
ATOM     15  O   LIG    1        1.538   3.976   0.337  0.00  0.00    -0.140 OA
ENDBRANCH   4  14
ENDBRANCH   1   9
BRANCH   1  16
ATOM     16  C   LIG    1        1.383   4.545  -2.507  0.00  0.00    -0.550 A 
ATOM     17  C   LIG    1        1.717   5.006  -3.740  0.00  0.00    +0.120 A 
ATOM     18  O   LIG    1        2.408   6.152  -3.555  0.00  0.00    -0.180 OA
ATOM     19  C   LIG    1        2.486   6.373  -2.235  0.00  0.00    +0.190 A 
ATOM     20  C   LIG    1        3.172   7.546  -1.583  0.00  0.00    +0.230 C 
ATOM     21  N   LIG    1        1.867   5.414  -1.607  0.00  0.00    -0.390 NA
BRANCH  17  22
ATOM     22  C   LIG    1        1.389   4.375  -5.036  0.00  0.00    -0.050 A 
ATOM     23  C   LIG    1        2.164   3.319  -5.517  0.00  0.00    +0.040 A 
ATOM     24  C   LIG    1        1.848   2.731  -6.725  0.00  0.00    +0.030 A 
ATOM     25  C   LIG    1        0.773   3.192  -7.463  0.00  0.00    +0.040 A 
ATOM     26  C   LIG    1        0.004   4.243  -6.994  0.00  0.00    +0.020 A 
ATOM     27  C   LIG    1        0.306   4.836  -5.785  0.00  0.00    +0.060 A 
ENDBRANCH  17  22
ENDBRANCH   1  16
TORSDOF 4
