REMARK  Name = ZINCrD00000756uj.0
REMARK                            x       y       z     vdW  Elec       q    Type
REMARK                         _______ _______ _______ _____ _____    ______ ____
ROOT
ATOM      1  C   LIG    1       -3.607   0.277   0.346  0.00  0.00    +0.500 C 
ATOM      2  N   LIG    1       -4.552  -0.093  -0.540  0.00  0.00    -0.720 N 
ATOM      3  H   LIG    1       -4.869   0.540  -1.203  0.00  0.00    +0.400 HD
ATOM      4  O   LIG    1       -3.210  -0.515   1.175  0.00  0.00    -0.510 OA
ENDROOT
BRANCH   1   5
ATOM      5  C   LIG    1       -3.042   1.673   0.308  0.00  0.00    +0.380 C 
BRANCH   5   9
ATOM      6  C   LIG    1       -0.944   2.666   4.759  0.00  0.00    +0.170 C 
ATOM      7  C   LIG    1       -1.142   2.264   3.320  0.00  0.00    +0.140 A 
ATOM      8  N   LIG    1       -2.281   2.251   2.677  0.00  0.00    -0.260 NA
ATOM      9  N   LIG    1       -2.039   1.824   1.365  0.00  0.00    -0.340 N 
ATOM     10  C   LIG    1       -0.718   1.572   1.248  0.00  0.00    +0.180 A 
ATOM     11  C   LIG    1       -0.013   1.086   0.008  0.00  0.00    +0.170 C 
ATOM     12  C   LIG    1       -0.140   1.839   2.442  0.00  0.00    -0.180 A 
BRANCH  12  13
ATOM     13  N   LIG    1        1.299   1.706   2.761  0.00  0.00    +0.050 N 
ATOM     14  O   LIG    1        1.732   0.653   3.194  0.00  0.00    -0.130 OA
ATOM     15  O   LIG    1        2.051   2.650   2.592  0.00  0.00    -0.140 OA
ENDBRANCH  12  13
ENDBRANCH   5   9
ENDBRANCH   1   5
BRANCH   2  16
ATOM     16  C   LIG    1       -5.101  -1.450  -0.503  0.00  0.00    +0.340 C 
BRANCH  16  17
ATOM     17  C   LIG    1       -4.208  -2.375  -1.289  0.00  0.00    -0.090 A 
ATOM     18  C   LIG    1       -3.654  -1.952  -2.482  0.00  0.00    +0.010 A 
ATOM     19  C   LIG    1       -2.831  -2.799  -3.201  0.00  0.00    +0.000 A 
ATOM     20  C   LIG    1       -2.570  -4.073  -2.731  0.00  0.00    +0.000 A 
ATOM     21  C   LIG    1       -3.129  -4.498  -1.540  0.00  0.00    +0.000 A 
ATOM     22  C   LIG    1       -3.948  -3.649  -0.819  0.00  0.00    +0.020 A 
ENDBRANCH  16  17
BRANCH  16  23
ATOM     23  C   LIG    1       -6.482  -1.451  -1.107  0.00  0.00    -0.090 A 
ATOM     24  C   LIG    1       -6.745  -0.687  -2.229  0.00  0.00    +0.010 A 
ATOM     25  C   LIG    1       -8.010  -0.692  -2.787  0.00  0.00    +0.020 A 
ATOM     26  C   LIG    1       -9.014  -1.451  -2.216  0.00  0.00    +0.020 A 
ATOM     27  C   LIG    1       -8.752  -2.211  -1.091  0.00  0.00    +0.020 A 
ATOM     28  C   LIG    1       -7.486  -2.211  -0.537  0.00  0.00    +0.030 A 
ENDBRANCH  16  23
ENDBRANCH   2  16
TORSDOF 6
