REMARK  Name = ZINCrD0000072ufx.0
REMARK                            x       y       z     vdW  Elec       q    Type
REMARK                         _______ _______ _______ _____ _____    ______ ____
ROOT
ATOM      1  S   LIG    1       -1.721   0.772   0.231  0.00  0.00    +2.600 S 
ATOM      2  O   LIG    1       -0.391   1.113  -0.136  0.00  0.00    -0.950 OA
ATOM      3  O   LIG    1       -2.100  -0.581   0.437  0.00  0.00    -0.940 OA
ENDROOT
BRANCH   1   7
ATOM      4  C   LIG    1       -1.499   1.980   4.463  0.00  0.00    +0.000 C 
ATOM      5  C   LIG    1       -2.183   0.690   4.005  0.00  0.00    +0.050 C 
ATOM      6  C   LIG    1       -2.899   0.941   2.674  0.00  0.00    +0.290 C 
ATOM      7  N   LIG    1       -1.931   1.485   1.712  0.00  0.00    -1.000 NA
ATOM      8  C   LIG    1       -1.148   2.669   2.090  0.00  0.00    +0.290 C 
ATOM      9  C   LIG    1       -0.456   2.402   3.426  0.00  0.00    +0.040 C 
BRANCH   4  12
ATOM     10  C   LIG    1        0.436   2.549   7.714  0.00  0.00    +0.290 C 
ATOM     11  N   LIG    1       -0.318   2.786   6.481  0.00  0.00    -0.620 N 
ATOM     12  C   LIG    1       -0.823   1.746   5.789  0.00  0.00    +0.520 C 
ATOM     13  O   LIG    1       -0.733   0.621   6.234  0.00  0.00    -0.530 OA
ATOM     14  C   LIG    1       -0.523   4.155   6.000  0.00  0.00    +0.290 C 
ENDBRANCH   4  12
ENDBRANCH   1   7
BRANCH   1  15
ATOM     15  C   LIG    1       -2.914   1.611  -0.848  0.00  0.00    -0.300 C 
BRANCH  15  16
ATOM     16  C   LIG    1       -2.818   1.043  -2.240  0.00  0.00    -0.100 A 
ATOM     17  C   LIG    1       -1.951   1.606  -3.158  0.00  0.00    +0.030 A 
ATOM     18  C   LIG    1       -1.859   1.082  -4.434  0.00  0.00    +0.020 A 
ATOM     19  C   LIG    1       -2.642   0.001  -4.795  0.00  0.00    -0.060 A 
ATOM     20  C   LIG    1       -3.513  -0.558  -3.879  0.00  0.00    +0.020 A 
ATOM     21  C   LIG    1       -3.601  -0.037  -2.601  0.00  0.00    +0.030 A 
BRANCH  19  22
ATOM     22  C   LIG    1       -2.545  -0.567  -6.187  0.00  0.00    +0.030 C 
ATOM     23  C   LIG    1       -1.115  -1.044  -6.445  0.00  0.00    +0.020 C 
ATOM     24  C   LIG    1       -1.017  -1.621  -7.859  0.00  0.00    +0.000 C 
ATOM     25  C   LIG    1       -1.386  -0.541  -8.877  0.00  0.00    +0.000 C 
ATOM     26  C   LIG    1       -2.816  -0.064  -8.619  0.00  0.00    +0.000 C 
ATOM     27  C   LIG    1       -2.914   0.513  -7.206  0.00  0.00    +0.010 C 
ENDBRANCH  19  22
ENDBRANCH  15  16
ENDBRANCH   1  15
TORSDOF 5
