REMARK  Name = ZINCrH00000tj1il.0
REMARK                            x       y       z     vdW  Elec       q    Type
REMARK                         _______ _______ _______ _____ _____    ______ ____
ROOT
ATOM      1  C   LIG    1        3.783  -0.522  -0.571  0.00  0.00    +0.510 C 
ATOM      2  O   LIG    1        4.809   0.126  -0.521  0.00  0.00    -0.480 OA
ENDROOT
BRANCH   1   3
ATOM      3  C   LIG    1        2.474   0.157  -0.461  0.00  0.00    +0.020 A 
ATOM      4  C   LIG    1        2.305   1.283   0.368  0.00  0.00    -0.210 A 
ATOM      5  C   LIG    1        3.194   2.040   1.249  0.00  0.00    +0.150 A 
ATOM      6  N   LIG    1        2.493   2.998   1.774  0.00  0.00    -0.270 NA
ATOM      7  O   LIG    1        1.165   2.936   1.296  0.00  0.00    -0.070 OA
ATOM      8  C   LIG    1        4.653   1.759   1.501  0.00  0.00    +0.210 C 
ATOM      9  C   LIG    1        1.044   1.899   0.443  0.00  0.00    +0.300 A 
ATOM     10  N   LIG    1        0.029   1.420  -0.261  0.00  0.00    -0.460 NA
ATOM     11  C   LIG    1        0.157   0.370  -1.044  0.00  0.00    +0.240 A 
ATOM     12  C   LIG    1        1.365  -0.296  -1.176  0.00  0.00    +0.020 A 
BRANCH  11  13
ATOM     13  C   LIG    1       -1.041  -0.120  -1.816  0.00  0.00    +0.020 C 
ATOM     14  C   LIG    1       -0.786  -1.077  -2.982  0.00  0.00    +0.040 C 
ATOM     15  C   LIG    1       -1.202   0.370  -3.256  0.00  0.00    +0.060 C 
ENDBRANCH  11  13
ENDBRANCH   1   3
BRANCH   1  16
ATOM     16  O   LIG    1        3.838  -1.859  -0.726  0.00  0.00    -0.340 OA
BRANCH  16  17
ATOM     17  C   LIG    1        5.157  -2.457  -0.826  0.00  0.00    +0.290 C 
BRANCH  17  21
ATOM     18  C   LIG    1        4.770  -6.690  -1.297  0.00  0.00    +0.120 A 
ATOM     19  C   LIG    1        4.862  -6.137  -0.030  0.00  0.00    -0.040 A 
ATOM     20  C   LIG    1        4.992  -4.768   0.119  0.00  0.00    +0.040 A 
ATOM     21  C   LIG    1        5.020  -3.949  -0.994  0.00  0.00    -0.100 A 
ATOM     22  C   LIG    1        4.928  -4.495  -2.261  0.00  0.00    -0.010 A 
ATOM     23  C   LIG    1        4.803  -5.866  -2.417  0.00  0.00    +0.100 A 
BRANCH  18  25
ATOM     24  C   LIG    1        4.620  -8.821  -0.250  0.00  0.00    +0.240 C 
ATOM     25  O   LIG    1        4.647  -8.037  -1.445  0.00  0.00    -0.300 OA
ENDBRANCH  18  25
BRANCH  23  26
ATOM     26  O   LIG    1        4.713  -6.404  -3.663  0.00  0.00    -0.300 OA
ATOM     27  C   LIG    1        4.754  -5.497  -4.766  0.00  0.00    +0.240 C 
ENDBRANCH  23  26
ENDBRANCH  17  21
ENDBRANCH  16  17
ENDBRANCH   1  16
TORSDOF 7
