REMARK  Name = ZINCpe000000SzVd.0
REMARK                            x       y       z     vdW  Elec       q    Type
REMARK                         _______ _______ _______ _____ _____    ______ ____
ROOT
ATOM      1  S   LIG    1       -7.907   0.060   0.283  0.00  0.00    +2.710 S 
ATOM      2  O   LIG    1       -9.030   0.893   0.538  0.00  0.00    -0.950 OA
ATOM      3  O   LIG    1       -7.821  -1.286   0.729  0.00  0.00    -0.930 OA
ENDROOT
BRANCH   1  11
ATOM      4  C   LIG    1       -1.115   3.664   3.485  0.00  0.00    +0.110 C 
ATOM      5  C   LIG    1       -2.119   2.651   2.996  0.00  0.00    +0.520 C 
ATOM      6  N   LIG    1       -3.297   3.062   2.486  0.00  0.00    -0.560 N 
ATOM      7  C   LIG    1       -3.719   4.461   2.367  0.00  0.00    +0.280 C 
ATOM      8  C   LIG    1       -5.117   4.407   1.730  0.00  0.00    +0.110 C 
ATOM      9  C   LIG    1       -5.393   2.933   1.540  0.00  0.00    -0.160 A 
ATOM     10  C   LIG    1       -6.490   2.277   1.018  0.00  0.00    +0.160 A 
ATOM     11  C   LIG    1       -6.506   0.896   0.949  0.00  0.00    -0.700 A 
ATOM     12  C   LIG    1       -5.419   0.172   1.404  0.00  0.00    +0.150 A 
ATOM     13  C   LIG    1       -4.321   0.823   1.926  0.00  0.00    +0.000 A 
ATOM     14  C   LIG    1       -4.298   2.217   1.999  0.00  0.00    +0.200 A 
ATOM     15  O   LIG    1       -1.865   1.467   3.057  0.00  0.00    -0.510 OA
ENDBRANCH   1  11
BRANCH   1  16
ATOM     16  N   LIG    1       -7.718   0.021  -1.362  0.00  0.00    -0.990 NA
ATOM     17  C   LIG    1       -8.059   1.110  -2.290  0.00  0.00    +0.270 C 
ATOM     18  C   LIG    1       -7.737   0.614  -3.716  0.00  0.00    +0.040 C 
ATOM     19  C   LIG    1       -7.764  -0.929  -3.561  0.00  0.00    +0.060 C 
ATOM     20  C   LIG    1       -7.173  -1.108  -2.138  0.00  0.00    +0.230 C 
BRANCH  20  21
ATOM     21  C   LIG    1       -7.624  -2.418  -1.544  0.00  0.00    +0.510 C 
ATOM     22  N   LIG    1       -6.789  -3.476  -1.534  0.00  0.00    -0.620 N 
ATOM     23  C   LIG    1       -5.496  -3.395  -2.218  0.00  0.00    +0.280 C 
ATOM     24  C   LIG    1       -7.175  -4.707  -0.841  0.00  0.00    +0.290 C 
ATOM     25  O   LIG    1       -8.738  -2.520  -1.075  0.00  0.00    -0.510 OA
ENDBRANCH  20  21
ENDBRANCH   1  16
TORSDOF 3
