REMARK  Name = ZINCpe00000bk7xp.0
REMARK                            x       y       z     vdW  Elec       q    Type
REMARK                         _______ _______ _______ _____ _____    ______ ____
ROOT
ATOM      1  N   LIG    1        0.196   2.002   2.298  0.00  0.00    -0.720 N 
ATOM      2  H   LIG    1        0.477   2.928   2.361  0.00  0.00    +0.400 HD
ATOM      3  C   LIG    1        0.680   1.090   3.165  0.00  0.00    +0.600 C 
ATOM      4  O   LIG    1        0.327  -0.071   3.086  0.00  0.00    -0.510 OA
ENDROOT
BRANCH   3   5
ATOM      5  C   LIG    1        1.636   1.500   4.206  0.00  0.00    -0.020 A 
ATOM      6  C   LIG    1        2.215   0.701   5.155  0.00  0.00    -0.160 A 
ATOM      7  C   LIG    1        2.074  -0.772   5.424  0.00  0.00    +0.330 C 
ATOM      8  O   LIG    1        3.151  -1.162   6.289  0.00  0.00    -0.380 OA
ATOM      9  C   LIG    1        3.301  -0.350   7.456  0.00  0.00    +0.230 C 
ATOM     10  C   LIG    1        3.862   1.027   7.071  0.00  0.00    +0.120 C 
ATOM     11  C   LIG    1        3.044   1.543   5.912  0.00  0.00    +0.040 A 
ATOM     12  N   LIG    1        2.944   2.741   5.424  0.00  0.00    -0.250 NA
ATOM     13  N   LIG    1        2.133   2.759   4.422  0.00  0.00    -0.390 N 
ATOM     14  H   LIG    1        1.907   3.545   3.900  0.00  0.00    +0.440 HD
ENDBRANCH   3   5
BRANCH   1  23
ATOM     15  C   LIG    1       -0.656   4.064   0.677  0.00  0.00    +0.050 C 
ATOM     16  C   LIG    1       -1.545   2.819   0.722  0.00  0.00    -0.080 C 
ATOM     17  C   LIG    1       -1.915   2.349  -0.707  0.00  0.00    +0.290 C 
ATOM     18  N   LIG    1       -0.743   1.582  -1.167  0.00  0.00    -0.610 N 
ATOM     19  C   LIG    1       -0.013   1.086   0.008  0.00  0.00    +0.240 C 
ATOM     20  C   LIG    1       -0.398   1.373  -2.453  0.00  0.00    +0.560 C 
ATOM     21  O   LIG    1       -1.077   1.833  -3.346  0.00  0.00    -0.520 OA
ATOM     22  C   LIG    1       -2.801   3.075   1.558  0.00  0.00    +0.060 C 
ATOM     23  C   LIG    1       -0.756   1.594   1.262  0.00  0.00    +0.270 C 
BRANCH  20  24
ATOM     24  C   LIG    1        0.833   0.567  -2.781  0.00  0.00    -0.070 C 
ATOM     25  C   LIG    1        1.171   0.364  -4.259  0.00  0.00    +0.080 C 
ATOM     26  C   LIG    1        0.627  -0.802  -3.432  0.00  0.00    +0.200 C 
ATOM     27  F   LIG    1       -0.688  -1.211  -3.677  0.00  0.00    -0.170 F 
ENDBRANCH  20  24
ENDBRANCH   1  23
TORSDOF 3
