REMARK  Name = ZINCqH0000007l4p.0
REMARK                            x       y       z     vdW  Elec       q    Type
REMARK                         _______ _______ _______ _____ _____    ______ ____
ROOT
ATOM      1  N   LIG    1       -7.632   1.912  -1.046  0.00  0.00    -0.720 N 
ATOM      2  H   LIG    1       -7.512   2.769  -1.485  0.00  0.00    +0.400 HD
ATOM      3  C   LIG    1       -6.572   1.278  -0.505  0.00  0.00    +0.510 C 
ATOM      4  O   LIG    1       -6.722   0.208   0.045  0.00  0.00    -0.520 OA
ENDROOT
BRANCH   1   5
ATOM      5  C   LIG    1       -8.964   1.308  -0.970  0.00  0.00    +0.340 C 
BRANCH   5  10
ATOM      6  C   LIG    1      -11.686   3.874  -1.508  0.00  0.00    +0.090 A 
ATOM      7  C   LIG    1      -11.801   3.871  -2.890  0.00  0.00    -0.030 A 
ATOM      8  C   LIG    1      -11.000   3.039  -3.648  0.00  0.00    -0.040 A 
ATOM      9  C   LIG    1      -10.076   2.212  -3.027  0.00  0.00    +0.110 A 
ATOM     10  C   LIG    1       -9.964   2.211  -1.644  0.00  0.00    -0.100 A 
ATOM     11  C   LIG    1      -10.766   3.042  -0.887  0.00  0.00    +0.050 A 
BRANCH   6  13
ATOM     12  C   LIG    1      -13.400   5.522  -1.467  0.00  0.00    +0.240 C 
ATOM     13  O   LIG    1      -12.475   4.692  -0.762  0.00  0.00    -0.320 OA
ENDBRANCH   6  13
BRANCH   9  14
ATOM     14  O   LIG    1       -9.283   1.398  -3.774  0.00  0.00    -0.310 OA
ATOM     15  C   LIG    1       -9.451   1.450  -5.192  0.00  0.00    +0.250 C 
ENDBRANCH   9  14
ENDBRANCH   5  10
ENDBRANCH   1   5
BRANCH   3  16
ATOM     16  C   LIG    1       -5.202   1.900  -0.583  0.00  0.00    +0.210 C 
BRANCH  16  17
ATOM     17  O   LIG    1       -4.253   1.044   0.057  0.00  0.00    -0.350 OA
BRANCH  17  18
ATOM     18  C   LIG    1       -2.915   1.543   0.038  0.00  0.00    +0.160 C 
ATOM     19  C   LIG    1       -2.202   1.045  -1.221  0.00  0.00    -0.010 C 
ATOM     20  C   LIG    1       -0.768   1.580  -1.240  0.00  0.00    -0.020 C 
ATOM     21  C   LIG    1       -0.021   1.082  -0.001  0.00  0.00    +0.000 C 
ATOM     22  C   LIG    1       -0.734   1.580   1.258  0.00  0.00    +0.020 C 
ATOM     23  C   LIG    1       -0.795   3.110  -1.240  0.00  0.00    +0.020 C 
ATOM     24  C   LIG    1       -2.168   1.045   1.277  0.00  0.00    +0.010 C 
BRANCH  24  25
ATOM     25  C   LIG    1       -2.880   1.543   2.537  0.00  0.00    -0.010 C 
ATOM     26  C   LIG    1       -2.788   3.069   2.606  0.00  0.00    +0.010 C 
ATOM     27  C   LIG    1       -2.215   0.935   3.773  0.00  0.00    +0.000 C 
ENDBRANCH  24  25
ENDBRANCH  17  18
ENDBRANCH  16  17
ENDBRANCH   3  16
TORSDOF 8
