REMARK  Name = ZINCqH00000033oC.0
REMARK                            x       y       z     vdW  Elec       q    Type
REMARK                         _______ _______ _______ _____ _____    ______ ____
ROOT
ATOM      1  C   LIG    1        4.102  -0.690   0.811  0.00  0.00    +0.210 C 
ENDROOT
BRANCH   1   2
ATOM      2  C   LIG    1        3.271   0.544   1.048  0.00  0.00    -0.060 A 
ATOM      3  C   LIG    1        2.169   0.487   1.881  0.00  0.00    +0.040 A 
ATOM      4  C   LIG    1        1.406   1.620   2.098  0.00  0.00    -0.030 A 
ATOM      5  C   LIG    1        1.745   2.811   1.481  0.00  0.00    +0.060 A 
ATOM      6  C   LIG    1        2.848   2.868   0.647  0.00  0.00    -0.030 A 
ATOM      7 CL   LIG    1        3.274   4.362  -0.128  0.00  0.00    -0.050 Cl
ATOM      8 CL   LIG    1        0.022   1.548   3.143  0.00  0.00    -0.050 Cl
ATOM      9  C   LIG    1        3.610   1.734   0.430  0.00  0.00    +0.090 A 
ENDBRANCH   1   2
BRANCH   1  10
ATOM     10  C   LIG    1        3.974  -1.114  -0.629  0.00  0.00    +0.520 C 
ATOM     11  N   LIG    1        3.147  -2.125  -0.963  0.00  0.00    -0.520 N 
ATOM     12  H   LIG    1        2.634  -2.579  -0.276  0.00  0.00    +0.430 HD
ATOM     13  O   LIG    1        4.615  -0.546  -1.488  0.00  0.00    -0.500 OA
BRANCH  11  14
ATOM     14  N   LIG    1        3.028  -2.519  -2.302  0.00  0.00    -0.520 N 
ATOM     15  H   LIG    1        3.540  -2.064  -2.989  0.00  0.00    +0.430 HD
ATOM     16  C   LIG    1        2.201  -3.529  -2.636  0.00  0.00    +0.600 C 
ATOM     17  O   LIG    1        1.558  -4.099  -1.775  0.00  0.00    -0.540 OA
BRANCH  16  18
ATOM     18  C   LIG    1        2.075  -3.944  -4.045  0.00  0.00    -0.250 A 
ATOM     19  C   LIG    1        1.293  -4.944  -4.544  0.00  0.00    +0.100 A 
ATOM     20  O   LIG    1        1.465  -4.994  -5.868  0.00  0.00    -0.170 OA
ATOM     21  C   LIG    1        2.346  -4.064  -6.272  0.00  0.00    +0.180 A 
ATOM     22  C   LIG    1        0.385  -5.838  -3.739  0.00  0.00    +0.190 C 
ATOM     23  C   LIG    1        2.772  -3.371  -5.205  0.00  0.00    -0.030 A 
ENDBRANCH  16  18
ENDBRANCH  11  14
ENDBRANCH   1  10
BRANCH   1  24
ATOM     24  N   LIG    1        5.510  -0.398   1.112  0.00  0.00    -0.510 NA
BRANCH  24  26
ATOM     25  C   LIG    1        5.304   1.484   2.667  0.00  0.00    +0.030 C 
ATOM     26  C   LIG    1        5.675   0.007   2.515  0.00  0.00    +0.170 C 
ENDBRANCH  24  26
BRANCH  24  27
ATOM     27  C   LIG    1        6.366  -1.547   0.792  0.00  0.00    +0.170 C 
ATOM     28  C   LIG    1        7.227  -1.217  -0.430  0.00  0.00    +0.030 C 
ENDBRANCH  24  27
ENDBRANCH   1  24
TORSDOF 7
