REMARK  Name = ZINCrH00000tj0SF.0
REMARK                            x       y       z     vdW  Elec       q    Type
REMARK                         _______ _______ _______ _____ _____    ______ ____
ROOT
ATOM      1  C   LIG    1       -5.571  10.143  -1.839  0.00  0.00    +0.270 C 
ENDROOT
BRANCH   1   4
ATOM      2  N   LIG    1       -6.774  12.302  -1.738  0.00  0.00    -0.650 N 
ATOM      3  H   LIG    1       -6.781  12.308  -2.708  0.00  0.00    +0.420 HD
ATOM      4  C   LIG    1       -6.200  11.279  -1.075  0.00  0.00    +0.510 C 
ATOM      5  O   LIG    1       -6.191  11.272   0.138  0.00  0.00    -0.440 OA
BRANCH   2  11
ATOM      6  C   LIG    1       -9.168  16.605  -1.718  0.00  0.00    +0.130 C 
ATOM      7  C   LIG    1       -8.520  15.445  -1.007  0.00  0.00    +0.010 A 
ATOM      8  C   LIG    1       -8.484  15.392   0.380  0.00  0.00    -0.120 A 
ATOM      9  C   LIG    1       -7.881  14.314   1.001  0.00  0.00    +0.340 A 
ATOM     10  N   LIG    1       -7.342  13.341   0.293  0.00  0.00    -0.450 NA
ATOM     11  C   LIG    1       -7.356  13.354  -1.030  0.00  0.00    +0.390 A 
ATOM     12 CL   LIG    1       -9.188  16.667   1.325  0.00  0.00    -0.040 Cl
ATOM     13  C   LIG    1       -7.941  14.410  -1.722  0.00  0.00    -0.120 A 
ATOM     14 CL   LIG    1       -7.949  14.427  -3.458  0.00  0.00    -0.040 Cl
ENDBRANCH   2  11
ENDBRANCH   1   4
BRANCH   1  15
ATOM     15  O   LIG    1       -5.027   9.174  -0.905  0.00  0.00    -0.330 OA
BRANCH  15  16
ATOM     16  C   LIG    1       -4.428   8.093  -1.429  0.00  0.00    +0.470 C 
ATOM     17  O   LIG    1       -4.360   7.961  -2.628  0.00  0.00    -0.480 OA
BRANCH  16  18
ATOM     18  C   LIG    1       -3.839   7.044  -0.521  0.00  0.00    +0.290 C 
BRANCH  18  19
ATOM     19  O   LIG    1       -3.262   6.001  -1.310  0.00  0.00    -0.290 OA
BRANCH  19  20
ATOM     20  C   LIG    1       -2.684   4.969  -0.641  0.00  0.00    +0.130 A 
ATOM     21  C   LIG    1       -2.672   4.959   0.746  0.00  0.00    -0.080 A 
ATOM     22  C   LIG    1       -2.083   3.909   1.422  0.00  0.00    +0.060 A 
ATOM     23  C   LIG    1       -1.504   2.865   0.721  0.00  0.00    -0.130 A 
ATOM     24  C   LIG    1       -0.803   1.617   1.223  0.00  0.00    +0.080 C 
ATOM     25  C   LIG    1       -0.013   1.086   0.008  0.00  0.00    +0.030 C 
ATOM     26  C   LIG    1       -0.826   1.630  -1.186  0.00  0.00    +0.080 C 
ATOM     27  C   LIG    1       -1.515   2.872  -0.662  0.00  0.00    -0.060 A 
ATOM     28  C   LIG    1       -2.104   3.923  -1.342  0.00  0.00    +0.000 A 
ENDBRANCH  19  20
ENDBRANCH  18  19
ENDBRANCH  16  18
ENDBRANCH  15  16
ENDBRANCH   1  15
TORSDOF 7
