REMARK  Name = ZINCqH0000033RKE.0
REMARK                            x       y       z     vdW  Elec       q    Type
REMARK                         _______ _______ _______ _____ _____    ______ ____
ROOT
ATOM      1  N   LIG    1       -6.559  -1.054   0.967  0.00  0.00    -1.060 N 
ATOM      2  H   LIG    1       -7.488  -1.051   0.689  0.00  0.00    +0.430 HD
ENDROOT
BRANCH   1   3
ATOM      3  C   LIG    1       -6.230  -0.847   2.309  0.00  0.00    +0.150 A 
ATOM      4  C   LIG    1       -5.833  -1.917   3.100  0.00  0.00    +0.070 A 
ATOM      5  C   LIG    1       -5.503  -1.713   4.425  0.00  0.00    +0.050 A 
ATOM      6  C   LIG    1       -5.578  -0.439   4.971  0.00  0.00    +0.130 A 
ATOM      7  C   LIG    1       -5.980   0.633   4.182  0.00  0.00    +0.120 A 
ATOM      8  F   LIG    1       -6.053   1.873   4.713  0.00  0.00    -0.110 F 
ATOM      9  C   LIG    1       -6.305   0.429   2.854  0.00  0.00    +0.020 A 
BRANCH   6  10
ATOM     10  N   LIG    1       -5.247  -0.233   6.320  0.00  0.00    -0.340 N 
ATOM     11  C   LIG    1       -4.849  -1.166   7.205  0.00  0.00    +0.490 A 
ATOM     12  N   LIG    1       -4.636  -0.572   8.352  0.00  0.00    -0.530 NA
ATOM     13  C   LIG    1       -4.894   0.730   8.241  0.00  0.00    +0.440 A 
ATOM     14  N   LIG    1       -5.272   0.987   7.016  0.00  0.00    -0.300 NA
ENDBRANCH   6  10
ENDBRANCH   1   3
BRANCH   1  15
ATOM     15  S   LIG    1       -5.362  -1.302  -0.150  0.00  0.00    +2.690 S 
ATOM     16  O   LIG    1       -4.523  -2.320   0.380  0.00  0.00    -0.940 OA
ATOM     17  O   LIG    1       -6.006  -1.405  -1.413  0.00  0.00    -0.950 OA
BRANCH  15  21
ATOM     18  C   LIG    1       -2.858   2.466  -0.298  0.00  0.00    -0.010 A 
ATOM     19  C   LIG    1       -4.016   2.376  -1.048  0.00  0.00    -0.010 A 
ATOM     20  C   LIG    1       -4.778   1.223  -1.006  0.00  0.00    +0.130 A 
ATOM     21  C   LIG    1       -4.388   0.165  -0.207  0.00  0.00    -0.680 A 
ATOM     22  C   LIG    1       -3.233   0.258   0.547  0.00  0.00    +0.130 A 
ATOM     23  C   LIG    1       -2.468   1.408   0.502  0.00  0.00    -0.010 A 
BRANCH  18  24
ATOM     24  C   LIG    1       -2.025   3.721  -0.347  0.00  0.00    +0.020 C 
ATOM     25  C   LIG    1       -2.867   4.911   0.118  0.00  0.00    +0.040 C 
BRANCH  24  27
ATOM     26  C   LIG    1       -0.603   5.163  -1.810  0.00  0.00    +0.020 C 
ATOM     27  C   LIG    1       -1.550   3.962  -1.781  0.00  0.00    +0.010 C 
ENDBRANCH  24  27
ENDBRANCH  18  24
ENDBRANCH  15  21
ENDBRANCH   1  15
TORSDOF 6
