REMARK  Name = ZINCkj000005faeI.1
REMARK                            x       y       z     vdW  Elec       q    Type
REMARK                         _______ _______ _______ _____ _____    ______ ____
ROOT
ATOM      1  C   LIG    1        1.640  -4.577  -2.865  0.00  0.00    +0.220 C 
ENDROOT
BRANCH   1   2
ATOM      2  O   LIG    1        2.831  -4.035  -3.440  0.00  0.00    -0.540 OA
ATOM      3  H   LIG    1        3.641  -4.287  -2.977  0.00  0.00    +0.390 HD
ENDBRANCH   1   2
BRANCH   1   4
ATOM      4  C   LIG    1        1.714  -6.105  -2.884  0.00  0.00    +0.160 C 
BRANCH   4   5
ATOM      5  O   LIG    1        1.724  -6.564  -4.237  0.00  0.00    -0.370 OA
BRANCH   5   6
ATOM      6  C   LIG    1        1.792  -7.986  -4.368  0.00  0.00    +0.200 C 
BRANCH   6   7
ATOM      7  C   LIG    1        1.796  -8.361  -5.851  0.00  0.00    +0.190 C 
BRANCH   7   8
ATOM      8  O   LIG    1        2.988  -7.868  -6.464  0.00  0.00    -0.380 OA
BRANCH   8  10
ATOM      9  C   LIG    1        3.892  -7.067  -8.557  0.00  0.00    +0.040 C 
ATOM     10  C   LIG    1        3.091  -8.167  -7.858  0.00  0.00    +0.140 C 
ATOM     11  C   LIG    1        3.802  -9.509  -8.040  0.00  0.00    +0.010 C 
ENDBRANCH   8  10
ENDBRANCH   7   8
ENDBRANCH   6   7
ENDBRANCH   5   6
ENDBRANCH   4   5
ENDBRANCH   1   4
BRANCH   1  12
ATOM     12  C   LIG    1        1.505  -4.091  -1.420  0.00  0.00    +0.240 C 
BRANCH  12  13
ATOM     13  N   LIG    1        1.313  -2.635  -1.409  0.00  0.00    -0.380 N 
ATOM     14  C   LIG    1        0.034  -2.304  -2.052  0.00  0.00    +0.320 C 
ATOM     15  H   LIG    1        2.067  -2.192  -1.913  0.00  0.00    +0.430 HD
BRANCH  13  16
ATOM     16  C   LIG    1        1.303  -2.152  -0.021  0.00  0.00    +0.330 C 
BRANCH  16  17
ATOM     17  C   LIG    1        1.230  -0.647  -0.013  0.00  0.00    -0.220 A 
ATOM     18  C   LIG    1        0.002  -0.004   0.002  0.00  0.00    +0.090 A 
ATOM     19  C   LIG    1       -0.017   1.383   0.010  0.00  0.00    -0.020 A 
ATOM     20  C   LIG    1        1.181   2.072   0.002  0.00  0.00    +0.310 A 
ATOM     21  N   LIG    1        2.331   1.427  -0.013  0.00  0.00    -0.470 NA
ATOM     22  C   LIG    1        2.387   0.110  -0.020  0.00  0.00    +0.290 A 
ENDBRANCH  16  17
ENDBRANCH  13  16
ENDBRANCH  12  13
ENDBRANCH   1  12
TORSDOF 11
