REMARK  Name = ZINCkj000005faeI.0
REMARK                            x       y       z     vdW  Elec       q    Type
REMARK                         _______ _______ _______ _____ _____    ______ ____
ROOT
ATOM      1  C   LIG    1        5.708   3.472  -2.692  0.00  0.00    +0.210 C 
ENDROOT
BRANCH   1   2
ATOM      2  O   LIG    1        4.912   4.491  -3.300  0.00  0.00    -0.540 OA
ATOM      3  H   LIG    1        4.879   5.317  -2.798  0.00  0.00    +0.390 HD
ENDBRANCH   1   2
BRANCH   1   4
ATOM      4  C   LIG    1        7.148   3.969  -2.547  0.00  0.00    +0.160 C 
BRANCH   4   5
ATOM      5  O   LIG    1        7.716   4.170  -3.843  0.00  0.00    -0.370 OA
BRANCH   5   6
ATOM      6  C   LIG    1        9.066   4.636  -3.821  0.00  0.00    +0.200 C 
BRANCH   6   7
ATOM      7  C   LIG    1        9.568   4.815  -5.255  0.00  0.00    +0.190 C 
BRANCH   7   8
ATOM      8  O   LIG    1        8.821   5.851  -5.895  0.00  0.00    -0.380 OA
BRANCH   8  10
ATOM      9  C   LIG    1        8.005   6.596  -8.045  0.00  0.00    +0.040 C 
ATOM     10  C   LIG    1        9.213   6.100  -7.247  0.00  0.00    +0.140 C 
ATOM     11  C   LIG    1       10.312   7.164  -7.272  0.00  0.00    +0.010 C 
ENDBRANCH   8  10
ENDBRANCH   7   8
ENDBRANCH   6   7
ENDBRANCH   5   6
ENDBRANCH   4   5
ENDBRANCH   1   4
BRANCH   1  12
ATOM     12  C   LIG    1        5.142   3.138  -1.311  0.00  0.00    +0.240 C 
BRANCH  12  13
ATOM     13  N   LIG    1        3.804   2.552  -1.459  0.00  0.00    -0.380 N 
ATOM     14  C   LIG    1        3.198   2.373  -0.132  0.00  0.00    +0.330 C 
ATOM     15  H   LIG    1        3.226   3.167  -2.012  0.00  0.00    +0.430 HD
BRANCH  13  16
ATOM     16  C   LIG    1        3.911   1.248  -2.127  0.00  0.00    +0.320 C 
BRANCH  16  17
ATOM     17  C   LIG    1        2.531   0.703  -2.389  0.00  0.00    -0.220 A 
ATOM     18  C   LIG    1        1.874   0.994  -3.576  0.00  0.00    +0.110 A 
ATOM     19  C   LIG    1        0.606   0.470  -3.774  0.00  0.00    -0.020 A 
ATOM     20  C   LIG    1        0.042  -0.319  -2.789  0.00  0.00    +0.310 A 
ATOM     21  N   LIG    1        0.696  -0.575  -1.673  0.00  0.00    -0.480 NA
ATOM     22  C   LIG    1        1.903  -0.094  -1.450  0.00  0.00    +0.290 A 
ENDBRANCH  16  17
ENDBRANCH  13  16
ENDBRANCH  12  13
ENDBRANCH   1  12
TORSDOF 11
