REMARK  Name = ZINCrH00000tj10B.0
REMARK                            x       y       z     vdW  Elec       q    Type
REMARK                         _______ _______ _______ _____ _____    ______ ____
ROOT
ATOM      1  C   LIG    1       -0.079   6.004   0.034  0.00  0.00    +0.510 C 
ATOM      2  O   LIG    1        0.964   6.625   0.028  0.00  0.00    -0.480 OA
ENDROOT
BRANCH   1   3
ATOM      3  C   LIG    1       -0.059   4.527   0.026  0.00  0.00    -0.060 A 
ATOM      4  C   LIG    1        1.157   3.842   0.011  0.00  0.00    +0.090 A 
ATOM      5  C   LIG    1        1.169   2.463   0.004  0.00  0.00    +0.140 A 
ATOM      6  C   LIG    1       -0.022   1.758   0.012  0.00  0.00    -0.630 A 
ATOM      7  C   LIG    1       -1.231   2.430   0.021  0.00  0.00    +0.140 A 
ATOM      8  C   LIG    1       -1.257   3.809   0.034  0.00  0.00    +0.070 A 
BRANCH   6   9
ATOM      9  S   LIG    1        0.002  -0.004   0.002  0.00  0.00    +2.490 S 
ATOM     10  O   LIG    1        1.238  -0.334  -0.617  0.00  0.00    -0.850 OA
ATOM     11  O   LIG    1       -1.236  -0.368  -0.593  0.00  0.00    -0.850 OA
BRANCH   9  12
ATOM     12  C   LIG    1        0.025  -0.466   1.756  0.00  0.00    -0.020 C 
ATOM     13  F   LIG    1        1.166   0.068   2.364  0.00  0.00    -0.150 F 
ATOM     14  F   LIG    1        0.045  -1.860   1.871  0.00  0.00    -0.160 F 
ATOM     15  F   LIG    1       -1.118   0.037   2.386  0.00  0.00    -0.160 F 
ENDBRANCH   9  12
ENDBRANCH   6   9
ENDBRANCH   1   3
BRANCH   1  16
ATOM     16  O   LIG    1       -1.255   6.662   0.048  0.00  0.00    -0.350 OA
BRANCH  16  18
ATOM     17  C   LIG    1       -1.192   8.630  -1.384  0.00  0.00    +0.090 C 
ATOM     18  C   LIG    1       -1.199   8.112   0.056  0.00  0.00    +0.290 C 
BRANCH  18  19
ATOM     19  C   LIG    1       -2.402   8.658   0.780  0.00  0.00    +0.280 A 
ATOM     20  N   LIG    1       -2.701   9.920   0.883  0.00  0.00    -0.470 NA
ATOM     21  C   LIG    1       -3.847  10.061   1.598  0.00  0.00    +0.050 A 
ATOM     22  C   LIG    1       -4.602  11.166   2.000  0.00  0.00    +0.070 A 
ATOM     23  C   LIG    1       -5.741  10.982   2.732  0.00  0.00    +0.000 A 
ATOM     24  C   LIG    1       -6.158   9.706   3.083  0.00  0.00    +0.030 A 
ATOM     25  C   LIG    1       -5.429   8.601   2.697  0.00  0.00    +0.020 A 
ATOM     26  C   LIG    1       -4.269   8.769   1.953  0.00  0.00    +0.050 A 
ATOM     27  N   LIG    1       -3.337   7.903   1.417  0.00  0.00    -0.590 N 
ATOM     28  H   LIG    1       -3.347   6.935   1.483  0.00  0.00    +0.430 HD
ENDBRANCH  18  19
ENDBRANCH  16  18
ENDBRANCH   1  16
TORSDOF 6
