REMARK  Name = ZINCpe000000Xa9j.2
REMARK                            x       y       z     vdW  Elec       q    Type
REMARK                         _______ _______ _______ _____ _____    ______ ____
ROOT
ATOM      1  C   LIG    1       -3.864   7.841  -0.570  0.00  0.00    +0.070 C 
ATOM      2  C   LIG    1       -3.223   7.351   0.730  0.00  0.00    +0.130 C 
ENDROOT
BRANCH   2   3
ATOM      3  C   LIG    1       -3.367   5.854   0.829  0.00  0.00    +0.520 C 
ATOM      4  N   LIG    1       -2.463   5.050   0.235  0.00  0.00    -0.620 N 
ATOM      5  C   LIG    1       -1.395   5.614  -0.603  0.00  0.00    +0.260 C 
ATOM      6  C   LIG    1       -0.046   5.095  -0.096  0.00  0.00    +0.020 C 
ATOM      7  C   LIG    1       -0.074   3.565  -0.058  0.00  0.00    +0.030 C 
ATOM      8  C   LIG    1       -1.165   3.096   0.907  0.00  0.00    -0.020 C 
ATOM      9  C   LIG    1       -2.527   3.593   0.413  0.00  0.00    +0.310 C 
ATOM     10  O   LIG    1       -4.296   5.373   1.442  0.00  0.00    -0.510 OA
BRANCH   8  11
ATOM     11  C   LIG    1       -1.170   1.591   0.969  0.00  0.00    +0.520 C 
ATOM     12  O   LIG    1       -2.164   0.974   0.650  0.00  0.00    -0.540 OA
ATOM     13  N   LIG    1       -0.069   0.929   1.377  0.00  0.00    -0.850 N 
ATOM     14  H   LIG    1        0.728   1.422   1.628  0.00  0.00    +0.400 HD
ATOM     15  H   LIG    1       -0.072  -0.040   1.417  0.00  0.00    +0.400 HD
ENDBRANCH   8  11
ENDBRANCH   2   3
BRANCH   2  16
ATOM     16  N   LIG    1       -3.892   7.984   1.875  0.00  0.00    -0.510 NA
ATOM     17  C   LIG    1       -3.374   7.475   3.122  0.00  0.00    +0.180 C 
ATOM     18  C   LIG    1       -4.556   7.262   4.086  0.00  0.00    +0.050 C 
ATOM     19  C   LIG    1       -4.973   8.495   4.745  0.00  0.00    +0.020 C 
ATOM     20  C   LIG    1       -5.457   9.552   3.726  0.00  0.00    +0.110 C 
ATOM     21  C   LIG    1       -4.256  10.177   3.067  0.00  0.00    +0.060 C 
ATOM     22  C   LIG    1       -3.843   9.458   1.770  0.00  0.00    +0.220 C 
BRANCH  20  23
ATOM     23  C   LIG    1       -6.263  10.631   4.451  0.00  0.00    +0.420 C 
ATOM     24  F   LIG    1       -7.370  10.046   5.075  0.00  0.00    -0.180 F 
ATOM     25  F   LIG    1       -6.700  11.586   3.526  0.00  0.00    -0.180 F 
ATOM     26  F   LIG    1       -5.457  11.248   5.414  0.00  0.00    -0.180 F 
ENDBRANCH  20  23
BRANCH  20  27
ATOM     27  O   LIG    1       -6.276   8.924   2.738  0.00  0.00    -0.500 OA
ATOM     28  H   LIG    1       -7.064   8.493   3.097  0.00  0.00    +0.380 HD
ENDBRANCH  20  27
ENDBRANCH   2  16
TORSDOF 5
