REMARK  Name = ZINCqH0000050H7F.0
REMARK                            x       y       z     vdW  Elec       q    Type
REMARK                         _______ _______ _______ _____ _____    ______ ____
ROOT
ATOM      1  C   LIG    1        5.306   2.105  -0.923  0.00  0.00    +0.280 C 
ATOM      2  C   LIG    1        6.219   2.243   0.297  0.00  0.00    +0.020 C 
ATOM      3  C   LIG    1        6.070   1.003   1.184  0.00  0.00    +0.320 C 
ATOM      4  N   LIG    1        6.328  -0.193   0.370  0.00  0.00    -0.630 N 
ATOM      5  C   LIG    1        5.569  -0.379  -0.874  0.00  0.00    +0.270 C 
ATOM      6  C   LIG    1        7.243  -1.103   0.758  0.00  0.00    +0.710 C 
ATOM      7  N   LIG    1        7.396  -2.246   0.059  0.00  0.00    -0.680 N 
ATOM      8  H   LIG    1        6.902  -2.380  -0.764  0.00  0.00    +0.410 HD
ATOM      9  O   LIG    1        7.932  -0.894   1.738  0.00  0.00    -0.570 OA
ATOM     10  C   LIG    1        5.722   0.877  -1.737  0.00  0.00    +0.020 C 
ENDROOT
BRANCH   7  11
ATOM     11  C   LIG    1        8.269  -3.240   0.523  0.00  0.00    +0.150 A 
ATOM     12  C   LIG    1        8.659  -3.252   1.851  0.00  0.00    +0.060 A 
ATOM     13  C   LIG    1        9.518  -4.231   2.317  0.00  0.00    +0.010 A 
ATOM     14  C   LIG    1        9.993  -5.197   1.449  0.00  0.00    +0.040 A 
ATOM     15  C   LIG    1        9.608  -5.188   0.125  0.00  0.00    -0.150 A 
ATOM     16  C   LIG    1        9.946  -6.101  -1.038  0.00  0.00    +0.080 C 
ATOM     17  C   LIG    1        8.854  -5.724  -2.067  0.00  0.00    +0.100 C 
ATOM     18  C   LIG    1        9.409  -5.762  -3.492  0.00  0.00    +0.080 C 
ATOM     19  C   LIG    1        7.642  -6.650  -1.935  0.00  0.00    +0.050 C 
ATOM     20  O   LIG    1        8.511  -4.380  -1.689  0.00  0.00    -0.300 OA
ATOM     21  C   LIG    1        8.748  -4.214  -0.358  0.00  0.00    +0.070 A 
ENDBRANCH   7  11
BRANCH   1  25
ATOM     22  C   LIG    1        7.177   6.118  -3.273  0.00  0.00    +0.110 C 
ATOM     23  C   LIG    1        6.229   5.053  -2.783  0.00  0.00    -0.240 A 
ATOM     24  C   LIG    1        6.540   4.032  -1.952  0.00  0.00    +0.220 A 
ATOM     25  N   LIG    1        5.420   3.304  -1.757  0.00  0.00    -0.370 N 
ATOM     26  N   LIG    1        4.387   3.899  -2.491  0.00  0.00    -0.300 NA
ATOM     27  C   LIG    1        4.872   4.947  -3.106  0.00  0.00    +0.230 A 
ENDBRANCH   1  25
TORSDOF 2
