REMARK  Name = ZINCtV000002GRev.0
REMARK                            x       y       z     vdW  Elec       q    Type
REMARK                         _______ _______ _______ _____ _____    ______ ____
ROOT
ATOM      1  C   LIG    1        0.550   3.460   3.036  0.00  0.00    +0.100 C 
ATOM      2  C   LIG    1        0.616   1.985   3.340  0.00  0.00    -0.020 A 
ATOM      3  C   LIG    1        1.460   1.530   4.331  0.00  0.00    +0.020 A 
ATOM      4  C   LIG    1        1.527   0.171   4.611  0.00  0.00    +0.150 A 
ATOM      5  C   LIG    1        0.727  -0.724   3.879  0.00  0.00    -0.150 A 
ATOM      6  C   LIG    1        0.803  -2.156   4.180  0.00  0.00    +0.030 A 
ATOM      7  C   LIG    1        1.649  -2.560   5.161  0.00  0.00    -0.050 A 
ATOM      8  C   LIG    1        2.425  -1.606   5.856  0.00  0.00    +0.510 A 
ATOM      9  O   LIG    1        3.180  -1.982   6.734  0.00  0.00    -0.460 OA
ATOM     10  C   LIG    1       -0.126  -0.241   2.881  0.00  0.00    +0.090 A 
ATOM     11  O   LIG    1        2.349  -0.297   5.574  0.00  0.00    -0.270 OA
ATOM     12  C   LIG    1       -0.176   1.100   2.623  0.00  0.00    -0.090 A 
ENDROOT
BRANCH  12  13
ATOM     13  C   LIG    1       -1.095   1.621   1.548  0.00  0.00    +0.030 C 
ATOM     14  C   LIG    1       -2.520   1.130   1.813  0.00  0.00    +0.030 C 
ATOM     15  C   LIG    1       -0.625   1.111   0.184  0.00  0.00    +0.030 C 
ENDBRANCH  12  13
BRANCH   6  16
ATOM     16  C   LIG    1       -0.035  -3.153   3.423  0.00  0.00    +0.150 C 
BRANCH  16  17
ATOM     17  S   LIG    1       -1.751  -3.054   3.992  0.00  0.00    +0.010 S 
BRANCH  17  18
ATOM     18  C   LIG    1       -2.484  -4.288   2.970  0.00  0.00    +0.200 A 
ATOM     19  C   LIG    1       -3.870  -4.577   3.066  0.00  0.00    -0.140 A 
ATOM     20  C   LIG    1       -4.388  -5.561   2.231  0.00  0.00    +0.100 A 
ATOM     21  S   LIG    1       -6.108  -5.738   2.527  0.00  0.00    +0.210 S 
ATOM     22  C   LIG    1       -6.100  -4.486   3.769  0.00  0.00    -0.190 A 
ATOM     23  C   LIG    1       -7.095  -3.814   4.712  0.00  0.00    +0.120 C 
ATOM     24  C   LIG    1       -6.223  -3.139   5.789  0.00  0.00    +0.050 C 
ATOM     25  C   LIG    1       -4.909  -2.901   5.019  0.00  0.00    +0.110 C 
ATOM     26  N   LIG    1       -3.568  -6.192   1.379  0.00  0.00    -0.490 NA
ATOM     27  C   LIG    1       -2.291  -5.892   1.325  0.00  0.00    +0.540 A 
ATOM     28  C   LIG    1       -4.886  -3.981   3.938  0.00  0.00    -0.090 A 
ATOM     29  N   LIG    1       -1.752  -4.962   2.093  0.00  0.00    -0.530 NA
ENDBRANCH  17  18
ENDBRANCH  16  17
ENDBRANCH   6  16
TORSDOF 4
