REMARK  Name = ZINCpe000000WaiJ.0
REMARK                            x       y       z     vdW  Elec       q    Type
REMARK                         _______ _______ _______ _____ _____    ______ ____
ROOT
ATOM      1  C   LIG    1        0.473  -3.397  -3.503  0.00  0.00    +0.260 C 
ATOM      2  C   LIG    1        1.952  -2.979  -3.668  0.00  0.00    +0.060 C 
ATOM      3  C   LIG    1        2.429  -2.922  -2.200  0.00  0.00    +0.280 C 
ATOM      4  N   LIG    1        1.222  -2.667  -1.406  0.00  0.00    -0.600 N 
ATOM      5  C   LIG    1        0.108  -2.936  -2.109  0.00  0.00    +0.520 C 
ATOM      6  O   LIG    1       -1.023  -2.823  -1.689  0.00  0.00    -0.510 OA
ENDROOT
BRANCH   1  11
ATOM      7  C   LIG    1       -3.594  -0.838  -6.527  0.00  0.00    +0.170 C 
ATOM      8  C   LIG    1       -3.231  -2.332  -6.324  0.00  0.00    +0.100 C 
ATOM      9  C   LIG    1       -1.690  -2.293  -6.299  0.00  0.00    +0.190 C 
ATOM     10  C   LIG    1       -1.104  -3.376  -5.430  0.00  0.00    +0.530 C 
ATOM     11  N   LIG    1       -0.363  -2.729  -4.503  0.00  0.00    -0.560 N 
ATOM     12  C   LIG    1       -0.486  -1.398  -4.618  0.00  0.00    +0.740 C 
ATOM     13  O   LIG    1        0.169  -0.597  -3.981  0.00  0.00    -0.520 OA
ATOM     14  O   LIG    1       -1.265  -4.573  -5.539  0.00  0.00    -0.460 OA
ATOM     15  N   LIG    1       -1.414  -1.058  -5.517  0.00  0.00    -0.630 N 
ATOM     16  C   LIG    1       -2.353  -0.058  -6.037  0.00  0.00    +0.320 C 
BRANCH   7  18
ATOM     17  C   LIG    1       -5.540   0.545  -6.311  0.00  0.00    +0.220 C 
ATOM     18  O   LIG    1       -4.739  -0.494  -5.744  0.00  0.00    -0.370 OA
ENDBRANCH   7  18
ENDBRANCH   1  11
BRANCH   4  19
ATOM     19  C   LIG    1        1.229  -2.186  -0.022  0.00  0.00    +0.350 C 
BRANCH  19  20
ATOM     20  C   LIG    1        1.208  -0.679  -0.014  0.00  0.00    -0.110 A 
ATOM     21  C   LIG    1        0.002  -0.004   0.002  0.00  0.00    +0.030 A 
ATOM     22  C   LIG    1       -0.017   1.378   0.010  0.00  0.00    +0.000 A 
ATOM     23  C   LIG    1        1.171   2.086   0.002  0.00  0.00    +0.010 A 
ATOM     24  C   LIG    1        2.377   1.411  -0.014  0.00  0.00    +0.000 A 
ATOM     25  C   LIG    1        2.396   0.029  -0.021  0.00  0.00    +0.020 A 
ENDBRANCH  19  20
ENDBRANCH   4  19
TORSDOF 4
