REMARK  Name = ZINCrD000000Ajp1.0
REMARK                            x       y       z     vdW  Elec       q    Type
REMARK                         _______ _______ _______ _____ _____    ______ ____
ROOT
ATOM      1  C   LIG    1       -4.450   2.290  -2.938  0.00  0.00    +0.100 C 
ENDROOT
BRANCH   1   2
ATOM      2  C   LIG    1       -3.378   3.009  -2.159  0.00  0.00    +0.530 C 
ATOM      3  N   LIG    1       -3.517   3.188  -0.831  0.00  0.00    -0.610 N 
ATOM      4  C   LIG    1       -4.659   2.733  -0.017  0.00  0.00    +0.250 C 
ATOM      5  C   LIG    1       -4.663   3.669   1.218  0.00  0.00    +0.040 C 
ATOM      6  C   LIG    1       -3.142   3.858   1.474  0.00  0.00    +0.050 C 
ATOM      7  C   LIG    1       -2.553   3.868   0.047  0.00  0.00    +0.270 C 
ATOM      8  O   LIG    1       -2.392   3.426  -2.728  0.00  0.00    -0.530 OA
BRANCH   7   9
ATOM      9  C   LIG    1       -1.238   3.133   0.030  0.00  0.00    -0.100 A 
ATOM     10  C   LIG    1       -1.218   1.751   0.017  0.00  0.00    +0.050 A 
ATOM     11  C   LIG    1       -0.013   1.076   0.008  0.00  0.00    -0.020 A 
ATOM     12  C   LIG    1        1.177   1.785   0.000  0.00  0.00    +0.100 A 
ATOM     13  C   LIG    1        1.157   3.169   0.008  0.00  0.00    -0.010 A 
ATOM     14  F   LIG    1        2.356   1.126  -0.015  0.00  0.00    -0.140 F 
ATOM     15  C   LIG    1       -0.051   3.842   0.023  0.00  0.00    +0.060 A 
ENDBRANCH   7   9
ENDBRANCH   1   2
BRANCH   1  16
ATOM     16  C   LIG    1       -4.050   2.223  -4.414  0.00  0.00    +0.150 C 
BRANCH  16  20
ATOM     17  O   LIG    1       -8.138   0.017  -4.556  0.00  0.00    -0.480 OA
ATOM     18  C   LIG    1       -7.166   0.417  -5.173  0.00  0.00    +0.530 A 
ATOM     19  N   LIG    1       -6.165   1.065  -4.547  0.00  0.00    -0.600 NA
ATOM     20  C   LIG    1       -5.121   1.504  -5.193  0.00  0.00    +0.450 A 
ATOM     21  N   LIG    1       -4.948   1.344  -6.516  0.00  0.00    -0.620 N 
ATOM     22  H   LIG    1       -4.147   1.690  -6.942  0.00  0.00    +0.420 HD
ATOM     23  C   LIG    1       -5.900   0.693  -7.274  0.00  0.00    +0.170 A 
ATOM     24  C   LIG    1       -5.753   0.511  -8.642  0.00  0.00    -0.020 A 
ATOM     25  C   LIG    1       -6.734  -0.147  -9.353  0.00  0.00    +0.080 A 
ATOM     26  C   LIG    1       -7.868  -0.630  -8.716  0.00  0.00    -0.010 A 
ATOM     27  C   LIG    1       -8.032  -0.460  -7.358  0.00  0.00    +0.110 A 
ATOM     28  C   LIG    1       -7.050   0.203  -6.627  0.00  0.00    -0.210 A 
ENDBRANCH  16  20
ENDBRANCH   1  16
TORSDOF 4
