REMARK  Name = ZINCrg00000SjStr.0
REMARK                            x       y       z     vdW  Elec       q    Type
REMARK                         _______ _______ _______ _____ _____    ______ ____
ROOT
ATOM      1  N   LIG    1        2.543   3.884   0.021  0.00  0.00    -0.390 N 
ATOM      2  C   LIG    1        3.304   2.773  -0.036  0.00  0.00    +0.300 A 
ATOM      3  N   LIG    1        2.535   1.715  -0.096  0.00  0.00    -0.490 NA
ATOM      4  C   LIG    1        1.252   2.086  -0.081  0.00  0.00    +0.320 A 
ATOM      5  N   LIG    1        0.052   1.395  -0.123  0.00  0.00    -0.510 N 
ATOM      6  C   LIG    1        0.052  -0.068  -0.202  0.00  0.00    +0.340 C 
ATOM      7  C   LIG    1       -1.115   2.067  -0.097  0.00  0.00    +0.710 A 
ATOM      8  O   LIG    1       -2.158   1.444  -0.140  0.00  0.00    -0.530 OA
ATOM      9  N   LIG    1       -1.155   3.408  -0.019  0.00  0.00    -0.550 N 
ATOM     10  C   LIG    1       -2.451   4.090   0.012  0.00  0.00    +0.350 C 
ATOM     11  C   LIG    1       -0.020   4.136   0.025  0.00  0.00    +0.590 A 
ATOM     12  O   LIG    1       -0.070   5.351   0.091  0.00  0.00    -0.510 OA
ATOM     13  C   LIG    1        1.226   3.473  -0.006  0.00  0.00    -0.150 A 
ENDROOT
BRANCH   1  14
ATOM     14  C   LIG    1        3.024   5.266   0.098  0.00  0.00    +0.310 C 
BRANCH  14  15
ATOM     15  C   LIG    1        3.069   5.709   1.562  0.00  0.00    +0.010 C 
BRANCH  15  17
ATOM     16  C   LIG    1        3.369   7.665   3.087  0.00  0.00    +0.030 C 
ATOM     17  C   LIG    1        3.445   7.190   1.635  0.00  0.00    -0.010 C 
ATOM     18  C   LIG    1        4.870   7.381   1.109  0.00  0.00    +0.030 C 
ENDBRANCH  15  17
ENDBRANCH  14  15
ENDBRANCH   1  14
BRANCH   2  19
ATOM     19  C   LIG    1        4.810   2.752  -0.032  0.00  0.00    +0.310 C 
BRANCH  19  20
ATOM     20  N   LIG    1        5.307   2.944  -1.401  0.00  0.00    -0.530 NA
ATOM     21  C   LIG    1        5.069   1.746  -2.220  0.00  0.00    +0.160 C 
ATOM     22  C   LIG    1        5.546   2.010  -3.651  0.00  0.00    +0.160 C 
ATOM     23  O   LIG    1        6.926   2.385  -3.627  0.00  0.00    -0.370 OA
ATOM     24  C   LIG    1        7.193   3.548  -2.838  0.00  0.00    +0.200 C 
ATOM     25  C   LIG    1        6.434   4.743  -3.418  0.00  0.00    +0.010 C 
ATOM     26  C   LIG    1        5.376   0.742  -4.489  0.00  0.00    +0.050 C 
ATOM     27  C   LIG    1        6.733   3.299  -1.399  0.00  0.00    +0.160 C 
ENDBRANCH  19  20
ENDBRANCH   2  19
TORSDOF 5
