REMARK  Name = ZINCrg000000tMC9.0
REMARK                            x       y       z     vdW  Elec       q    Type
REMARK                         _______ _______ _______ _____ _____    ______ ____
ROOT
ATOM      1  C   LIG    1        6.652   1.220  -1.333  0.00  0.00    +0.010 C 
ATOM      2  C   LIG    1        7.629   0.452  -0.438  0.00  0.00    +0.070 C 
ATOM      3  C   LIG    1        7.281  -1.042  -0.469  0.00  0.00    +0.190 C 
ATOM      4  C   LIG    1        5.799  -1.183  -0.227  0.00  0.00    +0.190 A 
ATOM      5  N   LIG    1        5.130  -2.245   0.107  0.00  0.00    -0.280 NA
ATOM      6  N   LIG    1        3.880  -1.956   0.228  0.00  0.00    -0.270 NA
ATOM      7  C   LIG    1        3.690  -0.679  -0.036  0.00  0.00    +0.220 A 
ATOM      8  N   LIG    1        4.910  -0.154  -0.330  0.00  0.00    -0.470 N 
ATOM      9  C   LIG    1        5.259   1.219  -0.692  0.00  0.00    +0.330 C 
ENDROOT
BRANCH   1  11
ATOM     10  O   LIG    1        6.693   3.511  -0.771  0.00  0.00    -0.490 OA
ATOM     11  C   LIG    1        7.128   2.640  -1.494  0.00  0.00    +0.550 C 
ATOM     12  N   LIG    1        8.037   2.943  -2.442  0.00  0.00    -0.530 N 
ATOM     13  C   LIG    1        8.610   4.297  -2.571  0.00  0.00    +0.300 C 
ATOM     14  C   LIG    1        8.647   4.675  -4.056  0.00  0.00    +0.060 C 
ATOM     15  C   LIG    1        9.564   3.708  -4.816  0.00  0.00    +0.350 C 
ATOM     16  N   LIG    1        9.202   2.338  -4.459  0.00  0.00    -0.390 N 
ATOM     17  N   LIG    1        9.475   1.138  -5.115  0.00  0.00    -0.060 NA
ATOM     18  N   LIG    1        8.938   0.200  -4.404  0.00  0.00    -0.020 NA
ATOM     19  N   LIG    1        8.357   0.700  -3.367  0.00  0.00    -0.340 NA
ATOM     20  C   LIG    1        8.495   1.994  -3.352  0.00  0.00    +0.460 A 
ENDBRANCH   1  11
BRANCH   7  21
ATOM     21  C   LIG    1        2.400   0.045  -0.011  0.00  0.00    -0.030 A 
ATOM     22  C   LIG    1        1.199  -0.665  -0.001  0.00  0.00    +0.110 A 
ATOM     23  C   LIG    1       -0.001   0.015   0.023  0.00  0.00    +0.000 A 
ATOM     24  C   LIG    1       -0.014   1.401   0.036  0.00  0.00    +0.110 A 
ATOM     25  C   LIG    1        1.176   2.110   0.026  0.00  0.00    -0.010 A 
ATOM     26  F   LIG    1       -1.192   2.062   0.053  0.00  0.00    -0.130 F 
ATOM     27  C   LIG    1        2.381   1.440   0.003  0.00  0.00    +0.050 A 
ENDBRANCH   7  21
TORSDOF 2
