REMARK  Name = ZINCrH000004rqae.0
REMARK                            x       y       z     vdW  Elec       q    Type
REMARK                         _______ _______ _______ _____ _____    ______ ____
ROOT
ATOM      1  C   LIG    1        1.618   0.768  -0.289  0.00  0.00    +0.100 C 
ATOM      2  C   LIG    1        0.555   1.837  -0.261  0.00  0.00    +0.010 A 
ATOM      3  C   LIG    1       -0.779   1.484  -0.342  0.00  0.00    +0.020 A 
ATOM      4  C   LIG    1       -1.756   2.461  -0.322  0.00  0.00    +0.060 A 
ATOM      5  C   LIG    1       -1.396   3.798  -0.210  0.00  0.00    +0.110 A 
ATOM      6  C   LIG    1       -0.054   4.148  -0.129  0.00  0.00    +0.140 A 
ATOM      7  C   LIG    1        0.917   3.167  -0.155  0.00  0.00    -0.660 A 
ENDROOT
BRANCH   5   8
ATOM      8  N   LIG    1       -2.382   4.789  -0.183  0.00  0.00    -0.670 N 
ATOM      9  H   LIG    1       -3.228   4.620   0.259  0.00  0.00    +0.410 HD
ATOM     10  C   LIG    1       -2.157   5.979  -0.774  0.00  0.00    +0.560 C 
ATOM     11  O   LIG    1       -1.068   6.223  -1.256  0.00  0.00    -0.500 OA
BRANCH  10  12
ATOM     12  C   LIG    1       -3.234   6.990  -0.835  0.00  0.00    -0.080 A 
ATOM     13  C   LIG    1       -4.487   6.711  -0.287  0.00  0.00    +0.020 A 
ATOM     14  C   LIG    1       -5.489   7.662  -0.342  0.00  0.00    +0.130 A 
ATOM     15  C   LIG    1       -5.255   8.885  -0.950  0.00  0.00    +0.000 A 
ATOM     16  C   LIG    1       -4.015   9.164  -1.500  0.00  0.00    +0.130 A 
ATOM     17  F   LIG    1       -3.793  10.359  -2.091  0.00  0.00    -0.120 F 
ATOM     18  F   LIG    1       -6.701   7.396   0.192  0.00  0.00    -0.120 F 
ATOM     19  C   LIG    1       -3.004   8.223  -1.445  0.00  0.00    +0.060 A 
ENDBRANCH  10  12
ENDBRANCH   5   8
BRANCH   7  20
ATOM     20  S   LIG    1        2.619   3.611  -0.052  0.00  0.00    +2.690 S 
ATOM     21  O   LIG    1        3.208   2.726   0.891  0.00  0.00    -0.950 OA
ATOM     22  O   LIG    1        2.658   5.025   0.079  0.00  0.00    -0.950 OA
BRANCH  20  23
ATOM     23  N   LIG    1        3.307   3.259  -1.517  0.00  0.00    -0.990 NA
ATOM     24  C   LIG    1        4.004   1.983  -1.729  0.00  0.00    +0.290 C 
ATOM     25  C   LIG    1        3.405   1.298  -2.967  0.00  0.00    +0.010 C 
ATOM     26  C   LIG    1        3.475   2.258  -4.157  0.00  0.00    +0.020 C 
ATOM     27  C   LIG    1        2.650   3.511  -3.854  0.00  0.00    +0.010 C 
ATOM     28  C   LIG    1        3.236   4.218  -2.628  0.00  0.00    +0.290 C 
ENDBRANCH  20  23
ENDBRANCH   7  20
TORSDOF 4
