REMARK  Name = ZINCpk00000K75nv.0
REMARK                            x       y       z     vdW  Elec       q    Type
REMARK                         _______ _______ _______ _____ _____    ______ ____
ROOT
ATOM      1  O   LIG    1       -2.201   1.267  -1.189  0.00  0.00    -0.500 OA
ATOM      2  C   LIG    1       -1.137   1.855  -1.195  0.00  0.00    +0.570 A 
ATOM      3  N   LIG    1       -1.032   3.064  -1.780  0.00  0.00    -0.510 N 
ATOM      4  H   LIG    1       -1.817   3.457  -2.193  0.00  0.00    +0.430 HD
ATOM      5  N   LIG    1        0.170   3.772  -1.802  0.00  0.00    -0.500 N 
ATOM      6  H   LIG    1        0.196   4.642  -2.231  0.00  0.00    +0.430 HD
ATOM      7  C   LIG    1        1.296   3.283  -1.247  0.00  0.00    +0.570 A 
ATOM      8  C   LIG    1        1.269   1.962  -0.592  0.00  0.00    -0.150 A 
ATOM      9  C   LIG    1        2.409   1.414  -0.003  0.00  0.00    +0.220 A 
ATOM     10  C   LIG    1        2.331   0.162   0.604  0.00  0.00    +0.040 A 
ATOM     11  C   LIG    1        1.139  -0.533   0.623  0.00  0.00    +0.080 A 
ATOM     12  C   LIG    1       -0.000   0.001   0.041  0.00  0.00    +0.070 A 
ATOM     13  O   LIG    1        2.327   3.926  -1.286  0.00  0.00    -0.530 OA
ATOM     14  C   LIG    1        0.055   1.245  -0.568  0.00  0.00    -0.090 A 
ENDROOT
BRANCH   9  15
ATOM     15  N   LIG    1        3.614   2.112  -0.021  0.00  0.00    -0.660 N 
ATOM     16  H   LIG    1        3.613   3.079  -0.096  0.00  0.00    +0.430 HD
ATOM     17  C   LIG    1        4.781   1.444   0.067  0.00  0.00    +0.530 C 
ATOM     18  O   LIG    1        4.788   0.232   0.061  0.00  0.00    -0.510 OA
BRANCH  17  19
ATOM     19  C   LIG    1        6.078   2.204   0.173  0.00  0.00    -0.030 C 
ATOM     20  C   LIG    1        6.062   3.082   1.431  0.00  0.00    +0.260 C 
ATOM     21  O   LIG    1        7.256   3.866   1.449  0.00  0.00    -0.310 OA
ATOM     22  C   LIG    1        8.437   3.227   1.246  0.00  0.00    +0.120 A 
ATOM     23  C   LIG    1        9.613   3.874   1.611  0.00  0.00    -0.010 A 
ATOM     24  C   LIG    1       10.834   3.260   1.416  0.00  0.00    +0.040 A 
ATOM     25  C   LIG    1       10.889   1.996   0.857  0.00  0.00    -0.020 A 
ATOM     26  C   LIG    1        9.723   1.350   0.494  0.00  0.00    +0.050 A 
ATOM     27  C   LIG    1        8.496   1.961   0.688  0.00  0.00    -0.160 A 
ATOM     28  C   LIG    1        7.245   1.221   0.289  0.00  0.00    +0.120 C 
ENDBRANCH  17  19
ENDBRANCH   9  15
TORSDOF 2
