REMARK  Name = ZINCrD00000F5Ly5.0
REMARK                            x       y       z     vdW  Elec       q    Type
REMARK                         _______ _______ _______ _____ _____    ______ ____
ROOT
ATOM      1  C   LIG    1        4.999   1.624   0.394  0.00  0.00    +0.350 C 
ENDROOT
BRANCH   1   2
ATOM      2  C   LIG    1        3.565   2.031   0.172  0.00  0.00    +0.160 A 
ATOM      3  N   LIG    1        3.139   3.218  -0.175  0.00  0.00    -0.280 NA
ATOM      4  N   LIG    1        1.853   3.207  -0.276  0.00  0.00    -0.290 NA
ATOM      5  C   LIG    1        1.408   2.019  -0.001  0.00  0.00    +0.190 A 
ATOM      6  C   LIG    1       -0.019   1.530   0.011  0.00  0.00    +0.170 C 
ATOM      7  C   LIG    1        0.002  -0.004   0.002  0.00  0.00    -0.020 C 
ATOM      8  C   LIG    1        0.973  -0.503   1.076  0.00  0.00    +0.050 C 
ATOM      9  C   LIG    1        2.412  -0.172   0.662  0.00  0.00    +0.290 C 
ATOM     10  C   LIG    1       -1.402  -0.535   0.295  0.00  0.00    +0.030 C 
ATOM     11  N   LIG    1        2.481   1.241   0.292  0.00  0.00    -0.460 N 
ENDBRANCH   1   2
BRANCH   1  12
ATOM     12  N   LIG    1        5.830   2.151  -0.691  0.00  0.00    -0.690 N 
ATOM     13  H   LIG    1        5.545   2.937  -1.182  0.00  0.00    +0.420 HD
ATOM     14  C   LIG    1        6.991   1.543  -1.006  0.00  0.00    +0.580 C 
ATOM     15  O   LIG    1        7.348   0.558  -0.391  0.00  0.00    -0.510 OA
BRANCH  14  16
ATOM     16  C   LIG    1        7.831   2.076  -2.103  0.00  0.00    +0.190 A 
ATOM     17  C   LIG    1        9.055   1.446  -2.446  0.00  0.00    -0.130 A 
ATOM     18  C   LIG    1        9.704   0.281  -1.885  0.00  0.00    +0.070 A 
ATOM     19  C   LIG    1       10.855  -0.040  -2.450  0.00  0.00    -0.010 A 
ATOM     20  S   LIG    1       11.267   1.069  -3.744  0.00  0.00    +0.180 S 
ATOM     21  C   LIG    1        9.801   2.007  -3.498  0.00  0.00    +0.080 A 
ATOM     22  N   LIG    1        9.333   3.090  -4.117  0.00  0.00    -0.470 NA
ATOM     23  C   LIG    1        8.191   3.636  -3.760  0.00  0.00    +0.520 A 
ATOM     24  N   LIG    1        7.450   3.148  -2.787  0.00  0.00    -0.490 NA
ENDBRANCH  14  16
ENDBRANCH   1  12
BRANCH   1  25
ATOM     25  C   LIG    1        5.487   2.187   1.730  0.00  0.00    +0.030 C 
BRANCH  25  27
ATOM     26  C   LIG    1        7.436   2.331   3.287  0.00  0.00    +0.010 C 
ATOM     27  C   LIG    1        6.899   1.671   2.015  0.00  0.00    -0.010 C 
ATOM     28  C   LIG    1        6.859   0.154   2.206  0.00  0.00    +0.020 C 
ENDBRANCH  25  27
ENDBRANCH   1  25
TORSDOF 5
