REMARK  Name = ZINC670000002raR.0
REMARK                            x       y       z     vdW  Elec       q    Type
REMARK                         _______ _______ _______ _____ _____    ______ ____
ROOT
ATOM      1  C   LIG    1        0.503   3.530   1.324  0.00  0.00    +0.080 C 
ATOM      2  C   LIG    1        1.145   3.085   0.008  0.00  0.00    +0.120 C 
ENDROOT
BRANCH   2   3
ATOM      3  C   LIG    1        2.475   3.702  -0.123  0.00  0.00    +0.210 C 
ATOM      4  N   LIG    1        3.501   4.179  -0.223  0.00  0.00    -0.420 NA
ENDBRANCH   2   3
BRANCH   2   5
ATOM      5  C   LIG    1        1.286   1.562  -0.002  0.00  0.00    +0.200 C 
BRANCH   5   6
ATOM      6  O   LIG    1       -0.011   0.963   0.007  0.00  0.00    -0.570 OA
ATOM      7  H   LIG    1        0.002  -0.004   0.002  0.00  0.00    +0.390 HD
ENDBRANCH   5   6
ENDBRANCH   2   5
TORSDOF 3
