REMARK  Name = ZINCrH000004jbZB.0
REMARK                            x       y       z     vdW  Elec       q    Type
REMARK                         _______ _______ _______ _____ _____    ______ ____
ROOT
ATOM      1  C   LIG    1       -1.446   2.038  -0.292  0.00  0.00    -0.120 A 
ATOM      2  C   LIG    1       -1.562   3.416  -0.108  0.00  0.00    +0.030 A 
ATOM      3  C   LIG    1       -2.810   4.003  -0.055  0.00  0.00    +0.040 A 
ATOM      4  C   LIG    1       -3.949   3.228  -0.173  0.00  0.00    +0.020 A 
ATOM      5  C   LIG    1       -3.844   1.854  -0.350  0.00  0.00    +0.130 A 
ATOM      6  C   LIG    1       -2.595   1.256  -0.410  0.00  0.00    +0.090 A 
ENDROOT
BRANCH   1   9
ATOM      7  N   LIG    1        0.998   2.166  -0.246  0.00  0.00    -0.670 N 
ATOM      8  H   LIG    1        0.922   3.131  -0.196  0.00  0.00    +0.410 HD
ATOM      9  C   LIG    1       -0.111   1.407  -0.355  0.00  0.00    +0.560 C 
ATOM     10  O   LIG    1       -0.012   0.206  -0.510  0.00  0.00    -0.510 OA
BRANCH   7  15
ATOM     11  C   LIG    1        4.599   1.598  -0.722  0.00  0.00    -0.060 A 
ATOM     12  C   LIG    1        4.751   0.363  -0.120  0.00  0.00    -0.010 A 
ATOM     13  C   LIG    1        3.660  -0.276   0.440  0.00  0.00    +0.030 A 
ATOM     14  C   LIG    1        2.415   0.321   0.404  0.00  0.00    +0.010 A 
ATOM     15  C   LIG    1        2.258   1.560  -0.204  0.00  0.00    +0.150 A 
ATOM     16  C   LIG    1        3.356   2.199  -0.765  0.00  0.00    -0.020 A 
BRANCH  11  18
ATOM     17  C   LIG    1        6.463   3.172  -0.275  0.00  0.00    +0.030 C 
ATOM     18  C   LIG    1        5.791   2.291  -1.330  0.00  0.00    +0.050 C 
ENDBRANCH  11  18
ENDBRANCH   7  15
ENDBRANCH   1   9
BRANCH   5  19
ATOM     19  N   LIG    1       -5.000   1.074  -0.469  0.00  0.00    -0.670 N 
ATOM     20  H   LIG    1       -5.779   1.427  -0.927  0.00  0.00    +0.420 HD
ATOM     21  C   LIG    1       -5.031  -0.169   0.052  0.00  0.00    +0.520 C 
ATOM     22  O   LIG    1       -4.032  -0.642   0.551  0.00  0.00    -0.510 OA
BRANCH  21  23
ATOM     23  C   LIG    1       -6.308  -0.970   0.016  0.00  0.00    +0.060 C 
BRANCH  23  24
ATOM     24  C   LIG    1       -6.073  -2.333   0.668  0.00  0.00    +0.330 C 
BRANCH  24  25
ATOM     25  N   LIG    1       -7.313  -3.112   0.633  0.00  0.00    -0.460 N 
ATOM     26  C   LIG    1       -7.711  -3.961  -0.364  0.00  0.00    +0.110 A 
ATOM     27  C   LIG    1       -8.904  -4.464   0.005  0.00  0.00    +0.140 A 
ATOM     28  N   LIG    1       -9.226  -3.937   1.196  0.00  0.00    -0.490 NA
ATOM     29  C   LIG    1       -8.275  -3.130   1.581  0.00  0.00    +0.380 A 
ENDBRANCH  24  25
ENDBRANCH  23  24
ENDBRANCH  21  23
ENDBRANCH   5  19
TORSDOF 7
