REMARK  Name = ZINCtj00000nxWf8.0
REMARK                            x       y       z     vdW  Elec       q    Type
REMARK                         _______ _______ _______ _____ _____    ______ ____
ROOT
ATOM      1  C   LIG    1       -1.345   1.853   0.076  0.00  0.00    -0.050 A 
ATOM      2  C   LIG    1       -2.498   1.068   0.189  0.00  0.00    +0.150 A 
ATOM      3  C   LIG    1       -3.720   1.714   0.250  0.00  0.00    -0.010 A 
ATOM      4  C   LIG    1       -3.728   3.108   0.194  0.00  0.00    +0.370 A 
ATOM      5  N   LIG    1       -2.583   3.774   0.086  0.00  0.00    -0.290 NA
ATOM      6  N   LIG    1       -1.448   3.177   0.035  0.00  0.00    -0.170 NA
ENDROOT
BRANCH   1   8
ATOM      7  O   LIG    1        0.095   0.017   0.205  0.00  0.00    -0.500 OA
ATOM      8  C   LIG    1       -0.014   1.211   0.009  0.00  0.00    +0.600 C 
ATOM      9  N   LIG    1        1.077   1.950  -0.276  0.00  0.00    -0.620 N 
ATOM     10  C   LIG    1        2.426   1.369  -0.195  0.00  0.00    +0.330 C 
ATOM     11  C   LIG    1        3.163   1.678  -1.506  0.00  0.00    +0.270 C 
ATOM     12  N   LIG    1        3.142   3.127  -1.746  0.00  0.00    -0.510 N 
ATOM     13  C   LIG    1        1.760   3.578  -1.956  0.00  0.00    +0.260 C 
ATOM     14  H   LIG    1        3.532   3.604  -0.947  0.00  0.00    +0.430 HD
ATOM     15  H   LIG    1        3.692   3.339  -2.565  0.00  0.00    +0.430 HD
ATOM     16  C   LIG    1        0.953   3.361  -0.672  0.00  0.00    +0.340 C 
ENDBRANCH   1   8
BRANCH   4  17
ATOM     17  N   LIG    1       -4.929   3.798   0.251  0.00  0.00    -0.520 N 
ATOM     18  C   LIG    1       -6.240   3.184   0.474  0.00  0.00    +0.290 C 
ATOM     19  C   LIG    1       -7.241   4.351   0.453  0.00  0.00    +0.110 C 
ATOM     20  C   LIG    1       -6.391   5.577   0.210  0.00  0.00    -0.100 A 
ATOM     21  C   LIG    1       -6.737   6.909   0.094  0.00  0.00    +0.040 A 
ATOM     22  C   LIG    1       -5.756   7.866  -0.131  0.00  0.00    +0.160 A 
ATOM     23  C   LIG    1       -4.428   7.478  -0.239  0.00  0.00    +0.000 A 
ATOM     24  C   LIG    1       -4.084   6.148  -0.123  0.00  0.00    +0.050 A 
ATOM     25  C   LIG    1       -5.065   5.183   0.110  0.00  0.00    +0.110 A 
BRANCH  22  26
ATOM     26  N   LIG    1       -6.106   9.218  -0.250  0.00  0.00    -0.560 N 
ATOM     27  C   LIG    1       -5.147  10.304  -0.482  0.00  0.00    +0.260 C 
ATOM     28  C   LIG    1       -5.994  11.501  -0.973  0.00  0.00    +0.060 C 
ATOM     29  C   LIG    1       -7.373  11.188  -0.346  0.00  0.00    +0.070 C 
ATOM     30  C   LIG    1       -7.363   9.687  -0.160  0.00  0.00    +0.520 C 
ATOM     31  O   LIG    1       -8.346   9.005   0.040  0.00  0.00    -0.510 OA
ENDBRANCH  22  26
ENDBRANCH   4  17
TORSDOF 3
