REMARK  Name = ZINCpk000000nlI3.0
REMARK                            x       y       z     vdW  Elec       q    Type
REMARK                         _______ _______ _______ _____ _____    ______ ____
ROOT
ATOM      1  C   LIG    1       -0.014   1.209   0.009  0.00  0.00    +0.520 C 
ATOM      2  N   LIG    1        1.143   1.898   0.001  0.00  0.00    -0.620 N 
ATOM      3  C   LIG    1        1.146   3.369   0.003  0.00  0.00    +0.300 C 
ATOM      4  C   LIG    1        2.069   3.848   1.135  0.00  0.00    +0.200 C 
ATOM      5  N   LIG    1        3.390   3.225   0.980  0.00  0.00    -0.470 N 
ATOM      6  C   LIG    1        3.309   1.765   1.112  0.00  0.00    +0.210 C 
ATOM      7  C   LIG    1        2.438   1.200  -0.015  0.00  0.00    +0.300 C 
ATOM      8  O   LIG    1        0.002  -0.004   0.002  0.00  0.00    -0.530 OA
ENDROOT
BRANCH   5   9
ATOM      9  C   LIG    1        4.301   3.758   1.884  0.00  0.00    +0.260 A 
ATOM     10  C   LIG    1        4.527   5.132   1.921  0.00  0.00    +0.210 A 
ATOM     11  N   LIG    1        5.392   5.634   2.782  0.00  0.00    -0.420 NA
ATOM     12  C   LIG    1        6.045   4.834   3.608  0.00  0.00    +0.190 A 
ATOM     13  C   LIG    1        5.824   3.470   3.575  0.00  0.00    +0.250 A 
ATOM     14  N   LIG    1        4.955   2.960   2.718  0.00  0.00    -0.480 NA
ENDBRANCH   5   9
BRANCH   1  15
ATOM     15  C   LIG    1       -1.330   1.944   0.019  0.00  0.00    +0.070 C 
BRANCH  15  16
ATOM     16  C   LIG    1       -2.479   0.934   0.019  0.00  0.00    +0.220 C 
BRANCH  16  20
ATOM     17  C   LIG    1       -5.575   2.668  -0.530  0.00  0.00    +0.180 A 
ATOM     18  N   LIG    1       -5.499   2.622   0.767  0.00  0.00    -0.380 NA
ATOM     19  O   LIG    1       -4.486   2.048   1.108  0.00  0.00    +0.080 OA
ATOM     20  C   LIG    1       -3.794   1.670   0.029  0.00  0.00    +0.180 A 
ATOM     21  N   LIG    1       -4.481   2.057  -1.019  0.00  0.00    -0.470 NA
BRANCH  17  23
ATOM     22  C   LIG    1       -7.332   2.223  -2.222  0.00  0.00    +0.060 C 
ATOM     23  C   LIG    1       -6.684   3.290  -1.337  0.00  0.00    +0.020 C 
ATOM     24  C   LIG    1       -6.112   4.404  -2.217  0.00  0.00    +0.060 C 
ATOM     25  C   LIG    1       -7.736   3.876  -0.392  0.00  0.00    +0.050 C 
ENDBRANCH  17  23
ENDBRANCH  16  20
ENDBRANCH  15  16
ENDBRANCH   1  15
TORSDOF 5
