REMARK  Name = ZINCrH000004qqO1.0
REMARK                            x       y       z     vdW  Elec       q    Type
REMARK                         _______ _______ _______ _____ _____    ______ ____
ROOT
ATOM      1  C   LIG    1       -3.552  -1.270   2.888  0.00  0.00    +0.570 C 
ATOM      2  N   LIG    1       -3.255  -1.312   1.574  0.00  0.00    -0.690 N 
ATOM      3  H   LIG    1       -3.619  -2.018   1.017  0.00  0.00    +0.400 HD
ATOM      4  O   LIG    1       -3.095  -0.386   3.586  0.00  0.00    -0.520 OA
ENDROOT
BRANCH   2   5
ATOM      5  C   LIG    1       -2.381  -0.293   0.987  0.00  0.00    +0.240 C 
ATOM      6  C   LIG    1       -2.534  -0.009  -0.508  0.00  0.00    -0.030 C 
ATOM      7  C   LIG    1       -2.282   1.431  -0.979  0.00  0.00    +0.070 C 
ATOM      8  C   LIG    1       -1.339   2.107   0.033  0.00  0.00    +0.070 C 
ATOM      9  C   LIG    1       -0.017   1.381   0.010  0.00  0.00    -0.080 A 
ATOM     10  C   LIG    1        1.169   2.088   0.002  0.00  0.00    +0.010 A 
ATOM     11  C   LIG    1        2.375   1.411  -0.013  0.00  0.00    +0.000 A 
ATOM     12  C   LIG    1        2.394   0.029  -0.021  0.00  0.00    +0.000 A 
ATOM     13  C   LIG    1        1.206  -0.679  -0.014  0.00  0.00    +0.010 A 
ATOM     14  C   LIG    1        0.002  -0.004   0.002  0.00  0.00    -0.050 A 
ATOM     15  C   LIG    1       -1.301  -0.766   0.011  0.00  0.00    +0.000 C 
ENDBRANCH   2   5
BRANCH   1  19
ATOM     16  C   LIG    1       -6.370  -5.372   2.446  0.00  0.00    +0.140 C 
ATOM     17  C   LIG    1       -5.792  -4.268   3.293  0.00  0.00    +0.200 A 
ATOM     18  C   LIG    1       -4.974  -3.319   2.700  0.00  0.00    -0.040 A 
ATOM     19  C   LIG    1       -4.433  -2.299   3.480  0.00  0.00    -0.010 A 
ATOM     20  C   LIG    1       -4.760  -2.276   4.854  0.00  0.00    -0.180 A 
ATOM     21  C   LIG    1       -4.420  -1.425   5.927  0.00  0.00    +0.300 A 
ATOM     22  N   LIG    1       -5.003  -1.864   7.006  0.00  0.00    -0.230 NA
ATOM     23  N   LIG    1       -5.747  -3.012   6.708  0.00  0.00    -0.380 N 
ATOM     24  C   LIG    1       -5.604  -3.280   5.371  0.00  0.00    +0.320 A 
ATOM     25  N   LIG    1       -6.081  -4.226   4.575  0.00  0.00    -0.490 NA
BRANCH  23  26
ATOM     26  C   LIG    1       -6.540  -3.793   7.661  0.00  0.00    +0.270 C 
ATOM     27  C   LIG    1       -7.623  -2.902   8.273  0.00  0.00    +0.050 C 
ATOM     28  C   LIG    1       -5.629  -4.323   8.770  0.00  0.00    +0.050 C 
ENDBRANCH  23  26
ENDBRANCH   1  19
TORSDOF 3
