REMARK  Name = ZINCrH000004rJBC.0
REMARK                            x       y       z     vdW  Elec       q    Type
REMARK                         _______ _______ _______ _____ _____    ______ ____
ROOT
ATOM      1  N   LIG    1       -3.987   7.044  -0.611  0.00  0.00    -0.710 N 
ATOM      2  H   LIG    1       -3.969   7.024   0.358  0.00  0.00    +0.420 HD
ATOM      3  C   LIG    1       -3.342   6.094  -1.317  0.00  0.00    +0.580 C 
ATOM      4  O   LIG    1       -3.286   6.170  -2.530  0.00  0.00    -0.550 OA
ENDROOT
BRANCH   3   5
ATOM      5  C   LIG    1       -2.705   4.966  -0.621  0.00  0.00    -0.280 A 
ATOM      6  C   LIG    1       -2.140   3.916  -1.338  0.00  0.00    +0.230 A 
ATOM      7  C   LIG    1       -1.542   2.858  -0.647  0.00  0.00    -0.210 A 
ATOM      8  C   LIG    1       -1.515   2.861   0.711  0.00  0.00    +0.170 A 
ATOM      9  N   LIG    1       -2.067   3.886   1.413  0.00  0.00    -0.590 N 
ATOM     10  H   LIG    1       -2.035   3.867   2.383  0.00  0.00    +0.420 HD
ATOM     11  C   LIG    1       -0.817   1.614   1.218  0.00  0.00    +0.100 C 
ATOM     12  C   LIG    1       -0.040   1.067   0.002  0.00  0.00    +0.050 C 
ATOM     13  C   LIG    1       -0.866   1.613  -1.182  0.00  0.00    +0.090 C 
ATOM     14  C   LIG    1       -2.653   4.926   0.797  0.00  0.00    +0.540 A 
ATOM     15  O   LIG    1       -3.139   5.832   1.452  0.00  0.00    -0.540 OA
ENDBRANCH   3   5
BRANCH   1  16
ATOM     16  C   LIG    1       -4.716   8.107  -1.309  0.00  0.00    +0.320 C 
BRANCH  16  20
ATOM     17  C   LIG    1       -6.497  10.733   1.556  0.00  0.00    -0.040 A 
ATOM     18  C   LIG    1       -5.210  10.983   1.084  0.00  0.00    +0.020 A 
ATOM     19  C   LIG    1       -4.640  10.132   0.159  0.00  0.00    +0.030 A 
ATOM     20  C   LIG    1       -5.344   9.032  -0.299  0.00  0.00    -0.100 A 
ATOM     21  C   LIG    1       -6.623   8.782   0.163  0.00  0.00    +0.030 A 
ATOM     22  C   LIG    1       -7.201   9.623   1.092  0.00  0.00    +0.020 A 
BRANCH  17  28
ATOM     23  C   LIG    1      -10.363  11.975   4.462  0.00  0.00    +0.090 C 
ATOM     24  C   LIG    1       -8.971  12.245   3.950  0.00  0.00    -0.080 A 
ATOM     25  C   LIG    1       -8.268  13.344   4.407  0.00  0.00    +0.000 A 
ATOM     26  C   LIG    1       -6.990  13.597   3.941  0.00  0.00    +0.020 A 
ATOM     27  C   LIG    1       -6.411  12.753   3.016  0.00  0.00    +0.010 A 
ATOM     28  C   LIG    1       -7.115  11.644   2.551  0.00  0.00    -0.040 A 
ATOM     29  C   LIG    1       -8.404  11.397   3.020  0.00  0.00    +0.020 A 
ENDBRANCH  17  28
ENDBRANCH  16  20
ENDBRANCH   1  16
TORSDOF 4
