REMARK  Name = ZINCvU0000000744.0
REMARK                            x       y       z     vdW  Elec       q    Type
REMARK                         _______ _______ _______ _____ _____    ______ ____
ROOT
ATOM      1  C   LIG    1        0.216   5.896  -0.095  0.00  0.00    +0.110 A 
ATOM      2  C   LIG    1       -1.164   5.730  -0.027  0.00  0.00    -0.040 A 
ATOM      3  C   LIG    1       -1.716   4.469   0.030  0.00  0.00    +0.040 A 
ATOM      4  C   LIG    1       -0.894   3.349   0.020  0.00  0.00    +0.080 A 
ATOM      5  C   LIG    1        0.500   3.513  -0.050  0.00  0.00    -0.030 A 
ATOM      6  C   LIG    1        1.070   2.161  -0.043  0.00  0.00    -0.140 A 
ATOM      7  C   LIG    1        0.046   1.300   0.027  0.00  0.00    +0.120 A 
ATOM      8  C   LIG    1        0.177  -0.201   0.057  0.00  0.00    +0.150 C 
ATOM      9  N   LIG    1       -1.143   1.988   0.060  0.00  0.00    -0.500 N 
ATOM     10  C   LIG    1       -2.365   1.424   0.124  0.00  0.00    +0.600 C 
ATOM     11  O   LIG    1       -2.998   1.227  -0.894  0.00  0.00    -0.420 OA
ATOM     12  C   LIG    1        1.050   4.794  -0.107  0.00  0.00    +0.020 A 
ENDROOT
BRANCH  10  13
ATOM     13  C   LIG    1       -2.935   1.044   1.432  0.00  0.00    -0.160 A 
ATOM     14  C   LIG    1       -2.256   1.359   2.611  0.00  0.00    +0.090 A 
ATOM     15  C   LIG    1       -2.796   1.007   3.830  0.00  0.00    +0.030 A 
ATOM     16  C   LIG    1       -4.004   0.333   3.886  0.00  0.00    +0.000 A 
ATOM     17  C   LIG    1       -4.681   0.013   2.720  0.00  0.00    +0.030 A 
ATOM     18 CL   LIG    1       -4.674  -0.114   5.424  0.00  0.00    -0.050 Cl
ATOM     19  C   LIG    1       -4.153   0.364   1.496  0.00  0.00    +0.110 A 
ENDBRANCH  10  13
BRANCH   1  21
ATOM     20  C   LIG    1       -0.172   8.242  -0.136  0.00  0.00    +0.250 C 
ATOM     21  O   LIG    1        0.746   7.147  -0.152  0.00  0.00    -0.320 OA
ENDBRANCH   1  21
BRANCH   6  22
ATOM     22  C   LIG    1        2.534   1.807  -0.102  0.00  0.00    +0.140 C 
BRANCH  22  23
ATOM     23  C   LIG    1        2.956   1.654  -1.540  0.00  0.00    +0.510 C 
ATOM     24  N   LIG    1        4.204   1.238  -1.836  0.00  0.00    -0.580 N 
ATOM     25  O   LIG    1        2.173   1.905  -2.432  0.00  0.00    -0.510 OA
BRANCH  24  26
ATOM     26  C   LIG    1        4.589   1.012  -3.231  0.00  0.00    +0.200 C 
ATOM     27  C   LIG    1        3.705   1.628  -4.317  0.00  0.00    +0.040 C 
ATOM     28  C   LIG    1        3.682   0.116  -4.078  0.00  0.00    -0.010 C 
ENDBRANCH  24  26
BRANCH  24  29
ATOM     29  C   LIG    1        5.175   1.014  -0.762  0.00  0.00    +0.230 C 
ATOM     30  C   LIG    1        6.382   1.931  -0.966  0.00  0.00    +0.020 C 
ATOM     31  C   LIG    1        5.633  -0.446  -0.786  0.00  0.00    +0.030 C 
ENDBRANCH  24  29
ENDBRANCH  22  23
ENDBRANCH   6  22
TORSDOF 6
