REMARK  Name = ZINCrH00000No4t9.0
REMARK                            x       y       z     vdW  Elec       q    Type
REMARK                         _______ _______ _______ _____ _____    ______ ____
ROOT
ATOM      1  C   LIG    1       -4.914   1.020   0.030  0.00  0.00    -0.070 A 
ATOM      2  C   LIG    1       -3.713   1.715   0.020  0.00  0.00    +0.020 A 
ATOM      3  C   LIG    1       -2.505   1.002   0.005  0.00  0.00    +0.200 A 
ATOM      4  N   LIG    1       -2.464  -0.313   0.012  0.00  0.00    -0.450 NA
ATOM      5  C   LIG    1       -3.568  -1.061   0.028  0.00  0.00    +0.130 A 
ATOM      6  C   LIG    1       -3.494  -2.466   0.035  0.00  0.00    +0.050 A 
ATOM      7  C   LIG    1       -4.638  -3.203   0.052  0.00  0.00    +0.040 A 
ATOM      8  C   LIG    1       -5.888  -2.589   0.062  0.00  0.00    +0.020 A 
ATOM      9  C   LIG    1       -6.000  -1.230   0.055  0.00  0.00    +0.060 A 
ATOM     10  C   LIG    1       -4.844  -0.442   0.038  0.00  0.00    -0.060 A 
ENDROOT
BRANCH   3  11
ATOM     11  C   LIG    1       -1.229   1.758  -0.013  0.00  0.00    -0.070 A 
ATOM     12  C   LIG    1       -0.013   1.076  -0.022  0.00  0.00    +0.110 A 
ATOM     13  C   LIG    1        1.171   1.783  -0.044  0.00  0.00    -0.020 A 
ATOM     14  C   LIG    1        1.154   3.168  -0.052  0.00  0.00    +0.120 A 
ATOM     15  C   LIG    1       -0.053   3.850  -0.038  0.00  0.00    -0.020 A 
ATOM     16  F   LIG    1        2.316   3.857  -0.074  0.00  0.00    -0.130 F 
ATOM     17  C   LIG    1       -1.242   3.152  -0.014  0.00  0.00    +0.060 A 
ENDBRANCH   3  11
BRANCH   1  19
ATOM     18  O   LIG    1       -7.248   1.098  -0.055  0.00  0.00    -0.480 OA
ATOM     19  C   LIG    1       -6.212   1.727   0.041  0.00  0.00    +0.580 C 
ATOM     20  N   LIG    1       -6.247   3.069   0.157  0.00  0.00    -0.580 N 
ATOM     21  H   LIG    1       -5.421   3.571   0.233  0.00  0.00    +0.390 HD
BRANCH  20  22
ATOM     22  N   LIG    1       -7.478   3.740   0.166  0.00  0.00    -0.230 NA
ATOM     23  C   LIG    1       -7.511   5.015   0.276  0.00  0.00    +0.210 C 
BRANCH  23  24
ATOM     24  C   LIG    1       -8.834   5.736   0.287  0.00  0.00    +0.040 C 
ATOM     25  C   LIG    1       -8.897   6.770  -0.859  0.00  0.00    +0.030 C 
ATOM     26  C   LIG    1       -9.069   8.123  -0.135  0.00  0.00    +0.210 C 
ATOM     27  O   LIG    1       -8.529   7.906   1.187  0.00  0.00    -0.370 OA
ATOM     28  C   LIG    1       -8.978   6.584   1.570  0.00  0.00    +0.230 C 
ENDBRANCH  23  24
ENDBRANCH  20  22
ENDBRANCH   1  19
TORSDOF 4
