REMARK  Name = ZINCtV000002KF2l.0
REMARK                            x       y       z     vdW  Elec       q    Type
REMARK                         _______ _______ _______ _____ _____    ______ ____
ROOT
ATOM      1  C   LIG    1       -0.016   1.309   0.009  0.00  0.00    +0.170 A 
ATOM      2  N   LIG    1        0.002  -0.004   0.002  0.00  0.00    -0.290 NA
ATOM      3  N   LIG    1        1.217  -0.424  -0.012  0.00  0.00    -0.250 NA
ATOM      4  C   LIG    1        2.039   0.586  -0.014  0.00  0.00    +0.180 A 
ATOM      5  N   LIG    1        1.284   1.726  -0.001  0.00  0.00    -0.450 N 
ENDROOT
BRANCH   1   6
ATOM      6  S   LIG    1       -1.446   2.337   0.022  0.00  0.00    +0.030 S 
BRANCH   6   7
ATOM      7  C   LIG    1       -2.742   1.073   0.022  0.00  0.00    +0.160 C 
BRANCH   7  12
ATOM      8 CL   LIG    1       -8.132   3.728   0.061  0.00  0.00    -0.040 Cl
ATOM      9  C   LIG    1       -6.575   2.961   0.050  0.00  0.00    -0.020 A 
ATOM     10  C   LIG    1       -5.960   2.661  -1.152  0.00  0.00    +0.050 A 
ATOM     11  C   LIG    1       -4.720   2.050  -1.160  0.00  0.00    +0.070 A 
ATOM     12  C   LIG    1       -4.094   1.739   0.033  0.00  0.00    -0.070 A 
ATOM     13  C   LIG    1       -4.710   2.033   1.235  0.00  0.00    +0.070 A 
ATOM     14  C   LIG    1       -5.948   2.649   1.245  0.00  0.00    -0.030 A 
ATOM     15 CL   LIG    1       -6.719   3.025   2.754  0.00  0.00    -0.040 Cl
ENDBRANCH   7  12
ENDBRANCH   6   7
ENDBRANCH   1   6
BRANCH   4  16
ATOM     16  C   LIG    1        3.545   0.512  -0.029  0.00  0.00    +0.340 C 
BRANCH  16  17
ATOM     17  O   LIG    1        4.007   0.495  -1.381  0.00  0.00    -0.310 OA
BRANCH  17  18
ATOM     18  C   LIG    1        5.351   0.430  -1.572  0.00  0.00    +0.130 A 
ATOM     19  C   LIG    1        6.207   0.389  -0.481  0.00  0.00    -0.080 A 
ATOM     20  C   LIG    1        7.573   0.317  -0.678  0.00  0.00    +0.050 A 
ATOM     21  C   LIG    1        8.087   0.297  -1.962  0.00  0.00    -0.020 A 
ATOM     22  C   LIG    1        7.236   0.344  -3.050  0.00  0.00    +0.050 A 
ATOM     23  C   LIG    1        5.870   0.410  -2.859  0.00  0.00    -0.020 A 
ENDBRANCH  17  18
ENDBRANCH  16  17
ENDBRANCH   4  16
BRANCH   5  24
ATOM     24  C   LIG    1        1.769   3.109   0.002  0.00  0.00    +0.440 C 
BRANCH  24  25
ATOM     25  C   LIG    1        1.950   3.575   1.423  0.00  0.00    -0.060 A 
ATOM     26  C   LIG    1        3.073   3.457   2.153  0.00  0.00    -0.020 A 
ATOM     27  C   LIG    1        2.800   4.023   3.420  0.00  0.00    -0.070 A 
ATOM     28  C   LIG    1        1.526   4.452   3.389  0.00  0.00    +0.200 A 
ATOM     29  O   LIG    1        1.018   4.184   2.175  0.00  0.00    -0.160 OA
ENDBRANCH  24  25
ENDBRANCH   5  24
TORSDOF 8
