REMARK  Name = ZINCqH0000007p4a.1
REMARK                            x       y       z     vdW  Elec       q    Type
REMARK                         _______ _______ _______ _____ _____    ______ ____
ROOT
ATOM      1  C   LIG    1       -2.305  -4.380   0.064  0.00  0.00    +0.180 C 
ENDROOT
BRANCH   1   5
ATOM      2  C   LIG    1       -5.918  -6.662   0.026  0.00  0.00    +0.130 A 
ATOM      3  C   LIG    1       -5.222  -6.442  -1.154  0.00  0.00    -0.020 A 
ATOM      4  C   LIG    1       -4.054  -5.704  -1.139  0.00  0.00    +0.040 A 
ATOM      5  C   LIG    1       -3.579  -5.185   0.051  0.00  0.00    -0.120 A 
ATOM      6  C   LIG    1       -4.268  -5.407   1.229  0.00  0.00    +0.080 A 
ATOM      7  C   LIG    1       -5.439  -6.139   1.218  0.00  0.00    -0.080 A 
BRANCH   2   9
ATOM      8  C   LIG    1       -7.731  -7.572   1.265  0.00  0.00    +0.250 C 
ATOM      9  O   LIG    1       -7.067  -7.387   0.013  0.00  0.00    -0.320 OA
ENDBRANCH   2   9
ENDBRANCH   1   5
BRANCH   1  10
ATOM     10  N   LIG    1       -1.518  -4.729   1.254  0.00  0.00    -0.530 NA
ATOM     11  C   LIG    1       -0.295  -3.920   1.333  0.00  0.00    +0.170 C 
ATOM     12  C   LIG    1        0.423  -4.205   2.654  0.00  0.00    +0.020 C 
ATOM     13  C   LIG    1        0.769  -5.695   2.730  0.00  0.00    +0.000 C 
ATOM     14  C   LIG    1       -0.516  -6.516   2.597  0.00  0.00    +0.020 C 
ATOM     15  C   LIG    1       -1.207  -6.164   1.278  0.00  0.00    +0.170 C 
ENDBRANCH   1  10
BRANCH   1  16
ATOM     16  C   LIG    1       -2.644  -2.888   0.096  0.00  0.00    +0.290 C 
BRANCH  16  17
ATOM     17  N   LIG    1       -3.365  -2.525  -1.126  0.00  0.00    -0.720 N 
ATOM     18  H   LIG    1       -3.482  -3.179  -1.833  0.00  0.00    +0.400 HD
ATOM     19  C   LIG    1       -3.868  -1.283  -1.268  0.00  0.00    +0.560 C 
ATOM     20  O   LIG    1       -3.723  -0.464  -0.382  0.00  0.00    -0.530 OA
BRANCH  19  21
ATOM     21  C   LIG    1       -4.596  -0.916  -2.501  0.00  0.00    -0.110 A 
ATOM     22  C   LIG    1       -4.766  -1.855  -3.520  0.00  0.00    +0.030 A 
ATOM     23  C   LIG    1       -5.447  -1.508  -4.669  0.00  0.00    +0.040 A 
ATOM     24  C   LIG    1       -5.962  -0.233  -4.813  0.00  0.00    +0.010 A 
ATOM     25  C   LIG    1       -5.798   0.705  -3.806  0.00  0.00    +0.100 A 
ATOM     26  F   LIG    1       -6.304   1.949  -3.954  0.00  0.00    -0.130 F 
ATOM     27  C   LIG    1       -5.118   0.369  -2.651  0.00  0.00    +0.050 A 
ENDBRANCH  19  21
ENDBRANCH  16  17
ENDBRANCH   1  16
TORSDOF 6
