REMARK  Name = ZINCqH0000008uJg.0
REMARK                            x       y       z     vdW  Elec       q    Type
REMARK                         _______ _______ _______ _____ _____    ______ ____
ROOT
ATOM      1  C   LIG    1       -0.248  -6.860   5.547  0.00  0.00    +0.520 C 
ATOM      2  N   LIG    1        0.181  -5.978   4.623  0.00  0.00    -0.720 N 
ATOM      3  H   LIG    1        0.673  -6.290   3.847  0.00  0.00    +0.400 HD
ATOM      4  O   LIG    1       -0.864  -6.470   6.517  0.00  0.00    -0.510 OA
ENDROOT
BRANCH   1   6
ATOM      5  C   LIG    1        1.544  -8.570   5.450  0.00  0.00    +0.060 C 
ATOM      6  C   LIG    1        0.035  -8.330   5.375  0.00  0.00    +0.170 C 
BRANCH   6   7
ATOM      7  O   LIG    1       -0.616  -9.065   6.413  0.00  0.00    -0.280 OA
BRANCH   7   8
ATOM      8  C   LIG    1       -0.912 -10.367   6.155  0.00  0.00    +0.150 A 
ATOM      9  C   LIG    1       -0.489 -10.954   4.971  0.00  0.00    -0.070 A 
ATOM     10  C   LIG    1       -0.787 -12.277   4.713  0.00  0.00    +0.090 A 
ATOM     11  C   LIG    1       -1.515 -13.015   5.629  0.00  0.00    -0.130 A 
ATOM     12  C   LIG    1       -1.942 -12.430   6.808  0.00  0.00    +0.090 A 
ATOM     13 BR   LIG    1       -1.927 -14.826   5.270  0.00  0.00    -0.050 Br
ATOM     14  C   LIG    1       -1.642 -11.108   7.072  0.00  0.00    +0.000 A 
ENDBRANCH   7   8
ENDBRANCH   6   7
ENDBRANCH   1   6
BRANCH   2  15
ATOM     15  C   LIG    1       -0.094  -4.549   4.790  0.00  0.00    +0.320 C 
BRANCH  15  16
ATOM     16  C   LIG    1        0.489  -3.786   3.629  0.00  0.00    -0.100 A 
ATOM     17  C   LIG    1       -0.271  -3.563   2.496  0.00  0.00    +0.030 A 
ATOM     18  C   LIG    1        0.264  -2.863   1.431  0.00  0.00    +0.050 A 
ATOM     19  C   LIG    1        1.559  -2.385   1.499  0.00  0.00    -0.100 A 
ATOM     20  C   LIG    1        2.321  -2.612   2.630  0.00  0.00    +0.020 A 
ATOM     21  C   LIG    1        1.785  -3.308   3.697  0.00  0.00    +0.030 A 
BRANCH  19  22
ATOM     22  C   LIG    1        2.142  -1.622   0.338  0.00  0.00    +0.370 C 
BRANCH  22  23
ATOM     23  N   LIG    1        1.866  -0.193   0.505  0.00  0.00    -0.370 N 
ATOM     24  C   LIG    1        2.783   0.798   0.508  0.00  0.00    +0.220 A 
ATOM     25  C   LIG    1        2.127   1.967   0.689  0.00  0.00    -0.120 A 
ATOM     26  C   LIG    1        0.762   1.681   0.800  0.00  0.00    +0.220 A 
ATOM     27  N   LIG    1        0.605   0.387   0.691  0.00  0.00    -0.290 NA
ENDBRANCH  22  23
ENDBRANCH  19  22
ENDBRANCH  15  16
ENDBRANCH   2  15
TORSDOF 7
