REMARK  Name = ZINCrg000000qZ6A.0
REMARK                            x       y       z     vdW  Elec       q    Type
REMARK                         _______ _______ _______ _____ _____    ______ ____
ROOT
ATOM      1  N   LIG    1       -0.698   1.558   1.213  0.00  0.00    -0.730 N 
ATOM      2  H   LIG    1       -1.495   2.106   1.135  0.00  0.00    +0.400 HD
ATOM      3  C   LIG    1       -0.222   1.232   2.431  0.00  0.00    +0.710 C 
ATOM      4  N   LIG    1       -0.853   1.667   3.540  0.00  0.00    -0.660 N 
ATOM      5  H   LIG    1       -1.650   2.214   3.462  0.00  0.00    +0.410 HD
ATOM      6  O   LIG    1        0.777   0.546   2.530  0.00  0.00    -0.580 OA
ENDROOT
BRANCH   4   7
ATOM      7  C   LIG    1       -0.355   1.327   4.813  0.00  0.00    +0.030 A 
ATOM      8  C   LIG    1       -0.886   1.699   6.005  0.00  0.00    +0.190 A 
ATOM      9  N   LIG    1       -0.113   1.162   6.984  0.00  0.00    -0.370 N 
ATOM     10  N   LIG    1        0.925   0.450   6.370  0.00  0.00    -0.250 NA
ATOM     11  C   LIG    1        0.781   0.547   5.074  0.00  0.00    +0.260 A 
BRANCH   9  12
ATOM     12  C   LIG    1       -0.323   1.309   8.427  0.00  0.00    +0.360 C 
BRANCH  12  13
ATOM     13  C   LIG    1       -0.392  -0.055   9.065  0.00  0.00    +0.500 C 
ATOM     14  N   LIG    1       -0.582  -0.168  10.395  0.00  0.00    -0.620 N 
ATOM     15  C   LIG    1       -0.718   1.026  11.244  0.00  0.00    +0.250 C 
ATOM     16  C   LIG    1       -1.980   0.860  12.106  0.00  0.00    +0.220 C 
ATOM     17  O   LIG    1       -1.922  -0.398  12.784  0.00  0.00    -0.380 OA
ATOM     18  C   LIG    1       -1.913  -1.532  11.913  0.00  0.00    +0.220 C 
ATOM     19  C   LIG    1       -0.653  -1.488  11.040  0.00  0.00    +0.260 C 
ATOM     20  O   LIG    1       -0.278  -1.050   8.382  0.00  0.00    -0.500 OA
ENDBRANCH  12  13
ENDBRANCH   9  12
ENDBRANCH   4   7
BRANCH   1  21
ATOM     21  C   LIG    1       -0.013   1.086   0.008  0.00  0.00    +0.350 C 
BRANCH  21  27
ATOM     22  C   LIG    1       -0.551   2.888  -1.651  0.00  0.00    +0.150 A 
ATOM     23  C   LIG    1       -1.219   3.342  -2.779  0.00  0.00    -0.080 A 
ATOM     24  C   LIG    1       -2.081   2.501  -3.456  0.00  0.00    +0.060 A 
ATOM     25  C   LIG    1       -2.273   1.205  -3.014  0.00  0.00    -0.030 A 
ATOM     26  C   LIG    1       -1.604   0.748  -1.893  0.00  0.00    +0.070 A 
ATOM     27  C   LIG    1       -0.742   1.585  -1.213  0.00  0.00    -0.150 A 
BRANCH  22  29
ATOM     28  C   LIG    1        0.440   5.043  -1.488  0.00  0.00    +0.250 C 
ATOM     29  O   LIG    1        0.293   3.715  -0.980  0.00  0.00    -0.310 OA
ENDBRANCH  22  29
ENDBRANCH  21  27
ENDBRANCH   1  21
TORSDOF 6
