REMARK  Name = ZINCrD000000AfTz.0
REMARK                            x       y       z     vdW  Elec       q    Type
REMARK                         _______ _______ _______ _____ _____    ______ ____
ROOT
ATOM      1  O   LIG    1       -4.678  -1.558   0.726  0.00  0.00    -0.540 OA
ATOM      2  C   LIG    1       -4.831  -0.493   1.285  0.00  0.00    +0.520 C 
ATOM      3  N   LIG    1       -4.000   0.534   1.016  0.00  0.00    -0.730 N 
ATOM      4  H   LIG    1       -4.122   1.386   1.463  0.00  0.00    +0.400 HD
ENDROOT
BRANCH   3   5
ATOM      5  C   LIG    1       -2.913   0.363   0.049  0.00  0.00    +0.300 C 
BRANCH   5   6
ATOM      6  C   LIG    1       -2.081   1.646  -0.015  0.00  0.00    -0.060 C 
ATOM      7  C   LIG    1       -0.831   1.525  -0.903  0.00  0.00    +0.040 C 
ATOM      8  C   LIG    1       -0.084   1.042   0.351  0.00  0.00    +0.010 C 
ATOM      9  C   LIG    1       -1.121   1.820   1.177  0.00  0.00    +0.030 C 
BRANCH   6  10
ATOM     10  C   LIG    1       -2.912   2.869  -0.305  0.00  0.00    -0.070 A 
ATOM     11  C   LIG    1       -3.339   3.125  -1.595  0.00  0.00    +0.010 A 
ATOM     12  C   LIG    1       -4.105   4.244  -1.860  0.00  0.00    +0.010 A 
ATOM     13  C   LIG    1       -4.436   5.113  -0.837  0.00  0.00    +0.000 A 
ATOM     14  C   LIG    1       -4.006   4.860   0.452  0.00  0.00    +0.000 A 
ATOM     15  C   LIG    1       -3.243   3.738   0.718  0.00  0.00    +0.000 A 
ENDBRANCH   6  10
ENDBRANCH   5   6
ENDBRANCH   3   5
BRANCH   2  16
ATOM     16  C   LIG    1       -5.949  -0.317   2.280  0.00  0.00    +0.060 C 
BRANCH  16  17
ATOM     17  C   LIG    1       -6.736  -1.624   2.398  0.00  0.00    +0.300 C 
BRANCH  17  18
ATOM     18  N   LIG    1       -7.823  -1.453   3.366  0.00  0.00    -1.120 NA
ATOM     19  H   LIG    1       -7.821  -0.693   3.968  0.00  0.00    +0.420 HD
BRANCH  18  20
ATOM     20  S   LIG    1       -9.055  -2.558   3.430  0.00  0.00    +2.700 S 
ATOM     21  O   LIG    1       -9.493  -2.749   2.092  0.00  0.00    -0.950 OA
ATOM     22  O   LIG    1       -9.918  -2.136   4.477  0.00  0.00    -0.950 OA
BRANCH  20  23
ATOM     23  C   LIG    1       -8.356  -4.090   3.949  0.00  0.00    -0.670 A 
ATOM     24  C   LIG    1       -7.883  -4.987   3.009  0.00  0.00    +0.140 A 
ATOM     25  C   LIG    1       -7.329  -6.186   3.415  0.00  0.00    +0.040 A 
ATOM     26  C   LIG    1       -7.258  -6.494   4.762  0.00  0.00    -0.040 A 
ATOM     27  C   LIG    1       -7.736  -5.598   5.702  0.00  0.00    +0.030 A 
ATOM     28 BR   LIG    1       -6.508  -8.138   5.318  0.00  0.00    -0.030 Br
ATOM     29  C   LIG    1       -8.285  -4.397   5.295  0.00  0.00    +0.140 A 
ENDBRANCH  20  23
ENDBRANCH  18  20
ENDBRANCH  17  18
ENDBRANCH  16  17
ENDBRANCH   2  16
TORSDOF 8
