REMARK  Name = ZINCyk0000000oY7.0
REMARK                            x       y       z     vdW  Elec       q    Type
REMARK                         _______ _______ _______ _____ _____    ______ ____
ROOT
ATOM      1  C   LIG    1        2.508  -5.780   0.484  0.00  0.00    +0.630 C 
ATOM      2  N   LIG    1        1.982  -7.015   0.360  0.00  0.00    -0.610 N 
ATOM      3  C   LIG    1        0.701  -7.461   0.927  0.00  0.00    +0.270 C 
ATOM      4  C   LIG    1        0.526  -8.947   0.552  0.00  0.00    +0.040 C 
ATOM      5  C   LIG    1        1.982  -9.410   0.279  0.00  0.00    -0.030 C 
ATOM      6  C   LIG    1        2.592  -8.140  -0.371  0.00  0.00    +0.270 C 
ATOM      7  O   LIG    1        3.580  -5.522  -0.030  0.00  0.00    -0.540 OA
ENDROOT
BRANCH   1  10
ATOM      8  C   LIG    1        3.480  -2.841   0.922  0.00  0.00    +0.190 C 
ATOM      9  C   LIG    1        2.205  -3.457   1.436  0.00  0.00    +0.140 A 
ATOM     10  C   LIG    1        1.785  -4.742   1.242  0.00  0.00    -0.110 A 
ATOM     11  N   LIG    1        0.598  -4.900   1.854  0.00  0.00    -0.190 NA
ATOM     12  N   LIG    1        0.255  -3.796   2.420  0.00  0.00    -0.050 NA
ATOM     13  N   LIG    1        1.258  -2.845   2.180  0.00  0.00    -0.310 N 
BRANCH  13  14
ATOM     14  C   LIG    1        1.272  -1.515   2.623  0.00  0.00    +0.140 A 
ATOM     15  C   LIG    1        2.471  -0.912   2.977  0.00  0.00    +0.030 A 
ATOM     16  C   LIG    1        2.482   0.399   3.412  0.00  0.00    +0.070 A 
ATOM     17  C   LIG    1        1.301   1.112   3.495  0.00  0.00    +0.060 A 
ATOM     18  C   LIG    1        0.103   0.514   3.142  0.00  0.00    -0.020 A 
ATOM     19 CL   LIG    1       -1.377   1.415   3.240  0.00  0.00    -0.040 Cl
ATOM     20  C   LIG    1        0.086  -0.797   2.706  0.00  0.00    +0.060 A 
ENDBRANCH  13  14
ENDBRANCH   1  10
BRANCH   5  21
ATOM     21  C   LIG    1        2.008 -10.588  -0.697  0.00  0.00    +0.320 C 
BRANCH  21  22
ATOM     22  N   LIG    1        3.383 -11.074  -0.839  0.00  0.00    -0.600 N 
ATOM     23  C   LIG    1        4.184 -10.559  -1.792  0.00  0.00    +0.530 C 
ATOM     24  O   LIG    1        3.795  -9.638  -2.479  0.00  0.00    -0.510 OA
ATOM     25  C   LIG    1        3.887 -12.119   0.055  0.00  0.00    +0.290 C 
BRANCH  23  26
ATOM     26  C   LIG    1        5.564 -11.126  -2.004  0.00  0.00    -0.020 C 
ATOM     27  C   LIG    1        6.481 -10.676  -0.866  0.00  0.00    +0.350 C 
ATOM     28  N   LIG    1        7.846 -11.171  -1.073  0.00  0.00    -0.610 NA
ATOM     29  C   LIG    1        8.295 -11.312  -2.292  0.00  0.00    +0.620 C 
ATOM     30  N   LIG    1        9.509 -11.712  -2.726  0.00  0.00    -0.520 NA
ATOM     31  C   LIG    1        9.546 -11.687  -4.032  0.00  0.00    +0.690 C 
ATOM     32  N   LIG    1        8.343 -11.268  -4.518  0.00  0.00    -0.450 N 
ATOM     33  H   LIG    1        8.104 -11.150  -5.451  0.00  0.00    +0.480 HD
ATOM     34  N   LIG    1        7.523 -11.045  -3.415  0.00  0.00    -0.400 NA
ATOM     35  H   LIG    1        8.409 -11.392  -0.314  0.00  0.00    +0.460 HD
ATOM     36  C   LIG    1        6.123 -10.624  -3.346  0.00  0.00    +0.400 C 
ENDBRANCH  23  26
ENDBRANCH  21  22
ENDBRANCH   5  21
TORSDOF 5
