REMARK  Name = ZINCrH000004p24A.0
REMARK                            x       y       z     vdW  Elec       q    Type
REMARK                         _______ _______ _______ _____ _____    ______ ____
ROOT
ATOM      1  N   LIG    1        2.066   0.337   1.412  0.00  0.00    -0.520 NA
ATOM      2  C   LIG    1        0.693  -0.187   1.395  0.00  0.00    +0.190 C 
ATOM      3  C   LIG    1       -0.096   0.493   0.273  0.00  0.00    +0.200 C 
ATOM      4  N   LIG    1       -0.093   1.946   0.487  0.00  0.00    -0.490 N 
ATOM      5  C   LIG    1        1.280   2.470   0.504  0.00  0.00    +0.210 C 
ATOM      6  C   LIG    1        2.069   1.791   1.626  0.00  0.00    +0.190 C 
ENDROOT
BRANCH   4   7
ATOM      7  C   LIG    1       -0.866   2.598  -0.480  0.00  0.00    +0.100 A 
ATOM      8  C   LIG    1       -1.505   1.858  -1.473  0.00  0.00    +0.000 A 
ATOM      9  C   LIG    1       -2.275   2.484  -2.429  0.00  0.00    +0.050 A 
ATOM     10  C   LIG    1       -2.411   3.866  -2.417  0.00  0.00    +0.030 A 
ATOM     11  O   LIG    1       -3.076   4.738  -3.204  0.00  0.00    -0.200 OA
ATOM     12  C   LIG    1       -2.898   6.001  -2.777  0.00  0.00    +0.220 A 
ATOM     13  C   LIG    1       -2.110   6.015  -1.694  0.00  0.00    -0.060 A 
ATOM     14  C   LIG    1       -1.763   4.615  -1.420  0.00  0.00    -0.110 A 
ATOM     15  C   LIG    1       -0.991   3.975  -0.452  0.00  0.00    +0.030 A 
ENDBRANCH   4   7
BRANCH   1  17
ATOM     16  C   LIG    1        2.326  -0.030   3.819  0.00  0.00    +0.030 C 
ATOM     17  C   LIG    1        2.877  -0.347   2.427  0.00  0.00    +0.190 C 
BRANCH  17  18
ATOM     18  C   LIG    1        4.304   0.128   2.333  0.00  0.00    +0.520 C 
ATOM     19  N   LIG    1        5.236  -0.366   3.172  0.00  0.00    -0.670 N 
ATOM     20  H   LIG    1        4.975  -0.968   3.886  0.00  0.00    +0.410 HD
ATOM     21  O   LIG    1        4.615   0.954   1.501  0.00  0.00    -0.490 OA
BRANCH  19  22
ATOM     22  C   LIG    1        6.580  -0.009   3.014  0.00  0.00    +0.180 A 
ATOM     23  C   LIG    1        7.093   0.222   1.745  0.00  0.00    +0.010 A 
ATOM     24  C   LIG    1        8.419   0.580   1.591  0.00  0.00    +0.070 A 
ATOM     25  C   LIG    1        9.238   0.696   2.698  0.00  0.00    -0.030 A 
ATOM     26  C   LIG    1        8.731   0.461   3.966  0.00  0.00    +0.120 A 
ATOM     27  F   LIG    1        9.534   0.577   5.046  0.00  0.00    -0.140 F 
ATOM     28  C   LIG    1        7.404   0.108   4.126  0.00  0.00    -0.040 A 
ENDBRANCH  19  22
ENDBRANCH  17  18
ENDBRANCH   1  17
TORSDOF 4
