REMARK  Name = ZINCrD000000AY3U.2
REMARK                            x       y       z     vdW  Elec       q    Type
REMARK                         _______ _______ _______ _____ _____    ______ ____
ROOT
ATOM      1  O   LIG    1       -1.375   4.718   4.790  0.00  0.00    -0.570 OA
ATOM      2  C   LIG    1       -2.255   4.043   5.288  0.00  0.00    +0.710 C 
ATOM      3  N   LIG    1       -2.667   2.915   4.677  0.00  0.00    -0.690 N 
ATOM      4  H   LIG    1       -3.420   2.418   5.033  0.00  0.00    +0.410 HD
ATOM      5  N   LIG    1       -2.818   4.423   6.452  0.00  0.00    -0.740 N 
ATOM      6  H   LIG    1       -3.520   3.885   6.850  0.00  0.00    +0.400 HD
ENDROOT
BRANCH   3   7
ATOM      7  C   LIG    1       -2.008   2.460   3.529  0.00  0.00    +0.180 A 
ATOM      8  C   LIG    1       -0.642   2.663   3.384  0.00  0.00    +0.020 A 
ATOM      9  C   LIG    1        0.005   2.214   2.249  0.00  0.00    +0.050 A 
ATOM     10  C   LIG    1       -0.706   1.562   1.258  0.00  0.00    -0.100 A 
ATOM     11  C   LIG    1       -2.068   1.363   1.397  0.00  0.00    +0.050 A 
ATOM     12  C   LIG    1       -2.720   1.805   2.532  0.00  0.00    -0.020 A 
BRANCH  10  13
ATOM     13  C   LIG    1        0.003   1.074   0.021  0.00  0.00    +0.130 C 
BRANCH  13  14
ATOM     14  S   LIG    1        0.592  -0.620   0.292  0.00  0.00    -0.090 S 
BRANCH  14  15
ATOM     15  C   LIG    1        1.380  -1.014  -1.234  0.00  0.00    -0.100 A 
ATOM     16  C   LIG    1        1.410  -0.081  -2.263  0.00  0.00    +0.020 A 
ATOM     17  C   LIG    1        2.033  -0.390  -3.456  0.00  0.00    +0.010 A 
ATOM     18  C   LIG    1        2.619  -1.632  -3.631  0.00  0.00    +0.090 A 
ATOM     19  C   LIG    1        2.586  -2.566  -2.609  0.00  0.00    +0.010 A 
ATOM     20  F   LIG    1        3.223  -1.934  -4.801  0.00  0.00    -0.140 F 
ATOM     21  C   LIG    1        1.969  -2.260  -1.412  0.00  0.00    +0.070 A 
ENDBRANCH  14  15
ENDBRANCH  13  14
ENDBRANCH  10  13
ENDBRANCH   3   7
BRANCH   5  22
ATOM     22  C   LIG    1       -2.370   5.649   7.116  0.00  0.00    +0.290 C 
BRANCH  22  23
ATOM     23  C   LIG    1       -3.165   5.849   8.408  0.00  0.00    +0.160 C 
BRANCH  23  24
ATOM     24  N   LIG    1       -2.715   7.079   9.075  0.00  0.00    -0.510 NA
ATOM     25  C   LIG    1       -2.754   8.234   8.142  0.00  0.00    +0.170 C 
ATOM     26  C   LIG    1       -2.777   9.457   9.093  0.00  0.00    +0.010 C 
ATOM     27  C   LIG    1       -3.670   8.971  10.259  0.00  0.00    +0.150 C 
ATOM     28  C   LIG    1       -3.614   7.434  10.194  0.00  0.00    +0.200 C 
BRANCH  27  29
ATOM     29  O   LIG    1       -3.153   9.434  11.508  0.00  0.00    -0.560 OA
ATOM     30  H   LIG    1       -3.163  10.396  11.605  0.00  0.00    +0.380 HD
ENDBRANCH  27  29
ENDBRANCH  23  24
ENDBRANCH  22  23
ENDBRANCH   5  22
TORSDOF 8
