REMARK  Name = ZINCpk00000ebmkm.0
REMARK                            x       y       z     vdW  Elec       q    Type
REMARK                         _______ _______ _______ _____ _____    ______ ____
ROOT
ATOM      1  N   LIG    1       -0.003  -0.231  -0.118  0.00  0.00    -0.530 NA
ATOM      2  C   LIG    1        0.084   1.210  -0.351  0.00  0.00    +0.200 C 
ATOM      3  C   LIG    1        1.538   1.601  -0.500  0.00  0.00    +0.030 C 
ATOM      4  C   LIG    1        1.933   1.566  -1.986  0.00  0.00    +0.250 C 
ATOM      5  N   LIG    1        1.329   0.409  -2.675  0.00  0.00    -0.610 N 
ATOM      6  C   LIG    1        1.265  -0.908  -2.074  0.00  0.00    +0.290 C 
ATOM      7  C   LIG    1        0.817   0.583  -3.909  0.00  0.00    +0.510 C 
ATOM      8  O   LIG    1        0.316  -0.352  -4.496  0.00  0.00    -0.530 OA
ATOM      9  C   LIG    1       -0.049  -1.051  -1.269  0.00  0.00    +0.180 C 
ENDROOT
BRANCH   1  10
ATOM     10  C   LIG    1       -1.103  -0.550   0.801  0.00  0.00    +0.260 C 
BRANCH  10  14
ATOM     11  N   LIG    1       -3.576  -0.492   0.772  0.00  0.00    -0.860 N 
ATOM     12  H   LIG    1       -4.421  -0.257   0.358  0.00  0.00    +0.400 HD
ATOM     13  H   LIG    1       -3.566  -0.950   1.627  0.00  0.00    +0.400 HD
ATOM     14  C   LIG    1       -2.416  -0.184   0.159  0.00  0.00    +0.480 C 
ATOM     15  O   LIG    1       -2.429   0.389  -0.911  0.00  0.00    -0.540 OA
ENDBRANCH  10  14
ENDBRANCH   1  10
BRANCH   7  16
ATOM     16  C   LIG    1        0.869   1.941  -4.561  0.00  0.00    +0.120 C 
BRANCH  16  17
ATOM     17  C   LIG    1        0.235   1.867  -5.926  0.00  0.00    -0.040 A 
ATOM     18  C   LIG    1       -1.119   2.103  -6.073  0.00  0.00    +0.030 A 
ATOM     19  C   LIG    1       -1.700   2.035  -7.328  0.00  0.00    +0.110 A 
ATOM     20  C   LIG    1       -0.925   1.731  -8.434  0.00  0.00    +0.040 A 
ATOM     21  C   LIG    1        0.429   1.495  -8.284  0.00  0.00    -0.150 A 
ATOM     22  F   LIG    1       -3.024   2.265  -7.473  0.00  0.00    -0.130 F 
ATOM     23  C   LIG    1        1.009   1.569  -7.032  0.00  0.00    +0.080 A 
BRANCH  21  24
ATOM     24  C   LIG    1        1.273   1.164  -9.488  0.00  0.00    +0.510 C 
ATOM     25  F   LIG    1        1.856  -0.096  -9.316  0.00  0.00    -0.170 F 
ATOM     26  F   LIG    1        2.278   2.127  -9.632  0.00  0.00    -0.170 F 
ATOM     27  F   LIG    1        0.469   1.154 -10.633  0.00  0.00    -0.170 F 
ENDBRANCH  21  24
ENDBRANCH  16  17
ENDBRANCH   7  16
TORSDOF 5
