REMARK  Name = ZINCpe000000SOR4.0
REMARK                            x       y       z     vdW  Elec       q    Type
REMARK                         _______ _______ _______ _____ _____    ______ ____
ROOT
ATOM      1  N   LIG    1       -2.937   2.945   2.886  0.00  0.00    -0.450 N 
ATOM      2  C   LIG    1       -3.176   1.702   2.141  0.00  0.00    +0.220 C 
ATOM      3  C   LIG    1       -1.851   0.952   1.966  0.00  0.00    +0.300 C 
ATOM      4  N   LIG    1       -0.875   1.865   1.354  0.00  0.00    -1.010 NA
ATOM      5  C   LIG    1       -0.676   3.186   1.970  0.00  0.00    +0.320 C 
ATOM      6  C   LIG    1       -2.051   3.850   2.142  0.00  0.00    +0.220 C 
ENDROOT
BRANCH   1  11
ATOM      7  C   LIG    1       -5.223   5.337   4.204  0.00  0.00    +0.240 A 
ATOM      8  C   LIG    1       -6.435   4.791   3.830  0.00  0.00    -0.180 A 
ATOM      9  C   LIG    1       -6.433   3.588   3.119  0.00  0.00    +0.460 A 
ATOM     10  N   LIG    1       -5.271   3.013   2.828  0.00  0.00    -0.610 NA
ATOM     11  C   LIG    1       -4.130   3.569   3.205  0.00  0.00    +0.540 A 
ATOM     12  N   LIG    1       -4.102   4.706   3.885  0.00  0.00    -0.560 NA
BRANCH   7  14
ATOM     13  C   LIG    1       -5.583   6.378   6.425  0.00  0.00    +0.050 C 
ATOM     14  C   LIG    1       -5.176   6.632   4.973  0.00  0.00    -0.020 C 
ATOM     15  C   LIG    1       -6.142   7.636   4.340  0.00  0.00    +0.050 C 
ATOM     16  C   LIG    1       -3.755   7.197   4.933  0.00  0.00    +0.050 C 
ENDBRANCH   7  14
BRANCH   9  17
ATOM     17  N   LIG    1       -7.625   3.004   2.724  0.00  0.00    -0.840 N 
ATOM     18  H   LIG    1       -8.470   3.430   2.940  0.00  0.00    +0.410 HD
ATOM     19  H   LIG    1       -7.616   2.169   2.231  0.00  0.00    +0.410 HD
ENDBRANCH   9  17
ENDBRANCH   1  11
BRANCH   4  20
ATOM     20  S   LIG    1       -0.017   1.417   0.010  0.00  0.00    +2.800 S 
ATOM     21  O   LIG    1        1.162   2.210   0.003  0.00  0.00    -0.970 OA
ATOM     22  O   LIG    1        0.002  -0.004   0.002  0.00  0.00    -0.970 OA
BRANCH  20  23
ATOM     23  N   LIG    1       -0.900   1.880  -1.312  0.00  0.00    -1.020 NA
ATOM     24  C   LIG    1       -1.907   1.059  -2.001  0.00  0.00    +0.250 C 
ATOM     25  C   LIG    1       -2.446   1.891  -3.183  0.00  0.00    +0.020 C 
ATOM     26  C   LIG    1       -1.304   2.909  -3.438  0.00  0.00    +0.030 C 
ATOM     27  C   LIG    1       -0.803   3.181  -1.998  0.00  0.00    +0.260 C 
ENDBRANCH  20  23
ENDBRANCH   4  20
TORSDOF 5
