REMARK  Name = ZINCpe000000YnoA.0
REMARK                            x       y       z     vdW  Elec       q    Type
REMARK                         _______ _______ _______ _____ _____    ______ ____
ROOT
ATOM      1  C   LIG    1       -0.058   6.863   3.253  0.00  0.00    +0.130 C 
ATOM      2  C   LIG    1        0.007   7.961   2.190  0.00  0.00    +0.060 C 
ATOM      3  C   LIG    1       -0.090   7.333   0.798  0.00  0.00    +0.030 C 
ATOM      4  C   LIG    1        1.094   6.384   0.587  0.00  0.00    +0.260 C 
ATOM      5  N   LIG    1        1.123   5.411   1.688  0.00  0.00    -0.610 N 
ATOM      6  C   LIG    1        1.146   4.088   1.434  0.00  0.00    +0.520 C 
ATOM      7  O   LIG    1        1.169   3.295   2.351  0.00  0.00    -0.530 OA
ATOM      8  C   LIG    1        1.121   5.909   3.070  0.00  0.00    +0.270 C 
ENDROOT
BRANCH   1   9
ATOM      9  O   LIG    1       -1.282   6.137   3.115  0.00  0.00    -0.550 OA
ATOM     10  H   LIG    1       -1.391   5.424   3.758  0.00  0.00    +0.370 HD
ENDBRANCH   1   9
BRANCH   1  11
ATOM     11  C   LIG    1        0.006   7.495   4.645  0.00  0.00    +0.150 C 
BRANCH  11  17
ATOM     12  C   LIG    1       -2.411   6.123   6.084  0.00  0.00    +0.350 C 
ATOM     13  N   LIG    1       -0.993   5.826   6.301  0.00  0.00    -0.480 N 
ATOM     14  C   LIG    1       -0.474   4.910   7.154  0.00  0.00    +0.370 A 
ATOM     15  N   LIG    1        0.826   4.969   7.043  0.00  0.00    -0.290 NA
ATOM     16  N   LIG    1        1.146   5.859   6.172  0.00  0.00    -0.280 NA
ATOM     17  C   LIG    1        0.065   6.409   5.688  0.00  0.00    +0.160 A 
ENDBRANCH  11  17
ENDBRANCH   1  11
BRANCH   6  18
ATOM     18  C   LIG    1        1.142   3.593   0.010  0.00  0.00    +0.110 C 
BRANCH  18  19
ATOM     19  C   LIG    1        1.170   2.086   0.002  0.00  0.00    -0.040 A 
ATOM     20  C   LIG    1       -0.017   1.375   0.010  0.00  0.00    +0.020 A 
ATOM     21  C   LIG    1        0.002  -0.004   0.002  0.00  0.00    +0.060 A 
ATOM     22  C   LIG    1        1.222  -0.682  -0.013  0.00  0.00    -0.030 A 
ATOM     23  C   LIG    1        2.416   0.042  -0.021  0.00  0.00    +0.060 A 
ATOM     24  C   LIG    1        2.383   1.421  -0.013  0.00  0.00    +0.020 A 
BRANCH  22  25
ATOM     25  C   LIG    1        1.250  -2.114  -0.021  0.00  0.00    +0.250 C 
ATOM     26  N   LIG    1        1.271  -3.250  -0.027  0.00  0.00    -0.410 NA
ENDBRANCH  22  25
ENDBRANCH  18  19
ENDBRANCH   6  18
TORSDOF 6
