REMARK  Name = ZINCpe00001DRcol.0
REMARK                            x       y       z     vdW  Elec       q    Type
REMARK                         _______ _______ _______ _____ _____    ______ ____
ROOT
ATOM      1  C   LIG    1       -1.028   3.399   0.023  0.00  0.00    -0.070 C 
ATOM      2  C   LIG    1       -2.188   3.451   0.972  0.00  0.00    +0.030 C 
ATOM      3  C   LIG    1       -1.896   2.748   2.295  0.00  0.00    +0.220 C 
ATOM      4  O   LIG    1       -0.681   3.303   2.817  0.00  0.00    -0.370 OA
ATOM      5  C   LIG    1        0.456   2.941   2.063  0.00  0.00    +0.210 C 
ATOM      6  C   LIG    1       -1.132   2.229  -0.974  0.00  0.00    +0.300 C 
ATOM      7  N   LIG    1       -0.002   1.337  -0.621  0.00  0.00    -0.610 N 
ATOM      8  C   LIG    1        0.027  -0.010  -0.649  0.00  0.00    +0.600 C 
ATOM      9  O   LIG    1       -0.993  -0.636  -0.871  0.00  0.00    -0.520 OA
ATOM     10  C   LIG    1        1.093   2.261  -0.235  0.00  0.00    +0.280 C 
ATOM     11  C   LIG    1        0.372   3.353   0.605  0.00  0.00    +0.000 C 
ENDROOT
BRANCH   1  15
ATOM     12  N   LIG    1       -2.236   4.969  -1.458  0.00  0.00    -0.850 N 
ATOM     13  H   LIG    1       -2.282   5.777  -1.993  0.00  0.00    +0.410 HD
ATOM     14  H   LIG    1       -3.010   4.388  -1.391  0.00  0.00    +0.400 HD
ATOM     15  C   LIG    1       -1.099   4.655  -0.808  0.00  0.00    +0.520 C 
ATOM     16  O   LIG    1       -0.131   5.382  -0.891  0.00  0.00    -0.530 OA
ENDBRANCH   1  15
BRANCH   8  17
ATOM     17  C   LIG    1        1.291  -0.724  -0.411  0.00  0.00    +0.030 A 
ATOM     18  C   LIG    1        2.547  -0.160  -0.316  0.00  0.00    -0.050 A 
ATOM     19  C   LIG    1        3.457  -1.189  -0.084  0.00  0.00    +0.250 A 
ATOM     20  N   LIG    1        2.808  -2.326  -0.047  0.00  0.00    -0.260 NA
ATOM     21  N   LIG    1        1.445  -2.075  -0.248  0.00  0.00    -0.290 N 
BRANCH  21  22
ATOM     22  C   LIG    1        0.424  -3.033  -0.278  0.00  0.00    +0.130 A 
ATOM     23  C   LIG    1       -0.761  -2.808   0.410  0.00  0.00    +0.050 A 
ATOM     24  C   LIG    1       -1.768  -3.752   0.374  0.00  0.00    +0.020 A 
ATOM     25  C   LIG    1       -1.594  -4.926  -0.337  0.00  0.00    +0.020 A 
ATOM     26  C   LIG    1       -0.413  -5.155  -1.019  0.00  0.00    +0.020 A 
ATOM     27  C   LIG    1        0.596  -4.212  -0.992  0.00  0.00    +0.030 A 
ENDBRANCH  21  22
ENDBRANCH   8  17
TORSDOF 3
