REMARK  Name = ZINCkj000005jVHZ.0
REMARK                            x       y       z     vdW  Elec       q    Type
REMARK                         _______ _______ _______ _____ _____    ______ ____
ROOT
ATOM      1  C   LIG    1        4.451  -8.082   0.343  0.00  0.00    +0.100 C 
ATOM      2  C   LIG    1        2.935  -8.094   0.136  0.00  0.00    +0.230 C 
ATOM      3  C   LIG    1        2.282  -9.047   1.148  0.00  0.00    +0.270 C 
ATOM      4  N   LIG    1        0.821  -8.953   1.033  0.00  0.00    -0.510 N 
ATOM      5  C   LIG    1        0.375  -7.608   1.417  0.00  0.00    +0.270 C 
ATOM      6  C   LIG    1        0.934  -6.583   0.424  0.00  0.00    +0.300 C 
ATOM      7  H   LIG    1        0.547  -9.138   0.080  0.00  0.00    +0.430 HD
ATOM      8  H   LIG    1        0.392  -9.634   1.642  0.00  0.00    +0.440 HD
ATOM      9  N   LIG    1        2.395  -6.744   0.361  0.00  0.00    -0.630 N 
ATOM     10  C   LIG    1        3.215  -5.683   0.499  0.00  0.00    +0.570 C 
ATOM     11  O   LIG    1        4.415  -5.821   0.363  0.00  0.00    -0.490 OA
ENDROOT
BRANCH  10  12
ATOM     12  C   LIG    1        2.656  -4.354   0.815  0.00  0.00    -0.160 A 
ATOM     13  C   LIG    1        3.369  -3.469   1.628  0.00  0.00    +0.120 A 
ATOM     14  C   LIG    1        2.845  -2.230   1.921  0.00  0.00    +0.010 A 
ATOM     15  C   LIG    1        1.606  -1.859   1.410  0.00  0.00    +0.180 A 
ATOM     16  C   LIG    1        0.891  -2.739   0.605  0.00  0.00    +0.000 A 
ATOM     17  C   LIG    1        1.412  -3.977   0.303  0.00  0.00    +0.070 A 
BRANCH  15  18
ATOM     18  N   LIG    1        1.077  -0.600   1.710  0.00  0.00    -0.420 N 
ATOM     19  C   LIG    1       -0.125  -0.097   1.280  0.00  0.00    +0.120 A 
ATOM     20  C   LIG    1       -0.239   1.139   1.800  0.00  0.00    +0.170 A 
ATOM     21  N   LIG    1        0.860   1.391   2.527  0.00  0.00    -0.470 NA
ATOM     22  C   LIG    1        1.655   0.357   2.482  0.00  0.00    +0.410 A 
ENDBRANCH  15  18
ENDBRANCH  10  12
TORSDOF 2
