REMARK  Name = ZINCpk00000zMhfT.0
REMARK                            x       y       z     vdW  Elec       q    Type
REMARK                         _______ _______ _______ _____ _____    ______ ____
ROOT
ATOM      1  C   LIG    1        7.577   0.744   0.117  0.00  0.00    +0.270 C 
ENDROOT
BRANCH   1   2
ATOM      2  C   LIG    1        6.110   0.596   0.429  0.00  0.00    -0.150 A 
ATOM      3  C   LIG    1        5.355   1.713   0.737  0.00  0.00    +0.010 A 
ATOM      4  C   LIG    1        4.011   1.583   1.023  0.00  0.00    +0.030 A 
ATOM      5  C   LIG    1        3.415   0.325   1.001  0.00  0.00    +0.060 A 
ATOM      6  C   LIG    1        4.181  -0.798   0.695  0.00  0.00    +0.030 A 
ATOM      7  C   LIG    1        5.523  -0.656   0.405  0.00  0.00    +0.000 A 
BRANCH   5   8
ATOM      8  C   LIG    1        1.970   0.179   1.307  0.00  0.00    +0.070 A 
ATOM      9  N   LIG    1        1.123   1.154   1.618  0.00  0.00    -0.370 NA
ATOM     10  N   LIG    1       -0.034   0.617   1.812  0.00  0.00    -0.190 NA
ATOM     11  N   LIG    1        0.057  -0.654   1.633  0.00  0.00    -0.180 NA
ATOM     12  N   LIG    1        1.272  -0.952   1.323  0.00  0.00    -0.370 NA
ENDBRANCH   5   8
ENDBRANCH   1   2
BRANCH   1  13
ATOM     13  O   LIG    1        7.925  -0.124  -0.963  0.00  0.00    -0.550 OA
ATOM     14  H   LIG    1        7.764  -1.060  -0.782  0.00  0.00    +0.380 HD
ENDBRANCH   1  13
BRANCH   1  15
ATOM     15  C   LIG    1        8.400   0.376   1.353  0.00  0.00    +0.140 C 
BRANCH  15  17
ATOM     16  C   LIG    1       10.359  -0.250   0.074  0.00  0.00    +0.200 C 
ATOM     17  N   LIG    1        9.819   0.656   1.098  0.00  0.00    -0.520 NA
BRANCH  17  18
ATOM     18  C   LIG    1       10.603   0.576   2.337  0.00  0.00    +0.130 C 
ATOM     19  C   LIG    1       10.043   1.569   3.360  0.00  0.00    +0.060 C 
ATOM     20  C   LIG    1       10.273   2.998   2.843  0.00  0.00    +0.180 C 
ATOM     21  C   LIG    1        9.815   3.047   1.367  0.00  0.00    +0.080 C 
ATOM     22  C   LIG    1       11.062   2.643   0.553  0.00  0.00    +0.080 C 
ATOM     23  C   LIG    1       12.160   2.387   1.610  0.00  0.00    +0.180 C 
ATOM     24  N   LIG    1       11.743   3.211   2.776  0.00  0.00    -0.390 N 
ATOM     25  C   LIG    1       12.391   2.733   4.005  0.00  0.00    +0.310 C 
ATOM     26  H   LIG    1       11.954   4.185   2.617  0.00  0.00    +0.420 HD
ATOM     27  C   LIG    1       12.067   0.913   2.038  0.00  0.00    +0.060 C 
ENDBRANCH  17  18
ENDBRANCH  15  17
ENDBRANCH   1  15
TORSDOF 6
