REMARK  Name = ZINCpk00000zMhfT.1
REMARK                            x       y       z     vdW  Elec       q    Type
REMARK                         _______ _______ _______ _____ _____    ______ ____
ROOT
ATOM      1  C   LIG    1        0.030   0.108   0.011  0.00  0.00    +0.270 C 
ENDROOT
BRANCH   1   2
ATOM      2  C   LIG    1        0.786  -0.271  -1.236  0.00  0.00    -0.150 A 
ATOM      3  C   LIG    1        1.875   0.481  -1.638  0.00  0.00    +0.000 A 
ATOM      4  C   LIG    1        2.574   0.134  -2.777  0.00  0.00    +0.030 A 
ATOM      5  C   LIG    1        2.174  -0.969  -3.527  0.00  0.00    +0.060 A 
ATOM      6  C   LIG    1        1.074  -1.720  -3.121  0.00  0.00    +0.030 A 
ATOM      7  C   LIG    1        0.385  -1.368  -1.978  0.00  0.00    +0.010 A 
BRANCH   5   8
ATOM      8  C   LIG    1        2.919  -1.343  -4.756  0.00  0.00    +0.070 A 
ATOM      9  N   LIG    1        2.657  -2.367  -5.561  0.00  0.00    -0.370 NA
ATOM     10  N   LIG    1        3.528  -2.346  -6.512  0.00  0.00    -0.180 NA
ATOM     11  N   LIG    1        4.329  -1.355  -6.329  0.00  0.00    -0.190 NA
ATOM     12  N   LIG    1        3.980  -0.723  -5.260  0.00  0.00    -0.370 NA
ENDBRANCH   5   8
ENDBRANCH   1   2
BRANCH   1  13
ATOM     13  O   LIG    1       -0.086   1.531   0.083  0.00  0.00    -0.540 OA
ATOM     14  H   LIG    1        0.762   1.994   0.111  0.00  0.00    +0.370 HD
ENDBRANCH   1  13
BRANCH   1  15
ATOM     15  C   LIG    1        0.784  -0.404   1.240  0.00  0.00    +0.160 C 
BRANCH  15  17
ATOM     16  C   LIG    1       -1.284  -0.871   2.410  0.00  0.00    +0.200 C 
ATOM     17  N   LIG    1       -0.010  -0.139   2.447  0.00  0.00    -0.520 NA
BRANCH  17  18
ATOM     18  C   LIG    1        0.750  -0.467   3.660  0.00  0.00    +0.140 C 
ATOM     19  C   LIG    1       -0.105  -0.167   4.895  0.00  0.00    +0.060 C 
ATOM     20  C   LIG    1       -0.355   1.348   4.957  0.00  0.00    +0.180 C 
ATOM     21  C   LIG    1       -0.780   1.841   3.555  0.00  0.00    +0.080 C 
ATOM     22  C   LIG    1        0.543   2.175   2.836  0.00  0.00    +0.080 C 
ATOM     23  C   LIG    1        1.647   1.853   3.869  0.00  0.00    +0.170 C 
ATOM     24  N   LIG    1        0.982   1.990   5.191  0.00  0.00    -0.400 N 
ATOM     25  C   LIG    1        0.819   3.407   5.544  0.00  0.00    +0.320 C 
ATOM     26  H   LIG    1        1.503   1.503   5.904  0.00  0.00    +0.420 HD
ATOM     27  C   LIG    1        2.030   0.374   3.702  0.00  0.00    +0.060 C 
ENDBRANCH  17  18
ENDBRANCH  15  17
ENDBRANCH   1  15
TORSDOF 6
