REMARK  Name = ZINCqH00000036r8.0
REMARK                            x       y       z     vdW  Elec       q    Type
REMARK                         _______ _______ _______ _____ _____    ______ ____
ROOT
ATOM      1  N   LIG    1       -2.442   4.574   0.051  0.00  0.00    -0.460 N 
ENDROOT
BRANCH   1   2
ATOM      2  C   LIG    1       -1.068   4.414   0.074  0.00  0.00    +0.410 A 
ATOM      3  C   LIG    1       -0.493   3.135   0.131  0.00  0.00    -0.230 A 
ATOM      4  C   LIG    1       -1.010   1.769   0.172  0.00  0.00    +0.000 A 
ATOM      5  C   LIG    1        0.055   0.952   0.221  0.00  0.00    +0.230 A 
ATOM      6  N   LIG    1        1.209   1.693   0.206  0.00  0.00    -0.570 N 
ATOM      7  H   LIG    1        2.106   1.325   0.232  0.00  0.00    +0.420 HD
ATOM      8  C   LIG    1        0.909   3.026   0.151  0.00  0.00    +0.330 A 
ATOM      9  N   LIG    1        1.636   4.142   0.117  0.00  0.00    -0.540 NA
ATOM     10  C   LIG    1        1.054   5.321   0.064  0.00  0.00    +0.370 A 
ATOM     11  N   LIG    1       -0.258   5.469   0.043  0.00  0.00    -0.580 NA
BRANCH  10  12
ATOM     12  C   LIG    1        1.921   6.553   0.027  0.00  0.00    +0.080 C 
ATOM     13  C   LIG    1        2.819   6.508  -1.210  0.00  0.00    +0.050 C 
ATOM     14  C   LIG    1        2.789   6.604   1.286  0.00  0.00    +0.050 C 
ENDBRANCH  10  12
ENDBRANCH   1   2
BRANCH   1  16
ATOM     15  C   LIG    1       -4.546   3.691  -0.837  0.00  0.00    +0.050 C 
ATOM     16  C   LIG    1       -3.040   3.830  -1.065  0.00  0.00    +0.200 C 
ENDBRANCH   1  16
BRANCH   1  17
ATOM     17  C   LIG    1       -2.805   5.996  -0.008  0.00  0.00    +0.260 C 
BRANCH  17  18
ATOM     18  C   LIG    1       -2.611   6.630   1.370  0.00  0.00    +0.150 C 
ATOM     19  C   LIG    1       -2.876   8.140   1.287  0.00  0.00    +0.230 C 
ATOM     20  O   LIG    1       -2.699   8.698   2.594  0.00  0.00    -0.300 OA
ATOM     21  C   LIG    1       -3.285   8.035   3.627  0.00  0.00    +0.040 A 
ATOM     22  C   LIG    1       -3.466   8.685   4.839  0.00  0.00    +0.020 A 
ATOM     23  C   LIG    1       -4.057   8.023   5.899  0.00  0.00    +0.010 A 
ATOM     24  C   LIG    1       -4.469   6.712   5.754  0.00  0.00    +0.010 A 
ATOM     25  C   LIG    1       -4.293   6.058   4.549  0.00  0.00    +0.010 A 
ATOM     26  C   LIG    1       -3.702   6.717   3.481  0.00  0.00    +0.060 A 
ATOM     27  O   LIG    1       -3.541   6.062   2.299  0.00  0.00    -0.290 OA
ENDBRANCH  17  18
ENDBRANCH   1  17
TORSDOF 5
