REMARK  Name = ZINCvU00000004Do.0
REMARK                            x       y       z     vdW  Elec       q    Type
REMARK                         _______ _______ _______ _____ _____    ______ ____
ROOT
ATOM      1  C   LIG    1        0.002  -0.004   0.002  0.00  0.00    +0.180 C 
ATOM      2  C   LIG    1        1.087  -0.675   0.488  0.00  0.00    +0.010 C 
ENDROOT
BRANCH   2   3
ATOM      3  C   LIG    1        1.156  -2.143   0.379  0.00  0.00    +0.150 A 
ATOM      4  N   LIG    1        2.138  -2.870   0.801  0.00  0.00    -0.440 NA
ATOM      5  C   LIG    1        2.053  -4.200   0.634  0.00  0.00    +0.080 A 
ATOM      6  C   LIG    1        2.979  -5.200   1.007  0.00  0.00    +0.150 A 
ATOM      7  C   LIG    1        2.722  -6.511   0.748  0.00  0.00    -0.170 A 
ATOM      8  C   LIG    1        1.549  -6.894   0.114  0.00  0.00    +0.090 A 
ATOM      9  C   LIG    1        0.626  -5.943  -0.260  0.00  0.00    +0.080 A 
ATOM     10  C   LIG    1        0.871  -4.595  -0.005  0.00  0.00    -0.150 A 
ATOM     11  S   LIG    1       -0.084  -3.155  -0.349  0.00  0.00    +0.120 S 
BRANCH   7  12
ATOM     12  C   LIG    1        3.726  -7.560   1.154  0.00  0.00    +0.510 C 
ATOM     13  F   LIG    1        5.013  -7.013   1.118  0.00  0.00    -0.170 F 
ATOM     14  F   LIG    1        3.654  -8.642   0.269  0.00  0.00    -0.170 F 
ATOM     15  F   LIG    1        3.442  -8.000   2.451  0.00  0.00    -0.170 F 
ENDBRANCH   7  12
ENDBRANCH   2   3
BRANCH   1  18
ATOM     16  C   LIG    1        1.197   3.542  -0.241  0.00  0.00    +0.170 A 
ATOM     17  C   LIG    1        1.202   2.161  -0.209  0.00  0.00    -0.080 A 
ATOM     18  C   LIG    1        0.001   1.462  -0.033  0.00  0.00    -0.010 A 
ATOM     19  C   LIG    1       -1.202   2.167   0.105  0.00  0.00    -0.060 A 
ATOM     20  C   LIG    1       -1.197   3.548   0.078  0.00  0.00    +0.170 A 
ATOM     21  C   LIG    1       -0.001   4.239  -0.097  0.00  0.00    +0.020 A 
BRANCH  16  23
ATOM     22  C   LIG    1        3.553   3.444  -0.552  0.00  0.00    +0.250 C 
ATOM     23  O   LIG    1        2.362   4.222  -0.412  0.00  0.00    -0.290 OA
ENDBRANCH  16  23
BRANCH  20  24
ATOM     24  O   LIG    1       -2.364   4.234   0.217  0.00  0.00    -0.290 OA
ATOM     25  C   LIG    1       -3.553   3.462   0.394  0.00  0.00    +0.250 C 
ENDBRANCH  20  24
BRANCH  21  26
ATOM     26  O   LIG    1       -0.001   5.598  -0.129  0.00  0.00    -0.310 OA
BRANCH  26  27
ATOM     27  C   LIG    1       -0.170   6.218  -1.405  0.00  0.00    +0.570 C 
ATOM     28  F   LIG    1       -1.396   5.828  -1.954  0.00  0.00    -0.200 F 
ATOM     29  F   LIG    1        0.868   5.823  -2.256  0.00  0.00    -0.200 F 
ENDBRANCH  26  27
ENDBRANCH  21  26
ENDBRANCH   1  18
BRANCH   2  30
ATOM     30  C   LIG    1        2.160   0.049   1.103  0.00  0.00    +0.260 C 
ATOM     31  N   LIG    1        3.010   0.622   1.590  0.00  0.00    -0.390 NA
ENDBRANCH   2  30
TORSDOF 8
