REMARK  Name = ZINCnE000004R8Bf.0
REMARK                            x       y       z     vdW  Elec       q    Type
REMARK                         _______ _______ _______ _____ _____    ______ ____
ROOT
ATOM      1  S   LIG    1       -0.085   4.285   0.742  0.00  0.00    +2.690 S 
ATOM      2  O   LIG    1       -1.279   3.618   0.357  0.00  0.00    -0.960 OA
ATOM      3  O   LIG    1        0.143   5.668   0.508  0.00  0.00    -0.960 OA
ENDROOT
BRANCH   1   7
ATOM      4  C   LIG    1        0.350   3.657   5.204  0.00  0.00    -0.020 A 
ATOM      5  C   LIG    1        0.965   4.734   4.595  0.00  0.00    -0.010 A 
ATOM      6  C   LIG    1        0.832   4.926   3.232  0.00  0.00    +0.130 A 
ATOM      7  C   LIG    1        0.085   4.040   2.479  0.00  0.00    -0.670 A 
ATOM      8  C   LIG    1       -0.535   2.966   3.089  0.00  0.00    +0.130 A 
ATOM      9  C   LIG    1       -0.398   2.771   4.451  0.00  0.00    -0.020 A 
BRANCH   4  11
ATOM     10  C   LIG    1       -0.067   4.662   7.432  0.00  0.00    +0.040 C 
ATOM     11  C   LIG    1        0.494   3.448   6.689  0.00  0.00    -0.040 C 
ATOM     12  C   LIG    1        1.973   3.275   7.039  0.00  0.00    +0.040 C 
ATOM     13  C   LIG    1       -0.278   2.194   7.105  0.00  0.00    +0.030 C 
ENDBRANCH   4  11
ENDBRANCH   1   7
BRANCH   1  14
ATOM     14  N   LIG    1        1.160   3.475   0.009  0.00  0.00    -1.020 N 
ATOM     15  H   LIG    1        1.803   3.961  -0.531  0.00  0.00    +0.440 HD
BRANCH  14  16
ATOM     16  C   LIG    1        1.283   2.103   0.168  0.00  0.00    +0.190 A 
ATOM     17  C   LIG    1        0.149   1.303   0.243  0.00  0.00    -0.050 A 
ATOM     18  C   LIG    1        0.274  -0.061   0.401  0.00  0.00    +0.020 A 
ATOM     19  C   LIG    1        1.528  -0.647   0.485  0.00  0.00    -0.040 A 
ATOM     20  C   LIG    1        2.664   0.127   0.413  0.00  0.00    +0.070 A 
ATOM     21  C   LIG    1        2.556   1.512   0.253  0.00  0.00    -0.160 A 
BRANCH  21  22
ATOM     22  C   LIG    1        3.765   2.345   0.175  0.00  0.00    +0.520 C 
ATOM     23  O   LIG    1        3.665   3.557   0.035  0.00  0.00    -0.680 OA
ATOM     24  O   LIG    1        4.871   1.827   0.251  0.00  0.00    -0.680 OA
ENDBRANCH  21  22
ENDBRANCH  14  16
ENDBRANCH   1  14
TORSDOF 5
