REMARK  Name = ZINCvU00000003PU.0
REMARK                            x       y       z     vdW  Elec       q    Type
REMARK                         _______ _______ _______ _____ _____    ______ ____
ROOT
ATOM      1  S   LIG    1       -3.359  -2.412   3.176  0.00  0.00    +0.090 S 
ENDROOT
BRANCH   1   2
ATOM      2  C   LIG    1       -5.055  -2.887   3.225  0.00  0.00    +0.150 A 
ATOM      3  N   LIG    1       -6.068  -2.219   2.723  0.00  0.00    -0.290 NA
ATOM      4  N   LIG    1       -7.162  -2.859   2.938  0.00  0.00    -0.250 NA
ATOM      5  C   LIG    1       -6.916  -3.959   3.591  0.00  0.00    +0.170 A 
ATOM      6  N   LIG    1       -5.566  -4.017   3.797  0.00  0.00    -0.450 N 
ATOM      7  C   LIG    1       -4.821  -5.072   4.489  0.00  0.00    +0.360 C 
BRANCH   5   8
ATOM      8  C   LIG    1       -7.932  -4.979   4.036  0.00  0.00    +0.350 C 
BRANCH   8   9
ATOM      9  O   LIG    1       -8.403  -4.643   5.343  0.00  0.00    -0.310 OA
BRANCH   9  10
ATOM     10  C   LIG    1       -9.332  -5.468   5.895  0.00  0.00    +0.140 A 
ATOM     11  C   LIG    1       -9.784  -6.575   5.191  0.00  0.00    -0.060 A 
ATOM     12  C   LIG    1      -10.724  -7.415   5.756  0.00  0.00    +0.070 A 
ATOM     13  C   LIG    1      -11.222  -7.147   7.019  0.00  0.00    -0.070 A 
ATOM     14  C   LIG    1      -10.776  -6.041   7.720  0.00  0.00    +0.070 A 
ATOM     15 CL   LIG    1      -12.408  -8.200   7.724  0.00  0.00    -0.070 Cl
ATOM     16  C   LIG    1       -9.833  -5.201   7.161  0.00  0.00    +0.010 A 
ENDBRANCH   9  10
ENDBRANCH   8   9
ENDBRANCH   5   8
ENDBRANCH   1   2
BRANCH   1  17
ATOM     17  C   LIG    1       -3.497  -0.848   2.274  0.00  0.00    +0.120 C 
BRANCH  17  29
ATOM     18  C   LIG    1        0.218   1.266  -2.463  0.00  0.00    +0.070 C 
ATOM     19  C   LIG    1       -0.690   1.561  -1.268  0.00  0.00    +0.030 C 
ATOM     20  C   LIG    1       -0.013   1.086   0.008  0.00  0.00    +0.030 C 
ATOM     21  C   LIG    1       -0.659   1.542   1.289  0.00  0.00    +0.300 C 
ATOM     22  N   LIG    1       -1.985   0.933   1.463  0.00  0.00    -0.560 N 
ATOM     23  C   LIG    1       -3.095   1.603   0.940  0.00  0.00    +0.150 A 
ATOM     24  C   LIG    1       -3.953   2.282   1.799  0.00  0.00    +0.010 A 
ATOM     25  C   LIG    1       -5.013   3.003   1.284  0.00  0.00    +0.040 A 
ATOM     26  C   LIG    1       -5.237   3.058  -0.079  0.00  0.00    +0.030 A 
ATOM     27  C   LIG    1       -4.401   2.368  -0.944  0.00  0.00    +0.080 A 
ATOM     28  C   LIG    1       -3.350   1.640  -0.425  0.00  0.00    -0.100 A 
ATOM     29  C   LIG    1       -2.128  -0.242   2.108  0.00  0.00    +0.550 C 
ATOM     30  O   LIG    1       -1.154  -0.810   2.556  0.00  0.00    -0.510 OA
ATOM     31  S   LIG    1       -2.277   0.707  -1.492  0.00  0.00    -0.150 S 
ENDBRANCH  17  29
ENDBRANCH   1  17
TORSDOF 6
