REMARK  Name = ZINCqH0000000pfX.0
REMARK                            x       y       z     vdW  Elec       q    Type
REMARK                         _______ _______ _______ _____ _____    ______ ____
ROOT
ATOM      1  C   LIG    1       -2.518   0.977   0.209  0.00  0.00    +0.570 C 
ATOM      2  N   LIG    1       -2.492  -0.337  -0.089  0.00  0.00    -0.600 N 
ATOM      3  C   LIG    1       -1.219  -1.061  -0.099  0.00  0.00    +0.290 C 
ATOM      4  O   LIG    1       -3.582   1.558   0.305  0.00  0.00    -0.530 OA
ENDROOT
BRANCH   1  12
ATOM      5  C   LIG    1        3.583   2.288   2.132  0.00  0.00    +0.120 C 
ATOM      6  C   LIG    1        3.396   3.641   1.496  0.00  0.00    +0.520 C 
ATOM      7  N   LIG    1        2.227   3.949   0.899  0.00  0.00    -0.550 N 
ATOM      8  C   LIG    1        1.929   5.228   0.249  0.00  0.00    +0.280 C 
ATOM      9  C   LIG    1        0.489   5.090  -0.272  0.00  0.00    +0.110 C 
ATOM     10  C   LIG    1        0.070   3.696   0.137  0.00  0.00    -0.140 A 
ATOM     11  C   LIG    1       -1.112   3.017  -0.057  0.00  0.00    +0.130 A 
ATOM     12  C   LIG    1       -1.255   1.711   0.420  0.00  0.00    -0.160 A 
ATOM     13  C   LIG    1       -0.196   1.107   1.102  0.00  0.00    +0.080 A 
ATOM     14  C   LIG    1        0.981   1.792   1.291  0.00  0.00    -0.020 A 
ATOM     15  C   LIG    1        1.128   3.097   0.810  0.00  0.00    +0.170 A 
ATOM     16  O   LIG    1        4.296   4.453   1.522  0.00  0.00    -0.520 OA
ENDBRANCH   1  12
BRANCH   2  17
ATOM     17  C   LIG    1       -3.738  -1.042  -0.403  0.00  0.00    +0.290 C 
ATOM     18  C   LIG    1       -3.944  -2.172   0.603  0.00  0.00    +0.010 C 
ATOM     19  C   LIG    1       -5.127  -3.027   0.133  0.00  0.00    +0.020 C 
ATOM     20  C   LIG    1       -4.703  -3.788  -1.121  0.00  0.00    +0.080 C 
ATOM     21  C   LIG    1       -4.107  -2.848  -2.135  0.00  0.00    -0.070 A 
ATOM     22  C   LIG    1       -4.012  -3.288  -3.449  0.00  0.00    +0.000 A 
ATOM     23  C   LIG    1       -3.471  -2.475  -4.424  0.00  0.00    +0.010 A 
ATOM     24  C   LIG    1       -3.020  -1.212  -4.091  0.00  0.00    +0.000 A 
ATOM     25  C   LIG    1       -3.115  -0.771  -2.787  0.00  0.00    +0.020 A 
ATOM     26  C   LIG    1       -3.660  -1.587  -1.804  0.00  0.00    -0.090 A 
ENDBRANCH   2  17
TORSDOF 2
