REMARK  Name = ZINCtV00001bB3gI.0
REMARK                            x       y       z     vdW  Elec       q    Type
REMARK                         _______ _______ _______ _____ _____    ______ ____
ROOT
ATOM      1  C   LIG    1        6.019   2.358   0.114  0.00  0.00    -0.100 A 
ATOM      2  C   LIG    1        4.885   1.618  -0.068  0.00  0.00    +0.070 A 
ATOM      3  C   LIG    1        3.628   2.222   0.076  0.00  0.00    -0.120 A 
ATOM      4  C   LIG    1        3.542   3.583   0.401  0.00  0.00    +0.050 A 
ATOM      5  C   LIG    1        4.683   4.311   0.585  0.00  0.00    -0.090 A 
ATOM      6  C   LIG    1        5.928   3.707   0.441  0.00  0.00    +0.150 A 
ENDROOT
BRANCH   1   8
ATOM      7  C   LIG    1        7.193   0.235  -0.400  0.00  0.00    +0.030 C 
ATOM      8  C   LIG    1        7.372   1.712  -0.041  0.00  0.00    -0.020 C 
ATOM      9  C   LIG    1        8.146   1.827   1.274  0.00  0.00    +0.040 C 
ATOM     10  C   LIG    1        8.150   2.417  -1.154  0.00  0.00    +0.040 C 
ENDBRANCH   1   8
BRANCH   5  11
ATOM     11  C   LIG    1        4.594   5.773   0.940  0.00  0.00    -0.020 C 
ATOM     12  C   LIG    1        5.286   6.604  -0.143  0.00  0.00    +0.040 C 
ATOM     13  C   LIG    1        5.280   6.015   2.285  0.00  0.00    +0.050 C 
ATOM     14  C   LIG    1        3.123   6.185   1.036  0.00  0.00    +0.030 C 
ENDBRANCH   5  11
BRANCH   3  15
ATOM     15  C   LIG    1        2.408   1.435  -0.118  0.00  0.00    +0.260 C 
ATOM     16  C   LIG    1        1.279   1.720   0.619  0.00  0.00    -0.140 C 
BRANCH  16  17
ATOM     17  C   LIG    1        0.012   1.036   0.318  0.00  0.00    +0.580 C 
ATOM     18  N   LIG    1       -1.093   1.319   1.035  0.00  0.00    -0.670 N 
ATOM     19  H   LIG    1       -1.036   1.913   1.800  0.00  0.00    +0.410 HD
ATOM     20  O   LIG    1       -0.039   0.217  -0.581  0.00  0.00    -0.510 OA
BRANCH  18  21
ATOM     21  C   LIG    1       -2.323   0.757   0.676  0.00  0.00    +0.170 A 
ATOM     22  C   LIG    1       -2.365  -0.479   0.045  0.00  0.00    +0.040 A 
ATOM     23  C   LIG    1       -3.581  -1.031  -0.309  0.00  0.00    +0.060 A 
ATOM     24  C   LIG    1       -4.755  -0.355  -0.035  0.00  0.00    +0.000 A 
ATOM     25  C   LIG    1       -4.718   0.877   0.594  0.00  0.00    +0.070 A 
ATOM     26  C   LIG    1       -3.505   1.432   0.956  0.00  0.00    -0.120 A 
ATOM     27 BR   LIG    1       -3.454   3.112   1.822  0.00  0.00    -0.040 Br
ENDBRANCH  18  21
ENDBRANCH  16  17
BRANCH  16  28
ATOM     28  C   LIG    1        1.339   2.683   1.677  0.00  0.00    +0.240 C 
ATOM     29  N   LIG    1        1.387   3.447   2.516  0.00  0.00    -0.390 NA
ENDBRANCH  16  28
ENDBRANCH   3  15
BRANCH   6  30
ATOM     30  O   LIG    1        7.058   4.437   0.620  0.00  0.00    -0.480 OA
ATOM     31  H   LIG    1        7.387   4.856  -0.186  0.00  0.00    +0.390 HD
ENDBRANCH   6  30
TORSDOF 7
