REMARK  Name = ZINCtV00000L6klW.0
REMARK                            x       y       z     vdW  Elec       q    Type
REMARK                         _______ _______ _______ _____ _____    ______ ____
ROOT
ATOM      1  C   LIG    1        1.236   1.991   0.001  0.00  0.00    -0.140 A 
ATOM      2  C   LIG    1        1.181   3.269  -0.542  0.00  0.00    +0.170 A 
ATOM      3  C   LIG    1       -0.065   3.733  -1.014  0.00  0.00    -0.150 A 
ATOM      4  C   LIG    1       -1.236   3.013  -0.739  0.00  0.00    +0.170 A 
ATOM      5  O   LIG    1       -1.181   1.895   0.018  0.00  0.00    -0.270 OA
ATOM      6  C   LIG    1       -2.465   3.464  -1.230  0.00  0.00    +0.010 A 
ATOM      7  C   LIG    1       -2.568   4.604  -1.958  0.00  0.00    +0.120 A 
ATOM      8  C   LIG    1       -1.435   5.391  -2.243  0.00  0.00    -0.080 A 
ATOM      9  C   LIG    1       -1.542   6.581  -2.980  0.00  0.00    +0.050 A 
ATOM     10  C   LIG    1       -0.425   7.320  -3.233  0.00  0.00    +0.010 A 
ATOM     11  C   LIG    1        0.823   6.913  -2.772  0.00  0.00    +0.040 A 
ATOM     12  C   LIG    1        0.961   5.760  -2.054  0.00  0.00    +0.010 A 
ATOM     13  C   LIG    1       -0.164   4.979  -1.777  0.00  0.00    +0.000 A 
ATOM     14  C   LIG    1       -0.014   1.213   0.009  0.00  0.00    +0.520 A 
ATOM     15  O   LIG    1        0.002  -0.004   0.002  0.00  0.00    -0.400 OA
ENDROOT
BRANCH   1  19
ATOM     16  C   LIG    1        3.830  -0.074   1.505  0.00  0.00    +0.120 A 
ATOM     17  C   LIG    1        4.779   0.872   1.352  0.00  0.00    -0.060 A 
ATOM     18  S   LIG    1        4.041   2.274   0.580  0.00  0.00    +0.100 S 
ATOM     19  C   LIG    1        2.491   1.438   0.545  0.00  0.00    +0.120 A 
ATOM     20  N   LIG    1        2.627   0.254   1.069  0.00  0.00    -0.410 NA
BRANCH  16  27
ATOM     21  C   LIG    1        3.097  -2.337   2.264  0.00  0.00    +0.170 A 
ATOM     22  C   LIG    1        3.373  -3.567   2.837  0.00  0.00    -0.060 A 
ATOM     23  C   LIG    1        4.653  -3.855   3.276  0.00  0.00    +0.080 A 
ATOM     24  C   LIG    1        5.664  -2.920   3.141  0.00  0.00    -0.080 A 
ATOM     25  C   LIG    1        5.402  -1.691   2.567  0.00  0.00    +0.090 A 
ATOM     26 CL   LIG    1        7.267  -3.292   3.696  0.00  0.00    -0.070 Cl
ATOM     27  C   LIG    1        4.117  -1.392   2.122  0.00  0.00    -0.050 A 
BRANCH  21  29
ATOM     28  C   LIG    1        0.847  -3.066   2.016  0.00  0.00    +0.220 C 
ATOM     29  O   LIG    1        1.838  -2.052   1.838  0.00  0.00    -0.270 OA
ENDBRANCH  21  29
ENDBRANCH  16  27
ENDBRANCH   1  19
TORSDOF 3
