REMARK  Name = ZINCvU00000009Ra.0
REMARK                            x       y       z     vdW  Elec       q    Type
REMARK                         _______ _______ _______ _____ _____    ______ ____
ROOT
ATOM      1  C   LIG    1        1.758   3.554   1.788  0.00  0.00    +0.300 C 
ENDROOT
BRANCH   1   2
ATOM      2  C   LIG    1        1.955   5.047   1.837  0.00  0.00    -0.100 A 
ATOM      3  C   LIG    1        3.174   5.596   1.485  0.00  0.00    +0.020 A 
ATOM      4  C   LIG    1        3.353   6.966   1.526  0.00  0.00    +0.000 A 
ATOM      5  C   LIG    1        2.316   7.787   1.928  0.00  0.00    +0.000 A 
ATOM      6  C   LIG    1        1.099   7.237   2.285  0.00  0.00    +0.000 A 
ATOM      7  C   LIG    1        0.918   5.868   2.240  0.00  0.00    +0.020 A 
ENDBRANCH   1   2
BRANCH   1   9
ATOM      8  C   LIG    1        3.127   2.666   3.598  0.00  0.00    +0.570 C 
ATOM      9  N   LIG    1        2.967   2.886   2.277  0.00  0.00    -0.720 N 
ATOM     10  H   LIG    1        3.651   2.602   1.652  0.00  0.00    +0.400 HD
ATOM     11  O   LIG    1        2.269   3.022   4.382  0.00  0.00    -0.520 OA
BRANCH   8  17
ATOM     12  C   LIG    1        4.511   1.764   5.464  0.00  0.00    +0.210 A 
ATOM     13  C   LIG    1        5.655   1.132   5.917  0.00  0.00    -0.070 A 
ATOM     14  C   LIG    1        6.629   0.729   5.009  0.00  0.00    -0.020 A 
ATOM     15  C   LIG    1        6.455   0.961   3.645  0.00  0.00    -0.050 A 
ATOM     16  C   LIG    1        5.327   1.579   3.188  0.00  0.00    +0.120 A 
ATOM     17  C   LIG    1        4.341   1.994   4.090  0.00  0.00    -0.180 A 
BRANCH  12  19
ATOM     18  C   LIG    1        3.800   1.891   7.727  0.00  0.00    +0.250 C 
ATOM     19  O   LIG    1        3.558   2.159   6.345  0.00  0.00    -0.280 OA
ENDBRANCH  12  19
BRANCH  14  20
ATOM     20  S   LIG    1        8.086  -0.076   5.585  0.00  0.00    -0.100 S 
ATOM     21  C   LIG    1        9.011  -0.389   4.056  0.00  0.00    +0.140 C 
ENDBRANCH  14  20
ENDBRANCH   8  17
ENDBRANCH   1   9
BRANCH   1  22
ATOM     22  C   LIG    1        1.486   3.123   0.345  0.00  0.00    +0.160 C 
BRANCH  22  23
ATOM     23  C   LIG    1        1.160   1.652   0.314  0.00  0.00    +0.280 A 
ATOM     24  N   LIG    1        2.017   0.703   0.076  0.00  0.00    -0.490 NA
ATOM     25  C   LIG    1        1.391  -0.501   0.123  0.00  0.00    +0.050 A 
ATOM     26  C   LIG    1        1.821  -1.819  -0.051  0.00  0.00    +0.070 A 
ATOM     27  C   LIG    1        0.929  -2.847   0.062  0.00  0.00    +0.000 A 
ATOM     28  C   LIG    1       -0.405  -2.598   0.351  0.00  0.00    +0.030 A 
ATOM     29  C   LIG    1       -0.852  -1.306   0.527  0.00  0.00    +0.010 A 
ATOM     30  C   LIG    1        0.040  -0.248   0.415  0.00  0.00    +0.050 A 
ATOM     31  N   LIG    1       -0.075   1.123   0.530  0.00  0.00    -0.490 N 
ATOM     32  C   LIG    1       -1.299   1.870   0.829  0.00  0.00    +0.330 C 
ENDBRANCH  22  23
ENDBRANCH   1  22
TORSDOF 7
