REMARK  Name = ZINCrD000000CxGb.1
REMARK                            x       y       z     vdW  Elec       q    Type
REMARK                         _______ _______ _______ _____ _____    ______ ____
ROOT
ATOM      1  O   LIG    1        8.325  -0.768  -1.048  0.00  0.00    -0.530 OA
ATOM      2  C   LIG    1        7.696  -0.810  -0.008  0.00  0.00    +0.600 C 
ATOM      3  N   LIG    1        6.369  -1.048  -0.032  0.00  0.00    -0.600 N 
ATOM      4  C   LIG    1        5.648  -1.173  -1.308  0.00  0.00    +0.300 C 
ATOM      5  C   LIG    1        4.431  -0.242  -1.273  0.00  0.00    +0.190 C 
ATOM      6  N   LIG    1        3.631  -0.533  -0.075  0.00  0.00    -0.500 N 
ATOM      7  C   LIG    1        4.390  -0.259   1.152  0.00  0.00    +0.180 C 
ATOM      8  C   LIG    1        5.605  -1.190   1.216  0.00  0.00    +0.300 C 
ENDROOT
BRANCH   6   9
ATOM      9  C   LIG    1        2.429   0.181  -0.091  0.00  0.00    +0.050 A 
ATOM     10  C   LIG    1        2.444   1.569  -0.127  0.00  0.00    +0.010 A 
ATOM     11  C   LIG    1        1.254   2.271  -0.142  0.00  0.00    +0.010 A 
ATOM     12  C   LIG    1        0.049   1.595  -0.122  0.00  0.00    +0.040 A 
ATOM     13  C   LIG    1        0.028   0.212  -0.087  0.00  0.00    -0.010 A 
ATOM     14  C   LIG    1        1.214  -0.497  -0.071  0.00  0.00    +0.130 A 
ATOM     15  F   LIG    1        1.195  -1.848  -0.035  0.00  0.00    -0.130 F 
ENDBRANCH   6   9
BRANCH   2  16
ATOM     16  C   LIG    1        8.385  -0.599   1.281  0.00  0.00    -0.000 A 
ATOM     17  N   LIG    1        7.857  -0.740   2.481  0.00  0.00    -0.250 NA
ATOM     18  N   LIG    1        8.730  -0.481   3.388  0.00  0.00    -0.380 N 
ATOM     19  H   LIG    1        8.567  -0.519   4.343  0.00  0.00    +0.450 HD
ATOM     20  C   LIG    1        9.917  -0.143   2.809  0.00  0.00    +0.060 A 
ATOM     21  C   LIG    1        9.732  -0.214   1.456  0.00  0.00    +0.020 A 
BRANCH  20  22
ATOM     22  C   LIG    1       11.168   0.223   3.510  0.00  0.00    -0.040 A 
ATOM     23  C   LIG    1       12.313   0.540   2.779  0.00  0.00    +0.080 A 
ATOM     24  C   LIG    1       13.475   0.887   3.437  0.00  0.00    +0.000 A 
ATOM     25  C   LIG    1       13.509   0.908   4.822  0.00  0.00    +0.110 A 
ATOM     26  C   LIG    1       12.376   0.589   5.553  0.00  0.00    -0.010 A 
ATOM     27  F   LIG    1       14.651   1.243   5.462  0.00  0.00    -0.130 F 
ATOM     28  C   LIG    1       11.208   0.246   4.904  0.00  0.00    +0.050 A 
ENDBRANCH  20  22
ENDBRANCH   2  16
TORSDOF 3
