REMARK  Name = ZINCrD000000CxGb.0
REMARK                            x       y       z     vdW  Elec       q    Type
REMARK                         _______ _______ _______ _____ _____    ______ ____
ROOT
ATOM      1  O   LIG    1        4.217   1.537  -0.154  0.00  0.00    -0.510 OA
ATOM      2  C   LIG    1        3.555   0.525  -0.029  0.00  0.00    +0.600 C 
ATOM      3  N   LIG    1        4.165  -0.673   0.060  0.00  0.00    -0.610 N 
ATOM      4  C   LIG    1        3.384  -1.920   0.070  0.00  0.00    +0.270 C 
ATOM      5  C   LIG    1        3.968  -2.862  -0.995  0.00  0.00    +0.210 C 
ATOM      6  N   LIG    1        5.408  -3.030  -0.757  0.00  0.00    -0.480 N 
ATOM      7  C   LIG    1        6.125  -1.757  -0.905  0.00  0.00    +0.190 C 
ATOM      8  C   LIG    1        5.630  -0.769   0.157  0.00  0.00    +0.310 C 
ENDROOT
BRANCH   6   9
ATOM      9  C   LIG    1        5.944  -4.008  -1.600  0.00  0.00    +0.080 A 
ATOM     10  C   LIG    1        7.276  -4.379  -1.476  0.00  0.00    +0.030 A 
ATOM     11  C   LIG    1        7.802  -5.351  -2.306  0.00  0.00    +0.030 A 
ATOM     12  C   LIG    1        7.007  -5.946  -3.268  0.00  0.00    +0.020 A 
ATOM     13  C   LIG    1        5.681  -5.575  -3.400  0.00  0.00    +0.010 A 
ATOM     14  C   LIG    1        5.146  -4.609  -2.568  0.00  0.00    +0.050 A 
ATOM     15  F   LIG    1        3.850  -4.247  -2.696  0.00  0.00    -0.140 F 
ENDBRANCH   6   9
BRANCH   2  16
ATOM     16  C   LIG    1        2.086   0.608   0.024  0.00  0.00    -0.030 A 
ATOM     17  C   LIG    1        1.298   1.633  -0.463  0.00  0.00    +0.040 A 
ATOM     18  C   LIG    1       -0.026   1.252  -0.175  0.00  0.00    +0.070 A 
ATOM     19  N   LIG    1        0.020   0.087   0.434  0.00  0.00    -0.250 NA
ATOM     20  N   LIG    1        1.234  -0.313   0.564  0.00  0.00    -0.380 N 
ATOM     21  H   LIG    1        1.505  -1.145   0.983  0.00  0.00    +0.450 HD
BRANCH  18  22
ATOM     22  C   LIG    1       -1.251   2.022  -0.505  0.00  0.00    -0.020 A 
ATOM     23  C   LIG    1       -1.151   3.252  -1.151  0.00  0.00    +0.070 A 
ATOM     24  C   LIG    1       -2.293   3.963  -1.460  0.00  0.00    -0.010 A 
ATOM     25  C   LIG    1       -3.538   3.459  -1.119  0.00  0.00    +0.100 A 
ATOM     26  C   LIG    1       -3.642   2.238  -0.472  0.00  0.00    -0.010 A 
ATOM     27  F   LIG    1       -4.653   4.160  -1.418  0.00  0.00    -0.140 F 
ATOM     28  C   LIG    1       -2.505   1.519  -0.164  0.00  0.00    +0.080 A 
ENDBRANCH  18  22
ENDBRANCH   2  16
TORSDOF 3
