REMARK  Name = ZINCqH0000050s24.0
REMARK                            x       y       z     vdW  Elec       q    Type
REMARK                         _______ _______ _______ _____ _____    ______ ____
ROOT
ATOM      1  N   LIG    1        4.347  -1.064  -1.626  0.00  0.00    -1.040 NA
ATOM      2  C   LIG    1        4.118  -2.106  -2.638  0.00  0.00    +0.310 C 
ATOM      3  C   LIG    1        5.423  -1.667  -3.311  0.00  0.00    -0.010 C 
ATOM      4  C   LIG    1        5.109  -0.322  -2.642  0.00  0.00    +0.310 C 
ENDROOT
BRANCH   1   5
ATOM      5  S   LIG    1        3.934  -0.832  -0.039  0.00  0.00    +2.720 S 
ATOM      6  O   LIG    1        3.679  -2.121   0.502  0.00  0.00    -0.950 OA
ATOM      7  O   LIG    1        4.899   0.061   0.500  0.00  0.00    -0.950 OA
BRANCH   5  12
ATOM      8  C   LIG    1       -1.332   2.114   0.020  0.00  0.00    +0.090 C 
ATOM      9  C   LIG    1       -0.017   1.378   0.010  0.00  0.00    -0.030 A 
ATOM     10  C   LIG    1        1.171   2.086   0.002  0.00  0.00    -0.010 A 
ATOM     11  C   LIG    1        2.377   1.411  -0.015  0.00  0.00    +0.120 A 
ATOM     12  C   LIG    1        2.396   0.029  -0.021  0.00  0.00    -0.690 A 
ATOM     13  C   LIG    1        1.208  -0.679  -0.013  0.00  0.00    +0.120 A 
ATOM     14  C   LIG    1        0.002  -0.004   0.002  0.00  0.00    -0.010 A 
ENDBRANCH   5  12
ENDBRANCH   1   5
BRANCH   3  15
ATOM     15  C   LIG    1        5.365  -1.636  -4.839  0.00  0.00    +0.100 C 
BRANCH  15  16
ATOM     16  C   LIG    1        5.807  -2.969  -5.386  0.00  0.00    -0.050 A 
ATOM     17  C   LIG    1        7.141  -3.187  -5.677  0.00  0.00    +0.000 A 
ATOM     18  C   LIG    1        7.551  -4.411  -6.175  0.00  0.00    +0.060 A 
ATOM     19  C   LIG    1        6.627  -5.414  -6.391  0.00  0.00    -0.060 A 
ATOM     20  C   LIG    1        5.287  -5.196  -6.105  0.00  0.00    +0.110 A 
ATOM     21  C   LIG    1        4.879  -3.969  -5.601  0.00  0.00    +0.020 A 
BRANCH  20  22
ATOM     22  O   LIG    1        4.376  -6.181  -6.318  0.00  0.00    -0.310 OA
BRANCH  22  23
ATOM     23  C   LIG    1        4.868  -7.418  -6.838  0.00  0.00    +0.600 C 
ATOM     24  F   LIG    1        5.475  -7.194  -8.078  0.00  0.00    -0.160 F 
ATOM     25  F   LIG    1        3.804  -8.313  -6.995  0.00  0.00    -0.130 F 
ATOM     26  F   LIG    1        5.805  -7.958  -5.951  0.00  0.00    -0.160 F 
ENDBRANCH  22  23
ENDBRANCH  20  22
ENDBRANCH  15  16
ENDBRANCH   3  15
TORSDOF 6
