REMARK  Name = ZINCvU0000000FPp.1
REMARK                            x       y       z     vdW  Elec       q    Type
REMARK                         _______ _______ _______ _____ _____    ______ ____
ROOT
ATOM      1  C   LIG    1        7.318  -2.759  -2.685  0.00  0.00    +0.330 C 
ENDROOT
BRANCH   1   2
ATOM      2  C   LIG    1        7.975  -2.555  -4.025  0.00  0.00    -0.070 A 
ATOM      3  C   LIG    1        7.211  -2.604  -5.182  0.00  0.00    +0.010 A 
ATOM      4  C   LIG    1        7.789  -2.422  -6.407  0.00  0.00    +0.070 A 
ATOM      5  C   LIG    1        9.162  -2.183  -6.501  0.00  0.00    +0.050 A 
ATOM      6  N   LIG    1       10.006  -1.969  -7.542  0.00  0.00    -0.500 NA
ATOM      7  C   LIG    1       11.216  -1.795  -7.096  0.00  0.00    +0.490 A 
ATOM      8  N   LIG    1       11.232  -1.886  -5.739  0.00  0.00    -0.600 N 
ATOM      9  H   LIG    1       12.008  -1.795  -5.165  0.00  0.00    +0.430 HD
ATOM     10  C   LIG    1        9.937  -2.133  -5.329  0.00  0.00    +0.050 A 
ATOM     11  C   LIG    1        9.332  -2.315  -4.093  0.00  0.00    +0.040 A 
ENDBRANCH   1   2
BRANCH   1  12
ATOM     12  C   LIG    1        7.113  -4.232  -2.444  0.00  0.00    -0.090 A 
ATOM     13  C   LIG    1        6.042  -4.885  -3.025  0.00  0.00    +0.020 A 
ATOM     14  C   LIG    1        5.856  -6.238  -2.808  0.00  0.00    +0.000 A 
ATOM     15  C   LIG    1        6.737  -6.936  -2.003  0.00  0.00    +0.000 A 
ATOM     16  C   LIG    1        7.806  -6.282  -1.419  0.00  0.00    +0.000 A 
ATOM     17  C   LIG    1        7.994  -4.930  -1.639  0.00  0.00    +0.020 A 
ENDBRANCH   1  12
BRANCH   1  20
ATOM     18  O   LIG    1        6.073  -1.887  -0.458  0.00  0.00    -0.530 OA
ATOM     19  C   LIG    1        5.484  -1.679  -1.498  0.00  0.00    +0.520 C 
ATOM     20  N   LIG    1        6.021  -2.077  -2.668  0.00  0.00    -0.720 N 
ATOM     21  H   LIG    1        5.550  -1.911  -3.499  0.00  0.00    +0.400 HD
BRANCH  19  22
ATOM     22  C   LIG    1        4.150  -0.978  -1.481  0.00  0.00    +0.060 C 
BRANCH  22  23
ATOM     23  C   LIG    1        3.771  -0.637  -0.038  0.00  0.00    +0.090 C 
BRANCH  23  24
ATOM     24  C   LIG    1        2.438   0.065  -0.021  0.00  0.00    -0.070 A 
ATOM     25  C   LIG    1        2.380   1.424  -0.013  0.00  0.00    +0.010 A 
ATOM     26  C   LIG    1        1.156   2.091   0.002  0.00  0.00    +0.010 A 
ATOM     27  C   LIG    1       -0.017   1.401   0.010  0.00  0.00    +0.020 A 
ATOM     28  C   LIG    1        0.002  -0.004   0.002  0.00  0.00    -0.050 A 
ATOM     29  C   LIG    1       -1.188  -0.750   0.010  0.00  0.00    +0.020 A 
ATOM     30  C   LIG    1       -1.131  -2.110   0.003  0.00  0.00    +0.000 A 
ATOM     31  C   LIG    1        0.093  -2.776  -0.013  0.00  0.00    +0.000 A 
ATOM     32  C   LIG    1        1.266  -2.087  -0.021  0.00  0.00    +0.020 A 
ATOM     33  C   LIG    1        1.247  -0.682  -0.013  0.00  0.00    -0.050 A 
ENDBRANCH  23  24
ENDBRANCH  22  23
ENDBRANCH  19  22
ENDBRANCH   1  20
TORSDOF 6
