REMARK  Name = ZINCvU0000000FPp.0
REMARK                            x       y       z     vdW  Elec       q    Type
REMARK                         _______ _______ _______ _____ _____    ______ ____
ROOT
ATOM      1  C   LIG    1       -1.844   4.655   0.046  0.00  0.00    +0.340 C 
ENDROOT
BRANCH   1   2
ATOM      2  C   LIG    1       -0.735   3.635   0.029  0.00  0.00    -0.100 A 
ATOM      3  C   LIG    1        0.587   4.057   0.019  0.00  0.00    +0.040 A 
ATOM      4  C   LIG    1        1.614   3.138   0.004  0.00  0.00    +0.030 A 
ATOM      5  C   LIG    1        1.323   1.781  -0.001  0.00  0.00    +0.050 A 
ATOM      6  N   LIG    1        2.089   0.633  -0.015  0.00  0.00    -0.600 N 
ATOM      7  H   LIG    1        3.058   0.588  -0.024  0.00  0.00    +0.430 HD
ATOM      8  C   LIG    1        1.233  -0.425  -0.012  0.00  0.00    +0.490 A 
ATOM      9  N   LIG    1        0.002  -0.004   0.002  0.00  0.00    -0.490 NA
ATOM     10  C   LIG    1       -0.016   1.354   0.009  0.00  0.00    +0.050 A 
ATOM     11  C   LIG    1       -1.041   2.303   0.029  0.00  0.00    +0.090 A 
ENDBRANCH   1   2
BRANCH   1  12
ATOM     12  C   LIG    1       -2.060   5.185  -1.348  0.00  0.00    -0.090 A 
ATOM     13  C   LIG    1       -1.223   6.162  -1.854  0.00  0.00    +0.020 A 
ATOM     14  C   LIG    1       -1.419   6.644  -3.135  0.00  0.00    +0.000 A 
ATOM     15  C   LIG    1       -2.457   6.157  -3.906  0.00  0.00    +0.000 A 
ATOM     16  C   LIG    1       -3.297   5.183  -3.398  0.00  0.00    +0.000 A 
ATOM     17  C   LIG    1       -3.099   4.698  -2.119  0.00  0.00    +0.020 A 
ENDBRANCH   1  12
BRANCH   1  20
ATOM     18  O   LIG    1       -3.609   6.270   1.288  0.00  0.00    -0.530 OA
ATOM     19  C   LIG    1       -2.441   6.509   1.510  0.00  0.00    +0.520 C 
ATOM     20  N   LIG    1       -1.478   5.759   0.936  0.00  0.00    -0.730 N 
ATOM     21  H   LIG    1       -0.544   5.951   1.114  0.00  0.00    +0.400 HD
BRANCH  19  22
ATOM     22  C   LIG    1       -2.064   7.645   2.426  0.00  0.00    +0.060 C 
BRANCH  22  23
ATOM     23  C   LIG    1       -3.334   8.329   2.938  0.00  0.00    +0.090 C 
BRANCH  23  24
ATOM     24  C   LIG    1       -2.958   9.465   3.854  0.00  0.00    -0.070 A 
ATOM     25  C   LIG    1       -2.916   9.272   5.201  0.00  0.00    +0.010 A 
ATOM     26  C   LIG    1       -2.565  10.309   6.064  0.00  0.00    +0.010 A 
ATOM     27  C   LIG    1       -2.265  11.548   5.585  0.00  0.00    +0.020 A 
ATOM     28  C   LIG    1       -2.303  11.786   4.201  0.00  0.00    -0.050 A 
ATOM     29  C   LIG    1       -1.999  13.051   3.670  0.00  0.00    +0.020 A 
ATOM     30  C   LIG    1       -2.046  13.245   2.323  0.00  0.00    +0.000 A 
ATOM     31  C   LIG    1       -2.392  12.207   1.460  0.00  0.00    +0.000 A 
ATOM     32  C   LIG    1       -2.692  10.969   1.939  0.00  0.00    +0.020 A 
ATOM     33  C   LIG    1       -2.655  10.730   3.323  0.00  0.00    -0.050 A 
ENDBRANCH  23  24
ENDBRANCH  22  23
ENDBRANCH  19  22
ENDBRANCH   1  20
TORSDOF 6
