REMARK  Name = ZINCrH000004puFQ.1
REMARK                            x       y       z     vdW  Elec       q    Type
REMARK                         _______ _______ _______ _____ _____    ______ ____
ROOT
ATOM      1  C   LIG    1        2.423  -0.122   1.382  0.00  0.00    +0.030 C 
ATOM      2  C   LIG    1        2.442   0.655   0.065  0.00  0.00    +0.180 C 
ENDROOT
BRANCH   2   3
ATOM      3  C   LIG    1        1.215   1.525  -0.023  0.00  0.00    +0.520 C 
ATOM      4  N   LIG    1       -0.011   0.966   0.007  0.00  0.00    -0.670 N 
ATOM      5  H   LIG    1       -0.103   0.000   0.021  0.00  0.00    +0.410 HD
ATOM      6  O   LIG    1        1.330   2.729  -0.121  0.00  0.00    -0.500 OA
BRANCH   4   7
ATOM      7  C   LIG    1       -1.152   1.779   0.014  0.00  0.00    +0.140 A 
ATOM      8  C   LIG    1       -1.157   2.976  -0.687  0.00  0.00    +0.060 A 
ATOM      9  C   LIG    1       -2.284   3.776  -0.679  0.00  0.00    +0.010 A 
ATOM     10  C   LIG    1       -3.408   3.387   0.026  0.00  0.00    +0.030 A 
ATOM     11  C   LIG    1       -3.410   2.195   0.727  0.00  0.00    -0.030 A 
ATOM     12  C   LIG    1       -2.287   1.385   0.720  0.00  0.00    +0.080 A 
BRANCH  12  13
ATOM     13  O   LIG    1       -2.290   0.210   1.405  0.00  0.00    -0.320 OA
BRANCH  13  14
ATOM     14  C   LIG    1       -3.488  -0.130   2.106  0.00  0.00    +0.590 C 
ATOM     15  F   LIG    1       -4.549  -0.221   1.198  0.00  0.00    -0.200 F 
ATOM     16  F   LIG    1       -3.769   0.859   3.055  0.00  0.00    -0.200 F 
ENDBRANCH  13  14
ENDBRANCH  12  13
ENDBRANCH   4   7
ENDBRANCH   2   3
BRANCH   2  17
ATOM     17  N   LIG    1        3.644   1.498   0.011  0.00  0.00    -0.660 NA
ATOM     18  H   LIG    1        3.844   1.901   0.914  0.00  0.00    +0.350 HD
BRANCH  17  19
ATOM     19  C   LIG    1        4.797   0.739  -0.493  0.00  0.00    +0.180 C 
ATOM     20  C   LIG    1        4.793   0.761  -2.023  0.00  0.00    +0.050 C 
BRANCH  19  21
ATOM     21  C   LIG    1        6.071   1.364   0.015  0.00  0.00    -0.060 A 
ATOM     22  C   LIG    1        6.194   2.740   0.063  0.00  0.00    +0.020 A 
ATOM     23  C   LIG    1        7.361   3.313   0.533  0.00  0.00    +0.100 A 
ATOM     24  C   LIG    1        8.408   2.510   0.946  0.00  0.00    -0.460 A 
ATOM     25  C   LIG    1        8.287   1.134   0.892  0.00  0.00    +0.080 A 
ATOM     26  C   LIG    1        7.118   0.561   0.426  0.00  0.00    -0.010 A 
BRANCH  24  27
ATOM     27  S   LIG    1        9.898   3.241   1.539  0.00  0.00    +1.330 S 
ATOM     28  O   LIG    1       10.451   2.219   2.357  0.00  0.00    -0.860 OA
ATOM     29  C   LIG    1       10.894   3.416   0.033  0.00  0.00    -0.200 C 
ENDBRANCH  24  27
ENDBRANCH  19  21
ENDBRANCH  17  19
ENDBRANCH   2  17
TORSDOF 8
