REMARK  Name = ZINCqH0000003KiR.0
REMARK                            x       y       z     vdW  Elec       q    Type
REMARK                         _______ _______ _______ _____ _____    ______ ____
ROOT
ATOM      1  N   LIG    1       -0.840   4.194   3.085  0.00  0.00    -0.720 N 
ATOM      2  H   LIG    1       -1.708   4.624   3.127  0.00  0.00    +0.400 HD
ATOM      3  C   LIG    1       -0.550   3.356   2.071  0.00  0.00    +0.560 C 
ATOM      4  O   LIG    1        0.539   2.817   2.019  0.00  0.00    -0.530 OA
ENDROOT
BRANCH   3   5
ATOM      5  C   LIG    1       -1.555   3.091   1.022  0.00  0.00    -0.130 A 
ATOM      6  C   LIG    1       -2.752   3.806   1.001  0.00  0.00    +0.050 A 
ATOM      7  C   LIG    1       -3.688   3.555   0.019  0.00  0.00    +0.010 A 
ATOM      8  C   LIG    1       -3.448   2.594  -0.949  0.00  0.00    +0.040 A 
ATOM      9  C   LIG    1       -2.266   1.880  -0.947  0.00  0.00    +0.020 A 
ATOM     10  C   LIG    1       -1.312   2.115   0.038  0.00  0.00    +0.010 A 
BRANCH  10  11
ATOM     11  C   LIG    1       -0.044   1.347   0.048  0.00  0.00    -0.150 A 
ATOM     12  C   LIG    1        0.812   1.361  -1.057  0.00  0.00    +0.320 A 
ATOM     13  N   LIG    1        1.930   0.657  -1.008  0.00  0.00    -0.520 NA
ATOM     14  C   LIG    1        2.240  -0.050   0.061  0.00  0.00    +0.490 A 
ATOM     15  N   LIG    1        1.462  -0.090   1.124  0.00  0.00    -0.520 NA
ATOM     16  C   LIG    1        0.325   0.585   1.160  0.00  0.00    +0.370 A 
ENDBRANCH  10  11
ENDBRANCH   3   5
BRANCH   1  17
ATOM     17  C   LIG    1        0.158   4.457   4.126  0.00  0.00    +0.330 C 
BRANCH  17  21
ATOM     18  C   LIG    1       -1.455   7.190   6.988  0.00  0.00    +0.140 A 
ATOM     19  C   LIG    1       -0.767   7.668   5.882  0.00  0.00    -0.080 A 
ATOM     20  C   LIG    1       -0.242   6.782   4.961  0.00  0.00    +0.070 A 
ATOM     21  C   LIG    1       -0.411   5.420   5.135  0.00  0.00    -0.150 A 
ATOM     22  C   LIG    1       -1.096   4.942   6.237  0.00  0.00    +0.070 A 
ATOM     23  C   LIG    1       -1.618   5.823   7.163  0.00  0.00    -0.120 A 
ATOM     24  C   LIG    1       -2.364   5.301   8.364  0.00  0.00    +0.100 C 
BRANCH  18  25
ATOM     25  O   LIG    1       -1.967   8.059   7.899  0.00  0.00    -0.310 OA
BRANCH  25  27
ATOM     26  C   LIG    1       -2.403  10.268   8.777  0.00  0.00    +0.070 C 
ATOM     27  C   LIG    1       -1.761   9.451   7.654  0.00  0.00    +0.170 C 
ENDBRANCH  25  27
ENDBRANCH  18  25
ENDBRANCH  17  21
ENDBRANCH   1  17
TORSDOF 6
