REMARK  Name = ZINCpe00000MCsSR.0
REMARK                            x       y       z     vdW  Elec       q    Type
REMARK                         _______ _______ _______ _____ _____    ______ ____
ROOT
ATOM      1  C   LIG    1        1.070   6.285   2.653  0.00  0.00    +0.500 C 
ATOM      2  N   LIG    1        1.070   5.622   1.479  0.00  0.00    -0.730 N 
ATOM      3  H   LIG    1        1.049   6.115   0.644  0.00  0.00    +0.400 HD
ATOM      4  O   LIG    1        1.095   5.668   3.697  0.00  0.00    -0.520 OA
ENDROOT
BRANCH   1   5
ATOM      5  C   LIG    1        1.038   7.791   2.668  0.00  0.00    +0.370 C 
BRANCH   5   9
ATOM      6  C   LIG    1       -0.562   9.283   7.132  0.00  0.00    +0.340 C 
ATOM      7  N   LIG    1        0.336   8.927   6.031  0.00  0.00    -0.540 N 
ATOM      8  C   LIG    1       -0.044   8.504   4.810  0.00  0.00    +0.690 A 
ATOM      9  N   LIG    1        1.044   8.266   4.054  0.00  0.00    -0.530 N 
ATOM     10  C   LIG    1        2.177   8.554   4.811  0.00  0.00    +0.100 A 
ATOM     11  C   LIG    1        3.537   8.498   4.549  0.00  0.00    +0.030 A 
ATOM     12  C   LIG    1        4.442   8.857   5.529  0.00  0.00    +0.020 A 
ATOM     13  C   LIG    1        3.997   9.272   6.772  0.00  0.00    +0.020 A 
ATOM     14  C   LIG    1        2.643   9.332   7.043  0.00  0.00    +0.030 A 
ATOM     15  O   LIG    1       -1.196   8.356   4.447  0.00  0.00    -0.550 OA
ATOM     16  C   LIG    1        1.728   8.973   6.066  0.00  0.00    +0.090 A 
ENDBRANCH   5   9
ENDBRANCH   1   5
BRANCH   2  17
ATOM     17  C   LIG    1        1.101   4.157   1.465  0.00  0.00    +0.250 C 
BRANCH  17  18
ATOM     18  C   LIG    1        1.094   3.662   0.018  0.00  0.00    +0.280 C 
BRANCH  18  19
ATOM     19  N   LIG    1        1.125   2.197   0.003  0.00  0.00    -0.610 N 
ATOM     20  C   LIG    1        2.417   1.493  -0.019  0.00  0.00    +0.280 C 
ATOM     21  C   LIG    1        2.649   0.851   1.350  0.00  0.00    +0.010 C 
ATOM     22  C   LIG    1        2.006  -0.521   1.420  0.00  0.00    +0.020 C 
ATOM     23  C   LIG    1        0.489  -0.491   1.369  0.00  0.00    +0.040 C 
ATOM     24  C   LIG    1        0.002  -0.004   0.002  0.00  0.00    +0.050 C 
ATOM     25  C   LIG    1       -0.018   1.510   0.010  0.00  0.00    +0.520 C 
ATOM     26  O   LIG    1       -1.078   2.100   0.019  0.00  0.00    -0.540 OA
ENDBRANCH  18  19
ENDBRANCH  17  18
ENDBRANCH   2  17
TORSDOF 5
