REMARK  Name = ZINCrD000000Dama.0
REMARK                            x       y       z     vdW  Elec       q    Type
REMARK                         _______ _______ _______ _____ _____    ______ ____
ROOT
ATOM      1  S   LIG    1       -2.978   5.221   0.055  0.00  0.00    +2.690 S 
ATOM      2  O   LIG    1       -1.866   5.923   0.592  0.00  0.00    -0.910 OA
ATOM      3  O   LIG    1       -4.284   5.291   0.611  0.00  0.00    -0.910 OA
ENDROOT
BRANCH   1  11
ATOM      4  C   LIG    1        1.176   1.782   0.000  0.00  0.00    -0.070 A 
ATOM      5  C   LIG    1        1.155   3.164   0.008  0.00  0.00    +0.140 A 
ATOM      6  C   LIG    1       -0.046   3.840   0.022  0.00  0.00    +0.020 A 
ATOM      7  C   LIG    1       -1.251   3.135   0.029  0.00  0.00    +0.210 A 
ATOM      8  C   LIG    1       -1.219   1.748   0.017  0.00  0.00    -0.130 A 
ATOM      9  C   LIG    1       -2.641   1.235   0.033  0.00  0.00    +0.130 C 
ATOM     10  C   LIG    1       -3.510   2.503   0.047  0.00  0.00    +0.300 C 
ATOM     11  N   LIG    1       -2.560   3.619   0.044  0.00  0.00    -0.930 N 
ATOM     12  C   LIG    1       -0.013   1.076   0.008  0.00  0.00    +0.150 A 
BRANCH   4  14
ATOM     13  O   LIG    1        2.485  -0.158  -0.021  0.00  0.00    -0.160 OA
ATOM     14  N   LIG    1        2.468   1.060  -0.015  0.00  0.00    +0.030 N 
ATOM     15  O   LIG    1        3.514   1.683  -0.021  0.00  0.00    -0.160 OA
ENDBRANCH   4  14
ENDBRANCH   1  11
BRANCH   1  16
ATOM     16  C   LIG    1       -3.125   5.733  -1.625  0.00  0.00    -0.740 A 
ATOM     17  C   LIG    1       -4.341   5.632  -2.276  0.00  0.00    +0.230 A 
ATOM     18  C   LIG    1       -4.456   6.035  -3.596  0.00  0.00    -0.030 A 
ATOM     19  C   LIG    1       -3.356   6.538  -4.265  0.00  0.00    +0.170 A 
ATOM     20  C   LIG    1       -2.140   6.641  -3.618  0.00  0.00    -0.070 A 
ATOM     21  F   LIG    1       -5.418   5.141  -1.624  0.00  0.00    -0.100 F 
ATOM     22  C   LIG    1       -2.022   6.244  -2.294  0.00  0.00    +0.240 A 
BRANCH  22  23
ATOM     23  O   LIG    1       -0.828   6.350  -1.655  0.00  0.00    -0.300 OA
BRANCH  23  24
ATOM     24  C   LIG    1        0.264   6.885  -2.405  0.00  0.00    +0.610 C 
ATOM     25  F   LIG    1        0.505   6.074  -3.520  0.00  0.00    -0.160 F 
ATOM     26  F   LIG    1        1.408   6.924  -1.601  0.00  0.00    -0.120 F 
ATOM     27  F   LIG    1       -0.051   8.180  -2.830  0.00  0.00    -0.160 F 
ENDBRANCH  23  24
ENDBRANCH  22  23
ENDBRANCH   1  16
TORSDOF 5
