REMARK  Name = ZINCpk00000FbLGT.0
REMARK                            x       y       z     vdW  Elec       q    Type
REMARK                         _______ _______ _______ _____ _____    ______ ____
ROOT
ATOM      1  C   LIG    1       -6.871   1.321   4.360  0.00  0.00    +0.270 C 
ATOM      2  C   LIG    1       -6.421   1.488   2.906  0.00  0.00    +0.180 C 
ATOM      3  N   LIG    1       -4.953   1.536   2.855  0.00  0.00    -0.530 NA
ATOM      4  C   LIG    1       -4.438   2.644   3.673  0.00  0.00    +0.150 C 
ATOM      5  C   LIG    1       -4.908   2.465   5.119  0.00  0.00    +0.240 C 
ATOM      6  O   LIG    1       -6.336   2.390   5.145  0.00  0.00    -0.370 OA
ENDROOT
BRANCH   1  11
ATOM      7  C   LIG    1      -11.700   0.138   5.256  0.00  0.00    +0.200 C 
ATOM      8  C   LIG    1      -10.445   0.845   4.812  0.00  0.00    +0.190 A 
ATOM      9  N   LIG    1      -10.381   1.994   4.198  0.00  0.00    -0.290 NA
ATOM     10  N   LIG    1       -9.152   2.296   3.970  0.00  0.00    -0.260 NA
ATOM     11  C   LIG    1       -8.376   1.352   4.428  0.00  0.00    +0.170 A 
ATOM     12  N   LIG    1       -9.175   0.402   4.971  0.00  0.00    -0.570 N 
ATOM     13  H   LIG    1       -8.894  -0.427   5.391  0.00  0.00    +0.430 HD
ENDBRANCH   1  11
BRANCH   3  14
ATOM     14  C   LIG    1       -4.477   1.639   1.469  0.00  0.00    +0.190 C 
BRANCH  14  15
ATOM     15  C   LIG    1       -2.976   1.935   1.466  0.00  0.00    +0.020 C 
BRANCH  15  16
ATOM     16  C   LIG    1       -2.481   2.042   0.022  0.00  0.00    +0.330 C 
BRANCH  16  17
ATOM     17  N   LIG    1       -1.043   2.325   0.019  0.00  0.00    -0.550 N 
ATOM     18  C   LIG    1       -0.472   3.546   0.026  0.00  0.00    +0.630 A 
ATOM     19  O   LIG    1        0.864   3.414   0.012  0.00  0.00    -0.240 OA
ATOM     20  C   LIG    1        1.181   2.096   0.002  0.00  0.00    +0.030 A 
ATOM     21  C   LIG    1        2.388   1.415  -0.014  0.00  0.00    +0.060 A 
ATOM     22  C   LIG    1        2.399   0.033  -0.021  0.00  0.00    +0.030 A 
ATOM     23  C   LIG    1        1.210  -0.675  -0.013  0.00  0.00    +0.040 A 
ATOM     24  C   LIG    1        0.002  -0.004   0.002  0.00  0.00    +0.040 A 
ATOM     25  O   LIG    1       -1.073   4.603   0.038  0.00  0.00    -0.480 OA
ATOM     26  C   LIG    1       -0.017   1.381   0.010  0.00  0.00    +0.070 A 
ENDBRANCH  16  17
ENDBRANCH  15  16
ENDBRANCH  14  15
ENDBRANCH   3  14
TORSDOF 5
