REMARK  Name = ZINCpk00000FbLGT.1
REMARK                            x       y       z     vdW  Elec       q    Type
REMARK                         _______ _______ _______ _____ _____    ______ ____
ROOT
ATOM      1  C   LIG    1       -6.906  -0.135  -4.262  0.00  0.00    +0.290 C 
ATOM      2  C   LIG    1       -6.433  -0.288  -2.813  0.00  0.00    +0.170 C 
ATOM      3  N   LIG    1       -4.963  -0.295  -2.781  0.00  0.00    -0.530 NA
ATOM      4  C   LIG    1       -4.429  -1.390  -3.604  0.00  0.00    +0.150 C 
ATOM      5  C   LIG    1       -4.922  -1.225  -5.044  0.00  0.00    +0.250 C 
ATOM      6  O   LIG    1       -6.351  -1.189  -5.053  0.00  0.00    -0.370 OA
ENDROOT
BRANCH   1  10
ATOM      7  C   LIG    1      -11.691   1.289  -4.647  0.00  0.00    +0.200 C 
ATOM      8  C   LIG    1      -10.472   0.420  -4.478  0.00  0.00    +0.290 A 
ATOM      9  N   LIG    1       -9.229   0.831  -4.481  0.00  0.00    -0.530 NA
ATOM     10  C   LIG    1       -8.410  -0.206  -4.311  0.00  0.00    +0.230 A 
ATOM     11  N   LIG    1       -9.123  -1.294  -4.186  0.00  0.00    -0.290 NA
ATOM     12  N   LIG    1      -10.470  -0.911  -4.292  0.00  0.00    -0.480 N 
ATOM     13  H   LIG    1      -11.246  -1.492  -4.241  0.00  0.00    +0.440 HD
ENDBRANCH   1  10
BRANCH   3  14
ATOM     14  C   LIG    1       -4.468  -0.384  -1.401  0.00  0.00    +0.190 C 
BRANCH  14  15
ATOM     15  C   LIG    1       -2.959  -0.639  -1.416  0.00  0.00    +0.020 C 
BRANCH  15  16
ATOM     16  C   LIG    1       -2.443  -0.731   0.021  0.00  0.00    +0.330 C 
BRANCH  16  17
ATOM     17  N   LIG    1       -0.999  -0.976   0.006  0.00  0.00    -0.550 N 
ATOM     18  C   LIG    1       -0.394  -2.180  -0.006  0.00  0.00    +0.630 A 
ATOM     19  O   LIG    1        0.938  -2.012  -0.018  0.00  0.00    -0.240 OA
ATOM     20  C   LIG    1        1.219  -0.686  -0.013  0.00  0.00    +0.030 A 
ATOM     21  C   LIG    1        2.407   0.028  -0.020  0.00  0.00    +0.060 A 
ATOM     22  C   LIG    1        2.380   1.410  -0.012  0.00  0.00    +0.030 A 
ATOM     23  C   LIG    1        1.173   2.085   0.002  0.00  0.00    +0.040 A 
ATOM     24  C   LIG    1       -0.017   1.381   0.010  0.00  0.00    +0.040 A 
ATOM     25  O   LIG    1       -0.966  -3.253  -0.006  0.00  0.00    -0.480 OA
ATOM     26  C   LIG    1        0.002  -0.004   0.002  0.00  0.00    +0.070 A 
ENDBRANCH  16  17
ENDBRANCH  15  16
ENDBRANCH  14  15
ENDBRANCH   3  14
TORSDOF 5
