REMARK  Name = ZINCvU00000008B3.0
REMARK                            x       y       z     vdW  Elec       q    Type
REMARK                         _______ _______ _______ _____ _____    ______ ____
ROOT
ATOM      1  C   LIG    1       -3.070   1.675   0.294  0.00  0.00    +0.160 A 
ATOM      2  C   LIG    1       -4.377   1.942   0.488  0.00  0.00    -0.070 A 
ATOM      3  S   LIG    1       -5.222   1.635  -1.027  0.00  0.00    +0.110 S 
ATOM      4  C   LIG    1       -3.752   1.172  -1.768  0.00  0.00    +0.050 A 
ATOM      5  N   LIG    1       -2.778   1.262  -0.929  0.00  0.00    -0.440 NA
ENDROOT
BRANCH   1   9
ATOM      6  C   LIG    1       -0.858   2.653   4.762  0.00  0.00    +0.130 C 
ATOM      7  C   LIG    1       -1.090   2.257   3.326  0.00  0.00    +0.010 A 
ATOM      8  C   LIG    1       -2.279   2.256   2.693  0.00  0.00    -0.030 A 
ATOM      9  C   LIG    1       -2.049   1.825   1.362  0.00  0.00    -0.120 A 
ATOM     10  C   LIG    1       -0.718   1.572   1.248  0.00  0.00    +0.070 A 
ATOM     11  C   LIG    1       -0.013   1.086   0.008  0.00  0.00    +0.140 C 
ATOM     12  N   LIG    1       -0.132   1.840   2.450  0.00  0.00    -0.440 N 
BRANCH  12  13
ATOM     13  C   LIG    1        1.295   1.703   2.751  0.00  0.00    +0.290 C 
BRANCH  13  14
ATOM     14  C   LIG    1        2.010   3.020   2.444  0.00  0.00    +0.070 C 
BRANCH  14  15
ATOM     15  C   LIG    1        3.478   2.878   2.753  0.00  0.00    -0.090 A 
ATOM     16  C   LIG    1        3.952   3.188   4.015  0.00  0.00    +0.010 A 
ATOM     17  C   LIG    1        5.298   3.054   4.300  0.00  0.00    +0.000 A 
ATOM     18  C   LIG    1        6.172   2.619   3.321  0.00  0.00    +0.000 A 
ATOM     19  C   LIG    1        5.699   2.314   2.058  0.00  0.00    +0.000 A 
ATOM     20  C   LIG    1        4.352   2.443   1.775  0.00  0.00    +0.010 A 
ENDBRANCH  14  15
ENDBRANCH  13  14
ENDBRANCH  12  13
ENDBRANCH   1   9
BRANCH   4  21
ATOM     21  C   LIG    1       -3.616   0.723  -3.200  0.00  0.00    +0.280 C 
BRANCH  21  22
ATOM     22  C   LIG    1       -3.791  -0.772  -3.277  0.00  0.00    +0.170 A 
ATOM     23  N   LIG    1       -2.846  -1.670  -3.183  0.00  0.00    -0.270 NA
ATOM     24  N   LIG    1       -3.356  -2.848  -3.284  0.00  0.00    -0.290 NA
ATOM     25  C   LIG    1       -4.644  -2.753  -3.450  0.00  0.00    +0.190 A 
ATOM     26  C   LIG    1       -5.629  -3.883  -3.595  0.00  0.00    +0.150 C 
ATOM     27  C   LIG    1       -6.562  -3.585  -4.773  0.00  0.00    +0.030 C 
ATOM     28  C   LIG    1       -7.758  -2.772  -4.285  0.00  0.00    +0.020 C 
ATOM     29  C   LIG    1       -7.343  -1.840  -3.148  0.00  0.00    +0.030 C 
ATOM     30  C   LIG    1       -6.284  -0.855  -3.648  0.00  0.00    +0.280 C 
ATOM     31  N   LIG    1       -4.954  -1.435  -3.461  0.00  0.00    -0.460 N 
ENDBRANCH  21  22
ENDBRANCH   4  21
TORSDOF 6
