REMARK  Name = ZINCrD000000CslF.0
REMARK                            x       y       z     vdW  Elec       q    Type
REMARK                         _______ _______ _______ _____ _____    ______ ____
ROOT
ATOM      1  C   LIG    1        3.232   7.669  -0.769  0.00  0.00    +0.050 C 
ATOM      2  C   LIG    1        1.845   7.625  -1.452  0.00  0.00    +0.110 C 
ATOM      3  C   LIG    1        1.364   6.209  -1.223  0.00  0.00    +0.520 C 
ATOM      4  N   LIG    1        2.392   5.425  -0.858  0.00  0.00    -0.560 N 
ATOM      5  O   LIG    1        0.217   5.836  -1.351  0.00  0.00    -0.490 OA
ATOM      6  C   LIG    1        3.647   6.183  -0.800  0.00  0.00    +0.310 C 
ENDROOT
BRANCH   4   7
ATOM      7  C   LIG    1        2.280   4.059  -0.564  0.00  0.00    +0.170 A 
ATOM      8  C   LIG    1        3.419   3.307  -0.311  0.00  0.00    -0.010 A 
ATOM      9  C   LIG    1        3.308   1.961  -0.022  0.00  0.00    +0.060 A 
ATOM     10  C   LIG    1        2.061   1.356   0.016  0.00  0.00    +0.030 A 
ATOM     11  O   LIG    1        1.972   0.027   0.299  0.00  0.00    -0.310 OA
ATOM     12  C   LIG    1        0.686  -0.461   0.697  0.00  0.00    +0.220 C 
ATOM     13  C   LIG    1       -0.363   0.104  -0.270  0.00  0.00    +0.220 C 
ATOM     14  O   LIG    1       -0.316   1.533  -0.197  0.00  0.00    -0.300 OA
ATOM     15  C   LIG    1        0.918   2.107  -0.234  0.00  0.00    +0.080 A 
ATOM     16  C   LIG    1        1.029   3.458  -0.525  0.00  0.00    +0.020 A 
ENDBRANCH   4   7
BRANCH   1  18
ATOM     17  O   LIG    1        5.198   8.027  -2.017  0.00  0.00    -0.470 OA
ATOM     18  C   LIG    1        4.194   8.519  -1.558  0.00  0.00    +0.470 C 
BRANCH  18  19
ATOM     19  O   LIG    1        3.937   9.822  -1.750  0.00  0.00    -0.280 OA
BRANCH  19  20
ATOM     20  C   LIG    1        4.789  10.507  -2.559  0.00  0.00    +0.060 A 
ATOM     21  C   LIG    1        5.857  11.201  -2.013  0.00  0.00    +0.070 A 
ATOM     22  C   LIG    1        6.725  11.893  -2.837  0.00  0.00    +0.060 A 
ATOM     23  C   LIG    1        6.523  11.902  -4.205  0.00  0.00    -0.060 A 
ATOM     24  C   LIG    1        5.455  11.213  -4.754  0.00  0.00    +0.050 A 
ATOM     25 BR   LIG    1        7.709  12.855  -5.329  0.00  0.00    -0.020 Br
ATOM     26  C   LIG    1        4.587  10.516  -3.934  0.00  0.00    +0.110 A 
ATOM     27  F   LIG    1        3.544   9.844  -4.469  0.00  0.00    -0.120 F 
ENDBRANCH  19  20
ENDBRANCH  18  19
ENDBRANCH   1  18
TORSDOF 4
