REMARK  Name = ZINCkj00000y7CUh.0
REMARK                            x       y       z     vdW  Elec       q    Type
REMARK                         _______ _______ _______ _____ _____    ______ ____
ROOT
ATOM      1  N   LIG    1        2.136   2.489  -0.871  0.00  0.00    -0.500 N 
ATOM      2  H   LIG    1        1.558   2.633  -1.685  0.00  0.00    +0.430 HD
ATOM      3  H   LIG    1        3.050   2.173  -1.158  0.00  0.00    +0.430 HD
ENDROOT
BRANCH   1   4
ATOM      4  C   LIG    1        1.518   1.476  -0.004  0.00  0.00    +0.150 C 
ATOM      5  C   LIG    1       -0.019   1.534   0.011  0.00  0.00    +0.070 C 
ATOM      6  C   LIG    1        0.002  -0.004   0.002  0.00  0.00    +0.200 C 
ATOM      7  C   LIG    1        1.381   0.097  -0.670  0.00  0.00    +0.300 C 
BRANCH   7   8
ATOM      8  N   LIG    1        2.346  -0.891  -0.181  0.00  0.00    -0.390 N 
ATOM      9  C   LIG    1        2.232  -1.621   0.949  0.00  0.00    +0.230 A 
ATOM     10  C   LIG    1        3.325  -2.414   1.040  0.00  0.00    -0.090 A 
ATOM     11  C   LIG    1        4.139  -2.153  -0.067  0.00  0.00    +0.260 A 
ATOM     12  N   LIG    1        3.554  -1.241  -0.799  0.00  0.00    -0.300 NA
ENDBRANCH   7   8
BRANCH   6  13
ATOM     13  O   LIG    1       -1.001  -0.586  -0.834  0.00  0.00    -0.540 OA
ATOM     14  H   LIG    1       -1.881  -0.610  -0.433  0.00  0.00    +0.400 HD
ENDBRANCH   6  13
ENDBRANCH   1   4
BRANCH   1  15
ATOM     15  C   LIG    1        2.265   3.752  -0.132  0.00  0.00    +0.190 C 
BRANCH  15  16
ATOM     16  C   LIG    1        3.021   4.769  -0.989  0.00  0.00    +0.000 C 
ATOM     17  C   LIG    1        4.446   4.257  -1.284  0.00  0.00    +0.010 C 
ATOM     18  C   LIG    1        5.324   5.533  -1.236  0.00  0.00    +0.040 C 
ATOM     19  C   LIG    1        4.694   6.340  -0.074  0.00  0.00    +0.020 C 
ATOM     20  C   LIG    1        3.178   6.093  -0.220  0.00  0.00    +0.040 C 
ENDBRANCH  15  16
BRANCH  15  21
ATOM     21  C   LIG    1        0.873   4.295   0.196  0.00  0.00    +0.200 C 
BRANCH  21  23
ATOM     22  C   LIG    1       -1.121   5.154  -0.820  0.00  0.00    +0.240 C 
ATOM     23  O   LIG    1        0.196   4.634  -1.016  0.00  0.00    -0.390 OA
ENDBRANCH  21  23
ENDBRANCH  15  21
ENDBRANCH   1  15
TORSDOF 7
