REMARK  Name = ZINCtV000002GVTC.0
REMARK                            x       y       z     vdW  Elec       q    Type
REMARK                         _______ _______ _______ _____ _____    ______ ____
ROOT
ATOM      1  N   LIG    1        3.059   0.966  -1.491  0.00  0.00    -0.510 NA
ENDROOT
BRANCH   1   2
ATOM      2  C   LIG    1        4.108   0.063  -1.982  0.00  0.00    +0.290 C 
BRANCH   2   6
ATOM      3  C   LIG    1        3.533  -0.568  -5.891  0.00  0.00    -0.150 A 
ATOM      4  C   LIG    1        4.457   0.391  -5.684  0.00  0.00    +0.010 A 
ATOM      5  C   LIG    1        4.710   0.671  -4.357  0.00  0.00    +0.010 A 
ATOM      6  C   LIG    1        4.009  -0.054  -3.481  0.00  0.00    -0.160 A 
ATOM      7  S   LIG    1        2.946  -1.160  -4.342  0.00  0.00    +0.140 S 
BRANCH   3  12
ATOM      8  C   LIG    1        1.773  -2.431 -11.043  0.00  0.00    +0.090 C 
ATOM      9  C   LIG    1        2.233  -1.943  -9.694  0.00  0.00    -0.090 A 
ATOM     10  C   LIG    1        1.695  -2.490  -8.542  0.00  0.00    +0.020 A 
ATOM     11  C   LIG    1        2.112  -2.048  -7.304  0.00  0.00    +0.010 A 
ATOM     12  C   LIG    1        3.080  -1.046  -7.214  0.00  0.00    -0.020 A 
ATOM     13  C   LIG    1        3.615  -0.494  -8.379  0.00  0.00    +0.030 A 
ATOM     14  C   LIG    1        3.193  -0.950  -9.611  0.00  0.00    +0.010 A 
ENDBRANCH   3  12
ENDBRANCH   2   6
ENDBRANCH   1   2
BRANCH   1  15
ATOM     15  C   LIG    1        3.288   2.341  -1.955  0.00  0.00    +0.240 C 
BRANCH  15  16
ATOM     16  C   LIG    1        4.509   2.923  -1.241  0.00  0.00    +0.100 C 
ATOM     17  C   LIG    1        4.674   4.419  -1.591  0.00  0.00    +0.000 C 
ATOM     18  C   LIG    1        6.204   4.615  -1.689  0.00  0.00    +0.010 C 
ATOM     19  C   LIG    1        6.782   3.215  -1.386  0.00  0.00    +0.190 C 
ATOM     20  O   LIG    1        5.719   2.296  -1.721  0.00  0.00    -0.360 OA
ENDBRANCH  15  16
ENDBRANCH   1  15
BRANCH   1  21
ATOM     21  C   LIG    1        2.963   0.914  -0.026  0.00  0.00    +0.230 C 
BRANCH  21  22
ATOM     22  C   LIG    1        1.677   1.563   0.417  0.00  0.00    -0.060 A 
ATOM     23  C   LIG    1        1.699   2.818   0.995  0.00  0.00    +0.020 A 
ATOM     24  C   LIG    1        0.519   3.410   1.407  0.00  0.00    +0.020 A 
ATOM     25  C   LIG    1       -0.683   2.752   1.230  0.00  0.00    -0.080 A 
ATOM     26  C   LIG    1       -0.706   1.496   0.652  0.00  0.00    +0.040 A 
ATOM     27  C   LIG    1       -1.969   3.401   1.674  0.00  0.00    +0.090 C 
ATOM     28  C   LIG    1        0.474   0.901   0.245  0.00  0.00    -0.060 A 
ATOM     29 BR   LIG    1        0.443  -0.817  -0.545  0.00  0.00    -0.040 Br
ENDBRANCH  21  22
ENDBRANCH   1  21
TORSDOF 7
