REMARK  Name = ZINCtV00001bB33r.0
REMARK                            x       y       z     vdW  Elec       q    Type
REMARK                         _______ _______ _______ _____ _____    ______ ____
ROOT
ATOM      1  N   LIG    1        0.064  -0.044   2.380  0.00  0.00    -0.480 N 
ATOM      2  C   LIG    1       -0.154   1.286   2.385  0.00  0.00    +0.570 C 
ATOM      3  C   LIG    1        0.017   2.043   3.637  0.00  0.00    -0.200 A 
ATOM      4  C   LIG    1       -0.386   3.372   3.748  0.00  0.00    +0.120 A 
ATOM      5  C   LIG    1       -0.225   4.033   4.948  0.00  0.00    -0.040 A 
ATOM      6  C   LIG    1        0.332   3.386   6.039  0.00  0.00    +0.080 A 
ATOM      7  C   LIG    1        0.743   2.070   5.941  0.00  0.00    -0.050 A 
ATOM      8  C   LIG    1        0.595   1.394   4.742  0.00  0.00    +0.240 A 
ATOM      9  N   LIG    1        1.008   0.075   4.590  0.00  0.00    -0.740 N 
ATOM     10  H   LIG    1        1.746  -0.276   5.113  0.00  0.00    +0.410 HD
ATOM     11  O   LIG    1       -0.493   1.855   1.366  0.00  0.00    -0.520 OA
ATOM     12  C   LIG    1        0.305  -0.778   3.623  0.00  0.00    +0.470 C 
ATOM     13  C   LIG    1        1.157  -2.013   3.325  0.00  0.00    +0.080 C 
ENDROOT
BRANCH  12  14
ATOM     14  C   LIG    1       -1.013  -1.214   4.209  0.00  0.00    -0.110 A 
ATOM     15  C   LIG    1       -2.086  -1.475   3.377  0.00  0.00    +0.070 A 
ATOM     16  C   LIG    1       -3.293  -1.881   3.913  0.00  0.00    +0.030 A 
ATOM     17  C   LIG    1       -3.432  -2.015   5.283  0.00  0.00    -0.020 A 
ATOM     18  C   LIG    1       -2.360  -1.748   6.115  0.00  0.00    +0.020 A 
ATOM     19 CL   LIG    1       -4.950  -2.518   5.957  0.00  0.00    -0.070 Cl
ATOM     20  C   LIG    1       -1.151  -1.347   5.578  0.00  0.00    +0.050 A 
ENDBRANCH  12  14
BRANCH   1  23
ATOM     21  C   LIG    1        2.176   0.360   0.655  0.00  0.00    +0.100 C 
ATOM     22  C   LIG    1        1.010  -0.524   0.297  0.00  0.00    +0.200 C 
ATOM     23  N   LIG    1        0.066  -0.737   1.162  0.00  0.00    -0.250 NA
BRANCH  22  24
ATOM     24  C   LIG    1        0.942  -1.150  -1.037  0.00  0.00    -0.060 A 
ATOM     25  C   LIG    1       -0.135  -1.975  -1.370  0.00  0.00    +0.090 A 
ATOM     26  C   LIG    1       -0.196  -2.552  -2.621  0.00  0.00    +0.020 A 
ATOM     27  C   LIG    1        0.813  -2.324  -3.542  0.00  0.00    -0.010 A 
ATOM     28  C   LIG    1        1.886  -1.511  -3.216  0.00  0.00    +0.020 A 
ATOM     29 CL   LIG    1        0.733  -3.060  -5.112  0.00  0.00    -0.060 Cl
ATOM     30  C   LIG    1        1.956  -0.923  -1.970  0.00  0.00    +0.070 A 
ENDBRANCH  22  24
ENDBRANCH   1  23
TORSDOF 3
