REMARK  Name = ZINCnE000001FC23.0
REMARK                            x       y       z     vdW  Elec       q    Type
REMARK                         _______ _______ _______ _____ _____    ______ ____
ROOT
ATOM      1  C   LIG    1        1.058  -1.288  -2.308  0.00  0.00    +0.550 C 
ATOM      2  N   LIG    1        0.279  -2.260  -1.793  0.00  0.00    -0.550 N 
ATOM      3  C   LIG    1        0.149  -3.615  -2.341  0.00  0.00    +0.300 C 
ATOM      4  C   LIG    1       -0.835  -4.323  -1.408  0.00  0.00    -0.020 C 
ATOM      5  C   LIG    1       -1.214  -3.296  -0.376  0.00  0.00    -0.170 A 
ATOM      6  C   LIG    1       -2.069  -3.361   0.711  0.00  0.00    +0.140 A 
ATOM      7  C   LIG    1       -2.246  -2.254   1.524  0.00  0.00    -0.060 A 
ATOM      8  C   LIG    1       -1.567  -1.083   1.248  0.00  0.00    +0.070 A 
ATOM      9  C   LIG    1       -0.715  -1.013   0.167  0.00  0.00    -0.010 A 
ATOM     10  F   LIG    1       -2.732  -4.507   0.979  0.00  0.00    -0.140 F 
ATOM     11  C   LIG    1       -2.068  -4.805  -2.186  0.00  0.00    +0.040 C 
ATOM     12  C   LIG    1       -1.778  -6.303  -2.459  0.00  0.00    +0.020 C 
ATOM     13  C   LIG    1       -1.072  -6.761  -1.158  0.00  0.00    +0.020 C 
ATOM     14  C   LIG    1       -0.195  -5.553  -0.758  0.00  0.00    +0.030 C 
ATOM     15  C   LIG    1       -0.530  -2.123  -0.659  0.00  0.00    +0.190 A 
ATOM     16  O   LIG    1        1.166  -0.227  -1.732  0.00  0.00    -0.520 OA
ENDROOT
BRANCH   1  17
ATOM     17  C   LIG    1        1.796  -1.521  -3.602  0.00  0.00    -0.090 C 
BRANCH  17  18
ATOM     18  C   LIG    1        0.809  -1.573  -4.740  0.00  0.00    +0.510 C 
ATOM     19  O   LIG    1        0.718  -2.580  -5.422  0.00  0.00    -0.680 OA
ATOM     20  O   LIG    1        0.103  -0.608  -4.980  0.00  0.00    -0.680 OA
ENDBRANCH  17  18
BRANCH  17  21
ATOM     21  C   LIG    1        2.786  -0.378  -3.837  0.00  0.00    +0.040 C 
BRANCH  21  23
ATOM     22  C   LIG    1        4.612   0.466  -5.319  0.00  0.00    +0.000 C 
ATOM     23  C   LIG    1        3.622  -0.676  -5.084  0.00  0.00    +0.010 C 
ENDBRANCH  21  23
ENDBRANCH  17  21
ENDBRANCH   1  17
TORSDOF 4
