REMARK  Name = ZINCrH000004tXVT.0
REMARK                            x       y       z     vdW  Elec       q    Type
REMARK                         _______ _______ _______ _____ _____    ______ ____
ROOT
ATOM      1  O   LIG    1       -1.766   0.325   1.933  0.00  0.00    -0.500 OA
ATOM      2  C   LIG    1       -2.094  -0.561   1.172  0.00  0.00    +0.520 C 
ATOM      3  N   LIG    1       -3.235  -1.245   1.386  0.00  0.00    -0.660 N 
ATOM      4  H   LIG    1       -3.530  -1.908   0.743  0.00  0.00    +0.420 HD
ENDROOT
BRANCH   3   5
ATOM      5  C   LIG    1       -3.994  -0.999   2.536  0.00  0.00    +0.170 A 
ATOM      6  C   LIG    1       -4.072   0.285   3.056  0.00  0.00    +0.060 A 
ATOM      7  C   LIG    1       -4.826   0.527   4.190  0.00  0.00    -0.020 A 
ATOM      8  C   LIG    1       -5.496  -0.511   4.814  0.00  0.00    +0.050 A 
ATOM      9  C   LIG    1       -5.419  -1.794   4.305  0.00  0.00    +0.050 A 
ATOM     10 CL   LIG    1       -4.928   2.135   4.835  0.00  0.00    -0.050 Cl
ATOM     11  C   LIG    1       -4.669  -2.044   3.166  0.00  0.00    +0.120 A 
BRANCH  11  12
ATOM     12  N   LIG    1       -4.590  -3.345   2.647  0.00  0.00    -0.330 N 
ATOM     13  C   LIG    1       -5.255  -4.431   3.086  0.00  0.00    +0.500 A 
ATOM     14  N   LIG    1       -4.910  -5.447   2.337  0.00  0.00    -0.530 NA
ATOM     15  C   LIG    1       -4.025  -5.055   1.422  0.00  0.00    +0.450 A 
ATOM     16  N   LIG    1       -3.797  -3.776   1.571  0.00  0.00    -0.330 NA
ENDBRANCH  11  12
ENDBRANCH   3   5
BRANCH   2  17
ATOM     17  C   LIG    1       -1.224  -0.897  -0.012  0.00  0.00    +0.190 C 
BRANCH  17  18
ATOM     18  C   LIG    1       -0.018   0.007  -0.022  0.00  0.00    +0.000 A 
ATOM     19  C   LIG    1        1.268  -0.388  -0.050  0.00  0.00    +0.160 A 
ATOM     20  O   LIG    1        2.028   0.725  -0.050  0.00  0.00    -0.190 OA
ATOM     21  C   LIG    1        1.202   1.785  -0.022  0.00  0.00    +0.240 A 
ATOM     22  N   LIG    1       -0.036   1.348  -0.005  0.00  0.00    -0.440 NA
BRANCH  21  23
ATOM     23  C   LIG    1        1.617   3.203  -0.011  0.00  0.00    -0.020 A 
ATOM     24  C   LIG    1        0.656   4.215   0.012  0.00  0.00    +0.070 A 
ATOM     25  C   LIG    1        1.050   5.537   0.027  0.00  0.00    +0.010 A 
ATOM     26  C   LIG    1        2.395   5.861   0.007  0.00  0.00    +0.030 A 
ATOM     27  C   LIG    1        3.353   4.863  -0.022  0.00  0.00    +0.010 A 
ATOM     28  C   LIG    1        2.972   3.537  -0.031  0.00  0.00    +0.040 A 
ENDBRANCH  21  23
ENDBRANCH  17  18
ENDBRANCH   2  17
TORSDOF 5
