REMARK  Name = ZINCrH000004quFU.0
REMARK                            x       y       z     vdW  Elec       q    Type
REMARK                         _______ _______ _______ _____ _____    ______ ____
ROOT
ATOM      1  N   LIG    1        3.360   1.933  -1.014  0.00  0.00    -0.610 N 
ATOM      2  C   LIG    1        3.631   1.638  -2.301  0.00  0.00    +0.710 C 
ATOM      3  N   LIG    1        4.356   2.493  -3.050  0.00  0.00    -0.670 N 
ATOM      4  H   LIG    1        4.742   3.285  -2.644  0.00  0.00    +0.410 HD
ATOM      5  O   LIG    1        3.220   0.602  -2.787  0.00  0.00    -0.570 OA
ATOM      6  C   LIG    1        3.854   3.181  -0.428  0.00  0.00    +0.290 C 
ENDROOT
BRANCH   3   7
ATOM      7  C   LIG    1        4.552   2.237  -4.414  0.00  0.00    +0.190 A 
ATOM      8  C   LIG    1        4.549   0.933  -4.884  0.00  0.00    +0.020 A 
ATOM      9  C   LIG    1        4.742   0.683  -6.231  0.00  0.00    +0.030 A 
ATOM     10  C   LIG    1        4.939   1.731  -7.111  0.00  0.00    -0.010 A 
ATOM     11  C   LIG    1        4.944   3.035  -6.651  0.00  0.00    -0.010 A 
ATOM     12  C   LIG    1        4.744   3.295  -5.303  0.00  0.00    +0.050 A 
BRANCH  12  13
ATOM     13  N   LIG    1        4.743   4.614  -4.836  0.00  0.00    -0.510 N 
ATOM     14  C   LIG    1        3.623   5.373  -5.407  0.00  0.00    +0.200 C 
ATOM     15  C   LIG    1        6.024   5.274  -5.118  0.00  0.00    +0.190 C 
ENDBRANCH  12  13
ENDBRANCH   3   7
BRANCH   1  16
ATOM     16  C   LIG    1        2.571   1.004  -0.201  0.00  0.00    +0.350 C 
BRANCH  16  19
ATOM     17  N   LIG    1        0.189   0.620   0.343  0.00  0.00    -0.680 N 
ATOM     18  H   LIG    1        0.461  -0.165   0.844  0.00  0.00    +0.410 HD
ATOM     19  C   LIG    1        1.109   1.345  -0.323  0.00  0.00    +0.490 C 
ATOM     20  O   LIG    1        0.759   2.274  -1.021  0.00  0.00    -0.500 OA
BRANCH  17  25
ATOM     21  C   LIG    1       -5.274   2.142   0.198  0.00  0.00    +0.100 C 
ATOM     22  C   LIG    1       -3.823   1.737   0.236  0.00  0.00    -0.080 A 
ATOM     23  C   LIG    1       -2.858   2.664   0.586  0.00  0.00    +0.000 A 
ATOM     24  C   LIG    1       -1.527   2.296   0.623  0.00  0.00    -0.070 A 
ATOM     25  C   LIG    1       -1.158   0.995   0.307  0.00  0.00    +0.130 A 
ATOM     26  C   LIG    1       -2.130   0.069  -0.050  0.00  0.00    -0.090 A 
ATOM     27  C   LIG    1       -1.733  -1.342  -0.400  0.00  0.00    +0.090 C 
ATOM     28  C   LIG    1       -0.476   3.306   1.005  0.00  0.00    +0.090 C 
ATOM     29  C   LIG    1       -3.459   0.441  -0.079  0.00  0.00    +0.010 A 
ENDBRANCH  17  25
ENDBRANCH  16  19
ENDBRANCH   1  16
TORSDOF 5
