REMARK  Name = ZINCrH000004onqp.1
REMARK                            x       y       z     vdW  Elec       q    Type
REMARK                         _______ _______ _______ _____ _____    ______ ____
ROOT
ATOM      1  C   LIG    1       -3.258  -1.062  -1.377  0.00  0.00    +0.220 C 
ENDROOT
BRANCH   1   2
ATOM      2  C   LIG    1       -4.240  -0.341  -2.264  0.00  0.00    +0.520 C 
ATOM      3  N   LIG    1       -5.259  -1.018  -2.831  0.00  0.00    -0.680 N 
ATOM      4  H   LIG    1       -5.322  -1.980  -2.722  0.00  0.00    +0.410 HD
ATOM      5  O   LIG    1       -4.114   0.848  -2.468  0.00  0.00    -0.500 OA
BRANCH   3   6
ATOM      6  C   LIG    1       -6.224  -0.334  -3.578  0.00  0.00    +0.200 A 
ATOM      7  C   LIG    1       -5.862   0.769  -4.340  0.00  0.00    +0.030 A 
ATOM      8  C   LIG    1       -6.816   1.439  -5.080  0.00  0.00    +0.070 A 
ATOM      9  C   LIG    1       -8.133   1.020  -5.054  0.00  0.00    +0.000 A 
ATOM     10  C   LIG    1       -8.499  -0.075  -4.291  0.00  0.00    +0.090 A 
ATOM     11  C   LIG    1       -7.548  -0.752  -3.554  0.00  0.00    -0.220 A 
BRANCH  11  12
ATOM     12  C   LIG    1       -7.947  -1.945  -2.723  0.00  0.00    +0.510 C 
ATOM     13  F   LIG    1       -7.647  -1.698  -1.379  0.00  0.00    -0.170 F 
ATOM     14  F   LIG    1       -7.244  -3.073  -3.159  0.00  0.00    -0.180 F 
ATOM     15  F   LIG    1       -9.321  -2.170  -2.860  0.00  0.00    -0.170 F 
ENDBRANCH  11  12
ENDBRANCH   3   6
ENDBRANCH   1   2
BRANCH   1  16
ATOM     16  N   LIG    1       -2.252  -0.110  -0.887  0.00  0.00    -0.670 NA
ATOM     17  H   LIG    1       -1.792   0.357  -1.654  0.00  0.00    +0.360 HD
BRANCH  16  19
ATOM     18  C   LIG    1       -1.820  -0.837   1.411  0.00  0.00    +0.050 C 
ATOM     19  C   LIG    1       -1.275  -0.779  -0.017  0.00  0.00    +0.190 C 
BRANCH  19  20
ATOM     20  C   LIG    1        0.020  -0.007  -0.030  0.00  0.00    -0.090 A 
ATOM     21  C   LIG    1       -0.001   1.375  -0.018  0.00  0.00    +0.050 A 
ATOM     22  C   LIG    1        1.185   2.086  -0.031  0.00  0.00    +0.030 A 
ATOM     23  C   LIG    1        2.398   1.414  -0.055  0.00  0.00    +0.050 A 
ATOM     24  O   LIG    1        3.556   2.128  -0.071  0.00  0.00    -0.310 OA
ATOM     25  C   LIG    1        4.751   1.423   0.286  0.00  0.00    +0.220 C 
ATOM     26  C   LIG    1        4.761   0.085  -0.466  0.00  0.00    +0.220 C 
ATOM     27  O   LIG    1        3.597  -0.655  -0.081  0.00  0.00    -0.310 OA
ATOM     28  C   LIG    1        2.418   0.024  -0.065  0.00  0.00    +0.050 A 
ATOM     29  C   LIG    1        1.225  -0.683  -0.054  0.00  0.00    +0.020 A 
ENDBRANCH  19  20
ENDBRANCH  16  19
ENDBRANCH   1  16
TORSDOF 6
