REMARK  Name = ZINCpk00000jhGYU.0
REMARK                            x       y       z     vdW  Elec       q    Type
REMARK                         _______ _______ _______ _____ _____    ______ ____
ROOT
ATOM      1  C   LIG    1       -4.905   4.955  -6.625  0.00  0.00    -0.020 C 
ATOM      2  C   LIG    1       -4.004   4.486  -7.769  0.00  0.00    +0.030 C 
ATOM      3  C   LIG    1       -2.734   3.853  -7.196  0.00  0.00    +0.010 C 
ATOM      4  C   LIG    1       -3.113   2.635  -6.348  0.00  0.00    +0.280 C 
ATOM      5  N   LIG    1       -4.092   3.050  -5.334  0.00  0.00    -0.600 N 
ATOM      6  C   LIG    1       -3.878   2.794  -4.028  0.00  0.00    +0.690 C 
ATOM      7  O   LIG    1       -4.698   3.144  -3.197  0.00  0.00    -0.620 OA
ATOM      8  C   LIG    1       -5.311   3.743  -5.771  0.00  0.00    +0.280 C 
ENDROOT
BRANCH   6   9
ATOM      9  N   LIG    1       -2.766   2.157  -3.644  0.00  0.00    -0.690 NA
ATOM     10  C   LIG    1       -2.555   1.905  -2.357  0.00  0.00    +0.510 A 
ATOM     11  C   LIG    1       -3.409   2.246  -1.286  0.00  0.00    -0.100 A 
ATOM     12  C   LIG    1       -2.841   1.815  -0.136  0.00  0.00    +0.160 A 
ATOM     13  C   LIG    1       -3.078   1.784   1.361  0.00  0.00    +0.150 C 
ATOM     14  C   LIG    1       -1.689   1.462   1.962  0.00  0.00    +0.070 C 
ATOM     15  C   LIG    1       -1.004   0.717   0.797  0.00  0.00    +0.320 C 
ATOM     16  N   LIG    1       -1.655   1.208  -0.428  0.00  0.00    -0.420 N 
ATOM     17  N   LIG    1       -1.466   1.263  -1.820  0.00  0.00    -0.460 N 
ATOM     18  H   LIG    1       -0.707   0.913  -2.311  0.00  0.00    +0.450 HD
ENDBRANCH   6   9
BRANCH   1  19
ATOM     19  C   LIG    1       -6.159   5.617  -7.199  0.00  0.00    +0.270 C 
BRANCH  19  20
ATOM     20  N   LIG    1       -6.963   6.171  -6.107  0.00  0.00    -1.120 NA
ATOM     21  H   LIG    1       -6.784   5.908  -5.191  0.00  0.00    +0.420 HD
BRANCH  20  22
ATOM     22  S   LIG    1       -8.178   7.247  -6.437  0.00  0.00    +2.610 S 
ATOM     23  O   LIG    1       -7.553   8.250  -7.227  0.00  0.00    -0.960 OA
ATOM     24  O   LIG    1       -8.729   7.554  -5.164  0.00  0.00    -0.950 OA
BRANCH  22  26
ATOM     25  C   LIG    1       -9.841   5.084  -6.636  0.00  0.00    +0.080 C 
ATOM     26  C   LIG    1       -9.363   6.300  -7.432  0.00  0.00    -0.460 C 
ATOM     27  C   LIG    1      -10.561   7.187  -7.777  0.00  0.00    +0.080 C 
ENDBRANCH  22  26
ENDBRANCH  20  22
ENDBRANCH  19  20
ENDBRANCH   1  19
TORSDOF 5
