REMARK  Name = ZINCtj00000mhtsp.0
REMARK                            x       y       z     vdW  Elec       q    Type
REMARK                         _______ _______ _______ _____ _____    ______ ____
ROOT
ATOM      1  N   LIG    1       -1.815  -4.933   1.515  0.00  0.00    -0.500 N 
ATOM      2  H   LIG    1       -2.081  -5.846   1.177  0.00  0.00    +0.430 HD
ATOM      3  H   LIG    1       -1.980  -4.247   0.794  0.00  0.00    +0.430 HD
ENDROOT
BRANCH   1   4
ATOM      4  C   LIG    1       -2.615  -4.597   2.701  0.00  0.00    +0.300 C 
BRANCH   4   5
ATOM      5  C   LIG    1       -4.099  -4.592   2.331  0.00  0.00    -0.380 C 
BRANCH   5   6
ATOM      6  S   LIG    1       -5.086  -4.178   3.796  0.00  0.00    +2.620 S 
ATOM      7  O   LIG    1       -4.871  -2.826   4.176  0.00  0.00    -0.920 OA
ATOM      8  O   LIG    1       -5.023  -5.227   4.753  0.00  0.00    -0.920 OA
BRANCH   6  12
ATOM      9  C   LIG    1       -8.760  -2.161   0.876  0.00  0.00    +0.070 C 
ATOM     10  C   LIG    1       -7.925  -3.344   1.370  0.00  0.00    +0.140 C 
ATOM     11  C   LIG    1       -7.294  -2.995   2.728  0.00  0.00    +0.280 C 
ATOM     12  N   LIG    1       -6.653  -4.207   3.261  0.00  0.00    -0.990 NA
ATOM     13  C   LIG    1       -7.447  -5.445   3.310  0.00  0.00    +0.280 C 
ATOM     14  C   LIG    1       -8.072  -5.674   1.929  0.00  0.00    +0.140 C 
ATOM     15  C   LIG    1       -9.056  -6.843   2.000  0.00  0.00    +0.070 C 
ATOM     16  O   LIG    1       -8.765  -4.490   1.524  0.00  0.00    -0.360 OA
ENDBRANCH   6  12
ENDBRANCH   5   6
ENDBRANCH   4   5
ENDBRANCH   1   4
BRANCH   1  17
ATOM     17  C   LIG    1       -0.390  -4.938   1.870  0.00  0.00    +0.360 C 
BRANCH  17  18
ATOM     18  C   LIG    1        0.436  -5.165   0.630  0.00  0.00    -0.310 A 
ATOM     19  C   LIG    1        1.036  -6.321   0.275  0.00  0.00    +0.330 A 
ATOM     20  N   LIG    1        1.681  -6.115  -0.894  0.00  0.00    -0.450 N 
ATOM     21  H   LIG    1        2.201  -6.773  -1.381  0.00  0.00    +0.460 HD
ATOM     22  N   LIG    1        1.468  -4.785  -1.280  0.00  0.00    -0.250 NA
ATOM     23  C   LIG    1        0.716  -4.209  -0.366  0.00  0.00    +0.150 A 
BRANCH  23  24
ATOM     24  C   LIG    1        0.251  -2.800  -0.380  0.00  0.00    -0.040 A 
ATOM     25  C   LIG    1       -0.220  -2.232  -1.562  0.00  0.00    +0.080 A 
ATOM     26  C   LIG    1       -0.652  -0.921  -1.574  0.00  0.00    +0.050 A 
ATOM     27  C   LIG    1       -0.620  -0.166  -0.412  0.00  0.00    +0.060 A 
ATOM     28  O   LIG    1       -0.984   1.127  -0.166  0.00  0.00    -0.300 OA
ATOM     29  C   LIG    1       -1.117   1.223   1.265  0.00  0.00    +0.440 C 
ATOM     30  O   LIG    1       -0.221   0.211   1.761  0.00  0.00    -0.300 OA
ATOM     31  C   LIG    1       -0.150  -0.729   0.773  0.00  0.00    +0.040 A 
ATOM     32  C   LIG    1        0.284  -2.042   0.789  0.00  0.00    +0.040 A 
ENDBRANCH  23  24
ENDBRANCH  17  18
ENDBRANCH   1  17
TORSDOF 7
