REMARK  Name = ZINCrH000004rJBD.0
REMARK                            x       y       z     vdW  Elec       q    Type
REMARK                         _______ _______ _______ _____ _____    ______ ____
ROOT
ATOM      1  C   LIG    1        1.322  -6.440  -0.046  0.00  0.00    +0.320 C 
ENDROOT
BRANCH   1   5
ATOM      2  C   LIG    1        1.246  -2.165  -0.021  0.00  0.00    -0.030 A 
ATOM      3  C   LIG    1        2.463  -2.843  -0.042  0.00  0.00    +0.020 A 
ATOM      4  C   LIG    1        2.482  -4.223  -0.044  0.00  0.00    +0.040 A 
ATOM      5  C   LIG    1        1.295  -4.933  -0.037  0.00  0.00    -0.110 A 
ATOM      6  C   LIG    1        0.084  -4.266  -0.021  0.00  0.00    +0.040 A 
ATOM      7  C   LIG    1        0.054  -2.886  -0.013  0.00  0.00    +0.020 A 
BRANCH   2  13
ATOM      8  C   LIG    1        3.671   2.200  -0.022  0.00  0.00    +0.090 C 
ATOM      9  C   LIG    1        2.382   1.419  -0.013  0.00  0.00    -0.080 A 
ATOM     10  C   LIG    1        1.170   2.086   0.002  0.00  0.00    +0.000 A 
ATOM     11  C   LIG    1       -0.017   1.376   0.010  0.00  0.00    +0.020 A 
ATOM     12  C   LIG    1        0.002  -0.004   0.002  0.00  0.00    +0.010 A 
ATOM     13  C   LIG    1        1.220  -0.682  -0.013  0.00  0.00    -0.050 A 
ATOM     14  C   LIG    1        2.412   0.039  -0.021  0.00  0.00    +0.020 A 
ENDBRANCH   2  13
ENDBRANCH   1   5
BRANCH   1  15
ATOM     15  N   LIG    1        1.317  -6.920  -1.430  0.00  0.00    -0.710 N 
ATOM     16  H   LIG    1        1.298  -6.286  -2.163  0.00  0.00    +0.410 HD
ATOM     17  C   LIG    1        1.338  -8.244  -1.684  0.00  0.00    +0.610 C 
ATOM     18  O   LIG    1        1.361  -9.039  -0.764  0.00  0.00    -0.530 OA
BRANCH  17  19
ATOM     19  C   LIG    1        1.333  -8.728  -3.080  0.00  0.00    -0.030 A 
ATOM     20  N   LIG    1        1.302  -7.976  -4.167  0.00  0.00    -0.220 NA
ATOM     21  N   LIG    1        1.310  -8.698  -5.225  0.00  0.00    -0.260 N 
ATOM     22  C   LIG    1        1.289  -8.252  -6.623  0.00  0.00    +0.330 C 
ATOM     23  C   LIG    1        1.828  -9.361  -7.528  0.00  0.00    +0.060 C 
ATOM     24  C   LIG    1        1.072 -10.672  -7.284  0.00  0.00    +0.050 C 
ATOM     25  C   LIG    1        1.346 -11.110  -5.852  0.00  0.00    +0.430 C 
ATOM     26  O   LIG    1        1.556 -12.267  -5.553  0.00  0.00    -0.430 OA
ATOM     27  C   LIG    1        1.337 -10.027  -4.861  0.00  0.00    -0.080 A 
ATOM     28  C   LIG    1        1.353 -10.078  -3.493  0.00  0.00    +0.090 A 
ENDBRANCH  17  19
ENDBRANCH   1  15
TORSDOF 4
