REMARK  Name = ZINCrH000004sIM3.0
REMARK                            x       y       z     vdW  Elec       q    Type
REMARK                         _______ _______ _______ _____ _____    ______ ____
ROOT
ATOM      1  N   LIG    1       -1.190   1.879   0.011  0.00  0.00    -0.680 N 
ATOM      2  H   LIG    1       -1.134   2.792   0.332  0.00  0.00    +0.410 HD
ATOM      3  C   LIG    1       -0.111   1.291  -0.541  0.00  0.00    +0.710 C 
ATOM      4  N   LIG    1        1.083   1.917  -0.519  0.00  0.00    -0.620 N 
ATOM      5  C   LIG    1        1.203   3.281   0.013  0.00  0.00    +0.260 C 
ATOM      6  C   LIG    1        2.297   3.291   1.091  0.00  0.00    +0.020 C 
ATOM      7  C   LIG    1        3.593   2.732   0.499  0.00  0.00    +0.000 C 
ATOM      8  C   LIG    1        3.369   1.284   0.054  0.00  0.00    +0.020 C 
ATOM      9  C   LIG    1        2.288   1.250  -1.031  0.00  0.00    +0.300 C 
ATOM     10  O   LIG    1       -0.214   0.198  -1.065  0.00  0.00    -0.570 OA
ENDROOT
BRANCH   1  18
ATOM     11  C   LIG    1       -6.802   2.763  -0.118  0.00  0.00    +0.170 C 
ATOM     12  C   LIG    1       -6.204   1.396   0.090  0.00  0.00    +0.110 A 
ATOM     13  N   LIG    1       -6.863   0.286   0.261  0.00  0.00    -0.240 NA
ATOM     14  N   LIG    1       -5.975  -0.781   0.424  0.00  0.00    -0.390 N 
ATOM     15  C   LIG    1       -4.689  -0.312   0.350  0.00  0.00    +0.300 A 
ATOM     16  N   LIG    1       -3.500  -0.894   0.438  0.00  0.00    -0.480 NA
ATOM     17  C   LIG    1       -2.384  -0.207   0.332  0.00  0.00    +0.360 A 
ATOM     18  C   LIG    1       -2.395   1.170   0.121  0.00  0.00    +0.080 A 
ATOM     19  C   LIG    1       -3.608   1.833   0.026  0.00  0.00    +0.110 A 
ATOM     20  C   LIG    1       -6.357  -2.179   0.639  0.00  0.00    +0.360 C 
ATOM     21  C   LIG    1       -4.781   1.078   0.137  0.00  0.00    -0.200 A 
ENDBRANCH   1  18
BRANCH   7  22
ATOM     22  C   LIG    1        4.697   2.774   1.557  0.00  0.00    +0.070 C 
BRANCH  22  23
ATOM     23  C   LIG    1        5.003   4.208   1.907  0.00  0.00    -0.080 A 
ATOM     24  C   LIG    1        5.975   4.897   1.206  0.00  0.00    +0.000 A 
ATOM     25  C   LIG    1        6.252   6.214   1.523  0.00  0.00    +0.000 A 
ATOM     26  C   LIG    1        5.565   6.838   2.548  0.00  0.00    +0.000 A 
ATOM     27  C   LIG    1        4.597   6.146   3.252  0.00  0.00    +0.000 A 
ATOM     28  C   LIG    1        4.316   4.831   2.931  0.00  0.00    +0.000 A 
ENDBRANCH  22  23
ENDBRANCH   7  22
TORSDOF 3
