REMARK  Name = ZINCpk00000ebx5D.0
REMARK                            x       y       z     vdW  Elec       q    Type
REMARK                         _______ _______ _______ _____ _____    ______ ____
ROOT
ATOM      1  O   LIG    1       -2.381  -0.084  -1.504  0.00  0.00    -0.530 OA
ATOM      2  C   LIG    1       -2.231   1.118  -1.558  0.00  0.00    +0.560 C 
ATOM      3  N   LIG    1       -3.031   1.862  -2.347  0.00  0.00    -0.610 N 
ATOM      4  C   LIG    1       -2.801   3.306  -2.508  0.00  0.00    +0.280 C 
ATOM      5  C   LIG    1       -2.760   3.623  -4.011  0.00  0.00    +0.170 C 
ATOM      6  N   LIG    1       -3.983   3.115  -4.647  0.00  0.00    -0.530 NA
ATOM      7  C   LIG    1       -4.069   1.652  -4.543  0.00  0.00    +0.170 C 
ATOM      8  C   LIG    1       -4.160   1.253  -3.066  0.00  0.00    +0.300 C 
ENDROOT
BRANCH   2   9
ATOM      9  C   LIG    1       -1.151   1.780  -0.741  0.00  0.00    -0.120 C 
ATOM     10  C   LIG    1        0.013   2.423  -1.498  0.00  0.00    +0.050 C 
ATOM     11  C   LIG    1        0.230   1.120  -0.727  0.00  0.00    +0.090 C 
BRANCH   9  12
ATOM     12  C   LIG    1       -1.614   2.453   0.525  0.00  0.00    -0.050 A 
ATOM     13  C   LIG    1       -1.069   3.666   0.901  0.00  0.00    +0.050 A 
ATOM     14  C   LIG    1       -1.496   4.287   2.059  0.00  0.00    -0.010 A 
ATOM     15  C   LIG    1       -2.464   3.689   2.849  0.00  0.00    +0.100 A 
ATOM     16  C   LIG    1       -3.005   2.471   2.474  0.00  0.00    -0.010 A 
ATOM     17  F   LIG    1       -2.879   4.292   3.984  0.00  0.00    -0.140 F 
ATOM     18  C   LIG    1       -2.580   1.854   1.312  0.00  0.00    +0.050 A 
ENDBRANCH   9  12
ENDBRANCH   2   9
BRANCH   6  19
ATOM     19  C   LIG    1       -4.067   3.549  -6.048  0.00  0.00    +0.200 C 
BRANCH  19  20
ATOM     20  C   LIG    1       -3.727   5.037  -6.142  0.00  0.00    +0.120 C 
ATOM     21  C   LIG    1       -3.818   5.492  -7.602  0.00  0.00    +0.190 C 
ATOM     22  O   LIG    1       -3.608   6.905  -7.667  0.00  0.00    -0.380 OA
ATOM     23  C   LIG    1       -4.537   7.659  -6.882  0.00  0.00    +0.190 C 
ATOM     24  C   LIG    1       -4.446   7.205  -5.423  0.00  0.00    +0.190 C 
ATOM     25  O   LIG    1       -4.655   5.791  -5.356  0.00  0.00    -0.360 OA
ENDBRANCH  19  20
ENDBRANCH   6  19
TORSDOF 4
