REMARK  Name = ZINCah0000003Z4N.0
REMARK                            x       y       z     vdW  Elec       q    Type
REMARK                         _______ _______ _______ _____ _____    ______ ____
ROOT
ATOM      1  C   LIG    1       -0.042   1.547  -0.039  0.00  0.00    +0.000 C 
ATOM      2  C   LIG    1       -0.785   2.099   1.198  0.00  0.00    +0.250 C 
ATOM      3  N   LIG    1       -1.413   3.348   0.752  0.00  0.00    -0.730 N 
ATOM      4  H   LIG    1       -1.747   4.036   1.349  0.00  0.00    +0.410 HD
ATOM      5  C   LIG    1       -1.467   3.416  -0.589  0.00  0.00    +0.520 C 
ATOM      6  O   LIG    1       -1.941   4.337  -1.220  0.00  0.00    -0.530 OA
ATOM      7  C   LIG    1       -0.847   2.177  -1.199  0.00  0.00    +0.060 C 
ENDROOT
BRANCH   1   8
ATOM      8  C   LIG    1       -0.117   0.019  -0.086  0.00  0.00    +0.030 C 
BRANCH   8  10
ATOM      9  C   LIG    1        2.208  -0.194  -0.974  0.00  0.00    +0.020 C 
ATOM     10  C   LIG    1        0.734  -0.497  -1.248  0.00  0.00    -0.030 C 
ATOM     11  C   LIG    1        0.541  -2.009  -1.389  0.00  0.00    +0.010 C 
ENDBRANCH   8  10
ENDBRANCH   1   8
TORSDOF 2
