REMARK  Name = ZINCpk00000y6yLz.1
REMARK                            x       y       z     vdW  Elec       q    Type
REMARK                         _______ _______ _______ _____ _____    ______ ____
ROOT
ATOM      1  N   LIG    1        7.450   0.349  -2.894  0.00  0.00    -0.570 N 
ATOM      2  C   LIG    1        8.034   1.677  -2.659  0.00  0.00    +0.290 C 
ATOM      3  C   LIG    1        7.497   2.224  -1.332  0.00  0.00    +0.010 C 
ATOM      4  C   LIG    1        5.968   2.206  -1.359  0.00  0.00    +0.020 C 
ATOM      5  C   LIG    1        5.475   0.767  -1.523  0.00  0.00    +0.130 C 
ATOM      6  C   LIG    1        5.989   0.202  -2.851  0.00  0.00    +0.290 C 
ENDROOT
BRANCH   1  12
ATOM      7  C   LIG    1       11.905  -1.541  -3.804  0.00  0.00    +0.320 C 
ATOM      8  N   LIG    1       10.460  -1.665  -3.598  0.00  0.00    -0.480 N 
ATOM      9  C   LIG    1        9.857  -2.887  -3.654  0.00  0.00    +0.150 A 
ATOM     10  C   LIG    1        8.526  -3.012  -3.465  0.00  0.00    +0.190 A 
ATOM     11  N   LIG    1        7.751  -1.956  -3.219  0.00  0.00    -0.510 NA
ATOM     12  C   LIG    1        8.264  -0.746  -3.151  0.00  0.00    +0.350 A 
ATOM     13  C   LIG    1        9.706  -0.570  -3.357  0.00  0.00    +0.480 A 
ATOM     14  O   LIG    1       10.212   0.538  -3.306  0.00  0.00    -0.520 OA
ENDBRANCH   1  12
BRANCH   5  15
ATOM     15  N   LIG    1        4.006   0.747  -1.517  0.00  0.00    -0.680 NA
ATOM     16  H   LIG    1        3.652  -0.023  -2.064  0.00  0.00    +0.340 HD
BRANCH  15  17
ATOM     17  C   LIG    1        3.486   0.701  -0.144  0.00  0.00    +0.250 C 
BRANCH  17  18
ATOM     18  C   LIG    1        1.979   0.682  -0.178  0.00  0.00    -0.240 A 
ATOM     19  C   LIG    1        1.198  -0.421  -0.228  0.00  0.00    +0.230 A 
ATOM     20  N   LIG    1       -0.089  -0.014  -0.245  0.00  0.00    -0.360 N 
ATOM     21  N   LIG    1       -0.098   1.387  -0.205  0.00  0.00    -0.290 NA
ATOM     22  C   LIG    1        1.142   1.803  -0.165  0.00  0.00    +0.240 A 
BRANCH  20  23
ATOM     23  C   LIG    1       -1.268  -0.882  -0.297  0.00  0.00    +0.180 C 
ATOM     24  C   LIG    1       -1.049  -1.976  -1.345  0.00  0.00    +0.050 C 
ATOM     25  C   LIG    1       -2.496  -0.052  -0.674  0.00  0.00    +0.070 C 
ATOM     26  C   LIG    1       -1.488  -1.526   1.073  0.00  0.00    +0.050 C 
ENDBRANCH  20  23
ENDBRANCH  17  18
ENDBRANCH  15  17
ENDBRANCH   5  15
TORSDOF 5
