REMARK  Name = ZINCrg000000p2VP.0
REMARK                            x       y       z     vdW  Elec       q    Type
REMARK                         _______ _______ _______ _____ _____    ______ ____
ROOT
ATOM      1  C   LIG    1       -1.187   1.624   0.017  0.00  0.00    +0.570 C 
ATOM      2  N   LIG    1       -0.011   0.966   0.007  0.00  0.00    -0.520 N 
ATOM      3  H   LIG    1        0.002  -0.004   0.002  0.00  0.00    +0.430 HD
ATOM      4  O   LIG    1       -1.204   2.840   0.023  0.00  0.00    -0.520 OA
ENDROOT
BRANCH   1  10
ATOM      5  C   LIG    1       -3.682   1.550   0.034  0.00  0.00    +0.200 A 
ATOM      6  C   LIG    1       -4.868   0.828   0.030  0.00  0.00    +0.010 A 
ATOM      7  C   LIG    1       -4.838  -0.552   0.022  0.00  0.00    +0.060 A 
ATOM      8  C   LIG    1       -3.627  -1.227   0.013  0.00  0.00    +0.030 A 
ATOM      9  C   LIG    1       -2.440  -0.527   0.011  0.00  0.00    +0.050 A 
ATOM     10  C   LIG    1       -2.454   0.869   0.018  0.00  0.00    -0.120 A 
BRANCH   5  12
ATOM     11  C   LIG    1       -3.826   3.657   1.319  0.00  0.00    +0.320 C 
ATOM     12  N   LIG    1       -3.710   2.939   0.047  0.00  0.00    -0.950 N 
BRANCH  12  13
ATOM     13  S   LIG    1       -3.612   3.783  -1.374  0.00  0.00    +2.610 S 
ATOM     14  O   LIG    1       -2.917   2.909  -2.253  0.00  0.00    -0.940 OA
ATOM     15  O   LIG    1       -3.059   5.037  -1.000  0.00  0.00    -0.940 OA
ATOM     16  C   LIG    1       -5.336   3.979  -1.903  0.00  0.00    -0.290 C 
ENDBRANCH  12  13
ENDBRANCH   5  12
ENDBRANCH   1  10
BRANCH   2  17
ATOM     17  N   LIG    1        1.193   1.683  -0.000  0.00  0.00    -0.510 N 
ATOM     18  H   LIG    1        1.179   2.653   0.005  0.00  0.00    +0.430 HD
ATOM     19  C   LIG    1        2.369   1.025  -0.015  0.00  0.00    +0.570 C 
ATOM     20  O   LIG    1        2.385  -0.191  -0.022  0.00  0.00    -0.520 OA
BRANCH  19  21
ATOM     21  C   LIG    1        3.639   1.781  -0.023  0.00  0.00    -0.130 A 
ATOM     22  C   LIG    1        3.623   3.177  -0.021  0.00  0.00    +0.110 A 
ATOM     23  C   LIG    1        4.812   3.877  -0.022  0.00  0.00    +0.040 A 
ATOM     24  C   LIG    1        6.018   3.199  -0.038  0.00  0.00    +0.130 A 
ATOM     25  C   LIG    1        6.040   1.815  -0.046  0.00  0.00    -0.050 A 
ATOM     26  C   LIG    1        4.859   1.103  -0.038  0.00  0.00    +0.180 A 
BRANCH  25  27
ATOM     27  N   LIG    1        7.335   1.097  -0.062  0.00  0.00    +0.030 N 
ATOM     28  O   LIG    1        8.379   1.725  -0.069  0.00  0.00    -0.150 OA
ATOM     29  O   LIG    1        7.356  -0.120  -0.070  0.00  0.00    -0.150 OA
ENDBRANCH  25  27
ENDBRANCH  19  21
ENDBRANCH   2  17
TORSDOF 6
