REMARK  Name = ZINCrD000000AsSn.0
REMARK                            x       y       z     vdW  Elec       q    Type
REMARK                         _______ _______ _______ _____ _____    ______ ____
ROOT
ATOM      1  O   LIG    1        3.361   2.710  -1.212  0.00  0.00    -0.490 OA
ATOM      2  C   LIG    1        3.450   1.618  -0.692  0.00  0.00    +0.530 C 
ATOM      3  N   LIG    1        2.402   1.106  -0.015  0.00  0.00    -0.670 N 
ATOM      4  H   LIG    1        2.494   0.264   0.456  0.00  0.00    +0.410 HD
ENDROOT
BRANCH   3   5
ATOM      5  C   LIG    1        1.182   1.791   0.007  0.00  0.00    +0.150 A 
ATOM      6  C   LIG    1       -0.013   1.084   0.012  0.00  0.00    -0.010 A 
ATOM      7  C   LIG    1       -1.215   1.763   0.028  0.00  0.00    +0.050 A 
ATOM      8  C   LIG    1       -1.230   3.145   0.051  0.00  0.00    -0.130 A 
ATOM      9  C   LIG    1       -0.042   3.853   0.045  0.00  0.00    +0.050 A 
ATOM     10  C   LIG    1        1.164   3.180   0.024  0.00  0.00    +0.020 A 
BRANCH   8  11
ATOM     11  C   LIG    1       -2.544   3.883   0.075  0.00  0.00    +0.340 C 
BRANCH  11  12
ATOM     12  N   LIG    1       -2.986   4.138  -1.298  0.00  0.00    -0.570 N 
ATOM     13  C   LIG    1       -2.659   5.249  -1.969  0.00  0.00    +0.530 C 
ATOM     14  C   LIG    1       -3.272   5.194  -3.352  0.00  0.00    +0.080 C 
ATOM     15  C   LIG    1       -4.027   3.849  -3.359  0.00  0.00    +0.080 C 
ATOM     16  O   LIG    1       -1.977   6.154  -1.539  0.00  0.00    -0.480 OA
ATOM     17  C   LIG    1       -3.756   3.283  -1.982  0.00  0.00    +0.530 C 
ATOM     18  O   LIG    1       -4.170   2.223  -1.565  0.00  0.00    -0.480 OA
ENDBRANCH  11  12
ENDBRANCH   8  11
ENDBRANCH   3   5
BRANCH   2  19
ATOM     19  C   LIG    1        4.731   0.832  -0.804  0.00  0.00    +0.100 C 
BRANCH  19  20
ATOM     20  S   LIG    1        5.940   1.781  -1.767  0.00  0.00    +0.010 S 
BRANCH  20  21
ATOM     21  C   LIG    1        7.348   0.721  -1.790  0.00  0.00    -0.160 A 
ATOM     22  C   LIG    1        7.305  -0.506  -1.143  0.00  0.00    +0.060 A 
ATOM     23  C   LIG    1        8.408  -1.338  -1.167  0.00  0.00    +0.010 A 
ATOM     24  C   LIG    1        9.560  -0.945  -1.825  0.00  0.00    +0.130 A 
ATOM     25  C   LIG    1        9.609   0.282  -2.468  0.00  0.00    -0.010 A 
ATOM     26  F   LIG    1       10.639  -1.758  -1.842  0.00  0.00    -0.130 F 
ATOM     27  C   LIG    1        8.506   1.115  -2.452  0.00  0.00    +0.150 A 
ATOM     28  F   LIG    1        8.554   2.312  -3.078  0.00  0.00    -0.120 F 
ENDBRANCH  20  21
ENDBRANCH  19  20
ENDBRANCH   2  19
TORSDOF 6
