REMARK  Name = ZINCAx0000000kir.0
REMARK                            x       y       z     vdW  Elec       q    Type
REMARK                         _______ _______ _______ _____ _____    ______ ____
ROOT
ATOM      1  C   LIG    1       -1.561   2.253   0.456  0.00  0.00    +0.130 A 
ATOM      2  C   LIG    1       -1.694   1.076  -0.268  0.00  0.00    +0.100 A 
ATOM      3  C   LIG    1       -0.593   0.270  -0.483  0.00  0.00    -0.010 A 
ATOM      4  C   LIG    1        0.648   0.642   0.016  0.00  0.00    +0.170 A 
ATOM      5  C   LIG    1        0.781   1.823   0.736  0.00  0.00    -0.640 A 
ATOM      6  C   LIG    1       -0.320   2.625   0.956  0.00  0.00    +0.100 A 
ENDROOT
BRANCH   4   7
ATOM      7  N   LIG    1        1.764  -0.171  -0.207  0.00  0.00    -0.500 N 
ATOM      8  C   LIG    1        1.494  -1.572   0.206  0.00  0.00    +0.200 C 
ATOM      9  C   LIG    1        2.562  -2.383  -0.569  0.00  0.00    +0.040 C 
ATOM     10  C   LIG    1        2.639  -1.646  -1.926  0.00  0.00    +0.020 C 
ATOM     11  C   LIG    1        2.097  -0.232  -1.647  0.00  0.00    +0.190 C 
ENDBRANCH   4   7
BRANCH   1  13
ATOM     12  C   LIG    1       -3.897   2.513   0.837  0.00  0.00    +0.600 C 
ATOM     13  N   LIG    1       -2.679   3.068   0.679  0.00  0.00    -0.660 N 
ATOM     14  H   LIG    1       -2.576   4.032   0.719  0.00  0.00    +0.430 HD
ATOM     15  O   LIG    1       -4.012   1.303   0.890  0.00  0.00    -0.530 OA
BRANCH  12  21
ATOM     16  O   LIG    1       -8.287   5.671   1.231  0.00  0.00    -0.520 OA
ATOM     17  C   LIG    1       -7.292   4.979   1.139  0.00  0.00    +0.700 A 
ATOM     18  N   LIG    1       -7.404   3.654   1.321  0.00  0.00    -0.620 N 
ATOM     19  H   LIG    1       -8.274   3.275   1.521  0.00  0.00    +0.450 HD
ATOM     20  C   LIG    1       -6.327   2.831   1.230  0.00  0.00    +0.470 A 
ATOM     21  C   LIG    1       -5.087   3.370   0.944  0.00  0.00    -0.330 A 
ATOM     22  C   LIG    1       -4.991   4.826   0.755  0.00  0.00    +0.570 A 
ATOM     23  O   LIG    1       -3.922   5.352   0.506  0.00  0.00    -0.500 OA
ATOM     24  N   LIG    1       -6.116   5.565   0.858  0.00  0.00    -0.650 N 
ATOM     25  H   LIG    1       -6.074   6.526   0.734  0.00  0.00    +0.440 HD
ENDBRANCH  12  21
ENDBRANCH   1  13
BRANCH   5  26
ATOM     26  S   LIG    1        2.356   2.296   1.369  0.00  0.00    +2.700 S 
ATOM     27  O   LIG    1        2.866   1.165   2.062  0.00  0.00    -0.920 OA
ATOM     28  O   LIG    1        2.178   3.566   1.980  0.00  0.00    -0.950 OA
BRANCH  26  29
ATOM     29  N   LIG    1        3.354   2.538   0.069  0.00  0.00    -1.050 N 
ATOM     30  H   LIG    1        4.111   1.949  -0.077  0.00  0.00    +0.430 HD
BRANCH  29  31
ATOM     31  C   LIG    1        3.106   3.589  -0.816  0.00  0.00    +0.170 A 
ATOM     32  C   LIG    1        1.812   3.839  -1.254  0.00  0.00    +0.000 A 
ATOM     33  C   LIG    1        1.569   4.882  -2.126  0.00  0.00    +0.060 A 
ATOM     34  C   LIG    1        2.614   5.671  -2.571  0.00  0.00    +0.060 A 
ATOM     35  C   LIG    1        3.904   5.422  -2.140  0.00  0.00    -0.160 A 
ATOM     36  C   LIG    1        4.153   4.384  -1.264  0.00  0.00    +0.050 A 
BRANCH  35  37
ATOM     37  C   LIG    1        5.040   6.285  -2.626  0.00  0.00    +0.510 C 
ATOM     38  F   LIG    1        6.034   6.346  -1.644  0.00  0.00    -0.170 F 
ATOM     39  F   LIG    1        4.566   7.574  -2.890  0.00  0.00    -0.170 F 
ATOM     40  F   LIG    1        5.574   5.736  -3.797  0.00  0.00    -0.170 F 
ENDBRANCH  35  37
ENDBRANCH  29  31
ENDBRANCH  26  29
ENDBRANCH   5  26
TORSDOF 7
