REMARK  Name = ZINCpe00000MJKGz.0
REMARK                            x       y       z     vdW  Elec       q    Type
REMARK                         _______ _______ _______ _____ _____    ______ ____
ROOT
ATOM      1  O   LIG    1        5.375   6.386  -0.533  0.00  0.00    -0.530 OA
ATOM      2  C   LIG    1        4.345   6.980  -0.785  0.00  0.00    +0.700 C 
ATOM      3  N   LIG    1        3.772   6.999  -1.995  0.00  0.00    -0.680 N 
ATOM      4  H   LIG    1        4.128   6.541  -2.773  0.00  0.00    +0.440 HD
ATOM      5  C   LIG    1        2.640   7.732  -1.998  0.00  0.00    +0.530 C 
ATOM      6  C   LIG    1        2.487   8.243  -0.584  0.00  0.00    +0.120 C 
ATOM      7  C   LIG    1        2.520   9.768  -0.562  0.00  0.00    +0.070 C 
ATOM      8  C   LIG    1        2.398  10.261   0.882  0.00  0.00    +0.030 C 
ATOM      9  C   LIG    1        1.087   9.753   1.485  0.00  0.00    +0.030 C 
ATOM     10  C   LIG    1        1.077   8.223   1.475  0.00  0.00    +0.020 C 
ATOM     11  C   LIG    1        1.194   7.722   0.034  0.00  0.00    +0.270 C 
ATOM     12  O   LIG    1        1.901   7.937  -2.936  0.00  0.00    -0.450 OA
ATOM     13  N   LIG    1        3.651   7.694   0.122  0.00  0.00    -0.720 N 
ATOM     14  H   LIG    1        3.876   7.820   1.058  0.00  0.00    +0.440 HD
ENDROOT
BRANCH  11  15
ATOM     15  N   LIG    1        1.204   6.258   0.025  0.00  0.00    -0.710 N 
ATOM     16  H   LIG    1        2.047   5.779   0.014  0.00  0.00    +0.410 HD
ATOM     17  C   LIG    1        0.042   5.575   0.033  0.00  0.00    +0.580 C 
ATOM     18  O   LIG    1       -1.015   6.175   0.046  0.00  0.00    -0.510 OA
BRANCH  17  19
ATOM     19  C   LIG    1        0.052   4.093   0.024  0.00  0.00    +0.050 A 
ATOM     20  N   LIG    1        1.204   3.446   0.009  0.00  0.00    -0.390 NA
ATOM     21  C   LIG    1        1.212   2.112   0.002  0.00  0.00    +0.080 A 
ATOM     22  C   LIG    1        2.423   1.394  -0.014  0.00  0.00    +0.060 A 
ATOM     23  C   LIG    1        2.400   0.034  -0.021  0.00  0.00    +0.040 A 
ATOM     24  C   LIG    1        1.193  -0.663  -0.013  0.00  0.00    +0.060 A 
ATOM     25  C   LIG    1        0.002  -0.004   0.002  0.00  0.00    +0.060 A 
ATOM     26  C   LIG    1       -0.017   1.401   0.010  0.00  0.00    +0.100 A 
ATOM     27  N   LIG    1       -1.173   2.074   0.019  0.00  0.00    -0.420 NA
ATOM     28  C   LIG    1       -1.163   3.387   0.032  0.00  0.00    +0.320 A 
ENDBRANCH  17  19
ENDBRANCH  11  15
TORSDOF 2
