REMARK  Name = ZINCrD00000758Mm.0
REMARK                            x       y       z     vdW  Elec       q    Type
REMARK                         _______ _______ _______ _____ _____    ______ ____
ROOT
ATOM      1  C   LIG    1       -3.213   2.241   1.394  0.00  0.00    +0.510 C 
ATOM      2  O   LIG    1       -2.833   3.164   0.703  0.00  0.00    -0.480 OA
ENDROOT
BRANCH   1  11
ATOM      3  C   LIG    1       -4.292   4.471  -0.633  0.00  0.00    +0.210 C 
ATOM      4  C   LIG    1       -5.479   3.566  -0.431  0.00  0.00    +0.150 A 
ATOM      5  N   LIG    1       -6.650   3.700  -0.975  0.00  0.00    -0.270 NA
ATOM      6  O   LIG    1       -7.500   2.656  -0.543  0.00  0.00    -0.080 OA
ATOM      7  C   LIG    1       -6.824   1.848   0.300  0.00  0.00    +0.300 A 
ATOM      8  N   LIG    1       -7.158   0.754   0.967  0.00  0.00    -0.450 NA
ATOM      9  C   LIG    1       -6.306   0.125   1.748  0.00  0.00    +0.230 A 
ATOM     10  C   LIG    1       -5.005   0.571   1.913  0.00  0.00    +0.030 A 
ATOM     11  C   LIG    1       -4.590   1.723   1.243  0.00  0.00    +0.010 A 
ATOM     12  C   LIG    1       -5.526   2.374   0.415  0.00  0.00    -0.200 A 
BRANCH   9  13
ATOM     13  C   LIG    1       -6.755  -1.115   2.476  0.00  0.00    +0.020 C 
ATOM     14  C   LIG    1       -5.671  -2.024   3.059  0.00  0.00    +0.040 C 
ATOM     15  C   LIG    1       -6.456  -2.466   1.821  0.00  0.00    +0.060 C 
ENDBRANCH   9  13
ENDBRANCH   1  11
BRANCH   1  16
ATOM     16  O   LIG    1       -2.381   1.687   2.297  0.00  0.00    -0.320 OA
BRANCH  16  17
ATOM     17  C   LIG    1       -1.044   2.246   2.390  0.00  0.00    +0.190 C 
ATOM     18  C   LIG    1       -0.114   1.507   1.425  0.00  0.00    +0.080 C 
BRANCH  17  19
ATOM     19  C   LIG    1       -0.532   2.091   3.799  0.00  0.00    +0.520 C 
ATOM     20  N   LIG    1        0.654   2.629   4.148  0.00  0.00    -0.720 N 
ATOM     21  H   LIG    1        1.177   3.116   3.492  0.00  0.00    +0.410 HD
ATOM     22  O   LIG    1       -1.186   1.483   4.619  0.00  0.00    -0.510 OA
BRANCH  20  23
ATOM     23  C   LIG    1        1.151   2.479   5.518  0.00  0.00    +0.370 C 
BRANCH  23  24
ATOM     24  C   LIG    1        2.486   3.167   5.645  0.00  0.00    -0.220 A 
ATOM     25  C   LIG    1        2.664   4.442   5.995  0.00  0.00    +0.030 A 
ATOM     26  C   LIG    1        3.985   4.854   6.046  0.00  0.00    +0.000 A 
ATOM     27  C   LIG    1        4.879   3.913   5.738  0.00  0.00    -0.030 A 
ATOM     28  S   LIG    1        4.048   2.409   5.364  0.00  0.00    +0.120 S 
ENDBRANCH  23  24
ENDBRANCH  20  23
ENDBRANCH  17  19
ENDBRANCH  16  17
ENDBRANCH   1  16
TORSDOF 7
