REMARK  Name = ZINCvU0000000Gv1.0
REMARK                            x       y       z     vdW  Elec       q    Type
REMARK                         _______ _______ _______ _____ _____    ______ ____
ROOT
ATOM      1  C   LIG    1        4.894   1.818  -0.034  0.00  0.00    +0.040 C 
ENDROOT
BRANCH   1   2
ATOM      2  C   LIG    1        3.460   2.283  -0.018  0.00  0.00    +0.450 C 
ATOM      3  O   LIG    1        3.207   3.472  -0.010  0.00  0.00    -0.510 OA
BRANCH   2   4
ATOM      4  C   LIG    1        2.416   1.342  -0.013  0.00  0.00    -0.350 C 
ATOM      5  C   LIG    1        1.079   1.776   0.001  0.00  0.00    +0.530 A 
ATOM      6  N   LIG    1       -0.011   0.966   0.007  0.00  0.00    -0.600 N 
ATOM      7  H   LIG    1        0.002  -0.004   0.002  0.00  0.00    +0.450 HD
ATOM      8  C   LIG    1       -1.149   1.765   0.016  0.00  0.00    +0.080 A 
ATOM      9  C   LIG    1       -2.507   1.480   0.033  0.00  0.00    +0.040 A 
ATOM     10  C   LIG    1       -3.425   2.510   0.046  0.00  0.00    +0.040 A 
ATOM     11  C   LIG    1       -2.998   3.827   0.049  0.00  0.00    +0.040 A 
ATOM     12  C   LIG    1       -1.649   4.122   0.038  0.00  0.00    +0.050 A 
ATOM     13  C   LIG    1       -0.717   3.094   0.025  0.00  0.00    +0.080 A 
ATOM     14  N   LIG    1        0.673   3.072   0.012  0.00  0.00    -0.570 N 
ATOM     15  H   LIG    1        1.253   3.850   0.010  0.00  0.00    +0.460 HD
BRANCH   4  17
ATOM     16  N   LIG    1        2.951  -1.169  -0.031  0.00  0.00    -0.450 NA
ATOM     17  C   LIG    1        2.715  -0.058  -0.023  0.00  0.00    +0.280 C 
ENDBRANCH   4  17
ENDBRANCH   2   4
ENDBRANCH   1   2
BRANCH   1  18
ATOM     18  S   LIG    1        5.994   3.255  -0.037  0.00  0.00    +0.080 S 
BRANCH  18  19
ATOM     19  C   LIG    1        7.558   2.442  -0.056  0.00  0.00    +0.190 A 
ATOM     20  C   LIG    1        8.759   3.194  -0.069  0.00  0.00    -0.160 A 
ATOM     21  C   LIG    1        8.969   4.636  -0.071  0.00  0.00    -0.030 A 
ATOM     22  C   LIG    1       10.249   5.006  -0.086  0.00  0.00    -0.010 A 
ATOM     23  S   LIG    1       11.314   3.613  -0.086  0.00  0.00    +0.190 S 
ATOM     24  C   LIG    1        9.963   2.489  -0.078  0.00  0.00    +0.100 A 
ATOM     25  N   LIG    1        9.933   1.150  -0.085  0.00  0.00    -0.500 NA
ATOM     26  C   LIG    1        8.794   0.497  -0.077  0.00  0.00    +0.540 A 
ATOM     27  N   LIG    1        7.628   1.118  -0.063  0.00  0.00    -0.530 NA
BRANCH  21  28
ATOM     28  C   LIG    1        7.853   5.610  -0.057  0.00  0.00    -0.040 A 
ATOM     29  C   LIG    1        6.808   5.490  -0.973  0.00  0.00    +0.040 A 
ATOM     30  C   LIG    1        5.767   6.396  -0.951  0.00  0.00    +0.030 A 
ATOM     31  C   LIG    1        5.766   7.430  -0.032  0.00  0.00    +0.010 A 
ATOM     32  C   LIG    1        6.803   7.558   0.875  0.00  0.00    +0.010 A 
ATOM     33  C   LIG    1        7.845   6.654   0.867  0.00  0.00    +0.020 A 
ENDBRANCH  21  28
ENDBRANCH  18  19
ENDBRANCH   1  18
TORSDOF 6
