REMARK  Name = ZINCrH000004k06c.0
REMARK                            x       y       z     vdW  Elec       q    Type
REMARK                         _______ _______ _______ _____ _____    ______ ____
ROOT
ATOM      1  O   LIG    1        2.366   1.125  -0.015  0.00  0.00    -0.250 OA
ENDROOT
BRANCH   1   2
ATOM      2  C   LIG    1        1.179   1.786   0.000  0.00  0.00    +0.230 A 
ATOM      3  C   LIG    1       -0.013   1.076   0.008  0.00  0.00    -0.060 A 
ATOM      4  C   LIG    1       -1.218   1.751   0.017  0.00  0.00    +0.180 A 
ATOM      5  C   LIG    1       -1.237   3.133   0.030  0.00  0.00    -0.220 A 
ATOM      6  C   LIG    1       -0.051   3.844   0.022  0.00  0.00    +0.200 A 
ATOM      7  C   LIG    1        1.157   3.174   0.008  0.00  0.00    -0.080 A 
BRANCH   5   8
ATOM      8  C   LIG    1       -2.554   3.867   0.047  0.00  0.00    +0.520 C 
ATOM      9  F   LIG    1       -2.398   5.088   0.712  0.00  0.00    -0.170 F 
ATOM     10  F   LIG    1       -3.511   3.093   0.712  0.00  0.00    -0.170 F 
ATOM     11  F   LIG    1       -2.974   4.101  -1.266  0.00  0.00    -0.170 F 
ENDBRANCH   5   8
BRANCH   7  12
ATOM     12  N   LIG    1        2.426   3.935   0.000  0.00  0.00    +0.030 N 
ATOM     13  O   LIG    1        3.491   3.343  -0.013  0.00  0.00    -0.110 OA
ATOM     14  O   LIG    1        2.406   5.152   0.006  0.00  0.00    -0.170 OA
ENDBRANCH   7  12
ENDBRANCH   1   2
BRANCH   1  15
ATOM     15  C   LIG    1        2.312  -0.303  -0.022  0.00  0.00    +0.230 C 
BRANCH  15  18
ATOM     16  C   LIG    1        2.762  -3.102  -0.041  0.00  0.00    +0.280 C 
ATOM     17  N   LIG    1        3.910  -2.192  -0.047  0.00  0.00    -0.610 N 
ATOM     18  C   LIG    1        3.713  -0.858  -0.038  0.00  0.00    +0.510 C 
ATOM     19  O   LIG    1        4.664  -0.105  -0.043  0.00  0.00    -0.470 OA
BRANCH  17  20
ATOM     20  C   LIG    1        5.272  -2.731  -0.063  0.00  0.00    +0.360 C 
BRANCH  20  21
ATOM     21  C   LIG    1        5.753  -2.924   1.352  0.00  0.00    -0.150 A 
ATOM     22  C   LIG    1        5.818  -4.194   1.893  0.00  0.00    +0.050 A 
ATOM     23  C   LIG    1        6.259  -4.371   3.192  0.00  0.00    -0.010 A 
ATOM     24  C   LIG    1        6.635  -3.278   3.950  0.00  0.00    +0.050 A 
ATOM     25  C   LIG    1        6.570  -2.007   3.411  0.00  0.00    -0.020 A 
ATOM     26  C   LIG    1        6.134  -1.829   2.109  0.00  0.00    +0.120 A 
ATOM     27  F   LIG    1        6.077  -0.587   1.579  0.00  0.00    -0.110 F 
ENDBRANCH  20  21
ENDBRANCH  17  20
ENDBRANCH  15  18
ENDBRANCH   1  15
TORSDOF 7
