REMARK  Name = ZINCtV00000tRR8m.0
REMARK                            x       y       z     vdW  Elec       q    Type
REMARK                         _______ _______ _______ _____ _____    ______ ____
ROOT
ATOM      1  C   LIG    1       -3.307   2.402   0.048  0.00  0.00    +0.300 A 
ATOM      2  N   LIG    1       -2.529   1.359   0.035  0.00  0.00    -0.480 NA
ATOM      3  C   LIG    1       -1.231   1.759   0.017  0.00  0.00    +0.050 A 
ATOM      4  C   LIG    1       -0.013   1.076   0.008  0.00  0.00    +0.070 A 
ATOM      5  C   LIG    1        1.161   1.776   0.001  0.00  0.00    +0.000 A 
ATOM      6  C   LIG    1        1.157   3.163   0.008  0.00  0.00    +0.030 A 
ATOM      7  C   LIG    1       -0.034   3.859   0.023  0.00  0.00    +0.010 A 
ATOM      8  C   LIG    1       -1.236   3.164   0.031  0.00  0.00    +0.050 A 
ATOM      9  N   LIG    1       -2.564   3.541   0.046  0.00  0.00    -0.480 N 
ENDROOT
BRANCH   1  10
ATOM     10  C   LIG    1       -4.814   2.354   0.062  0.00  0.00    +0.120 C 
ATOM     11  C   LIG    1       -5.312   1.623  -1.186  0.00  0.00    +0.060 C 
BRANCH  10  15
ATOM     12  C   LIG    1       -6.140   0.279   3.553  0.00  0.00    -0.070 A 
ATOM     13  C   LIG    1       -6.517   1.593   3.344  0.00  0.00    +0.000 A 
ATOM     14  C   LIG    1       -6.088   2.264   2.215  0.00  0.00    +0.010 A 
ATOM     15  C   LIG    1       -5.281   1.622   1.294  0.00  0.00    -0.090 A 
ATOM     16  C   LIG    1       -4.908   0.307   1.500  0.00  0.00    +0.060 A 
ATOM     17  C   LIG    1       -5.334  -0.363   2.632  0.00  0.00    +0.000 A 
BRANCH  12  18
ATOM     18  C   LIG    1       -6.608  -0.453   4.784  0.00  0.00    +0.060 C 
BRANCH  18  20
ATOM     19  C   LIG    1       -7.721  -2.234   3.432  0.00  0.00    +0.010 C 
ATOM     20  C   LIG    1       -7.938  -1.150   4.489  0.00  0.00    -0.020 C 
ATOM     21  C   LIG    1       -8.474  -1.788   5.772  0.00  0.00    +0.020 C 
ENDBRANCH  18  20
ENDBRANCH  12  18
ENDBRANCH  10  15
ENDBRANCH   1  10
BRANCH   9  22
ATOM     22  C   LIG    1       -3.077   4.913   0.058  0.00  0.00    +0.350 C 
BRANCH  22  23
ATOM     23  C   LIG    1       -3.268   5.390  -1.358  0.00  0.00    -0.130 A 
ATOM     24  C   LIG    1       -2.236   6.034  -2.015  0.00  0.00    +0.060 A 
ATOM     25  C   LIG    1       -2.409   6.467  -3.316  0.00  0.00    -0.010 A 
ATOM     26  C   LIG    1       -3.619   6.267  -3.958  0.00  0.00    +0.110 A 
ATOM     27  C   LIG    1       -4.654   5.627  -3.296  0.00  0.00    -0.010 A 
ATOM     28  F   LIG    1       -3.791   6.696  -5.227  0.00  0.00    -0.140 F 
ATOM     29  C   LIG    1       -4.478   5.189  -1.998  0.00  0.00    +0.060 A 
ENDBRANCH  22  23
ENDBRANCH   9  22
TORSDOF 6
