REMARK  Name = ZINCvU00000008C5.0
REMARK                            x       y       z     vdW  Elec       q    Type
REMARK                         _______ _______ _______ _____ _____    ______ ____
ROOT
ATOM      1  C   LIG    1        0.704  -0.210  -1.548  0.00  0.00    +0.150 A 
ATOM      2  N   LIG    1        1.578   0.542  -2.180  0.00  0.00    -0.290 NA
ATOM      3  N   LIG    1        2.052  -0.090  -3.194  0.00  0.00    -0.260 NA
ATOM      4  C   LIG    1        1.504  -1.280  -3.276  0.00  0.00    +0.230 A 
ATOM      5  N   LIG    1        0.625  -1.394  -2.225  0.00  0.00    -0.450 N 
ENDROOT
BRANCH   4   6
ATOM      6  C   LIG    1        1.782  -2.305  -4.305  0.00  0.00    -0.070 A 
ATOM      7  C   LIG    1        1.754  -3.666  -3.979  0.00  0.00    +0.070 A 
ATOM      8  C   LIG    1        2.020  -4.586  -4.979  0.00  0.00    -0.020 A 
ATOM      9  C   LIG    1        2.302  -4.135  -6.255  0.00  0.00    +0.270 A 
ATOM     10  N   LIG    1        2.322  -2.845  -6.534  0.00  0.00    -0.480 NA
ATOM     11  C   LIG    1        2.070  -1.933  -5.619  0.00  0.00    +0.320 A 
ENDBRANCH   4   6
BRANCH   1  12
ATOM     12  S   LIG    1       -0.201   0.230  -0.102  0.00  0.00    +0.090 S 
BRANCH  12  13
ATOM     13  C   LIG    1        0.441   1.899   0.175  0.00  0.00    +0.110 C 
BRANCH  13  16
ATOM     14  N   LIG    1        0.116   3.736   1.800  0.00  0.00    -0.660 N 
ATOM     15  H   LIG    1        0.719   4.276   1.264  0.00  0.00    +0.420 HD
ATOM     16  C   LIG    1       -0.210   2.492   1.398  0.00  0.00    +0.540 C 
ATOM     17  O   LIG    1       -1.028   1.849   2.021  0.00  0.00    -0.500 OA
BRANCH  14  25
ATOM     18  C   LIG    1        1.733   5.498   3.342  0.00  0.00    +0.110 C 
ATOM     19  C   LIG    1        0.341   5.113   3.772  0.00  0.00    -0.100 A 
ATOM     20  C   LIG    1       -0.186   5.621   4.942  0.00  0.00    +0.050 A 
ATOM     21  C   LIG    1       -1.462   5.265   5.340  0.00  0.00    +0.020 A 
ATOM     22  C   LIG    1       -2.215   4.401   4.565  0.00  0.00    -0.020 A 
ATOM     23  C   LIG    1       -1.694   3.892   3.390  0.00  0.00    +0.040 A 
ATOM     24 CL   LIG    1       -3.816   3.955   5.069  0.00  0.00    -0.060 Cl
ATOM     25  C   LIG    1       -0.414   4.250   2.988  0.00  0.00    +0.150 A 
ENDBRANCH  14  25
ENDBRANCH  13  16
ENDBRANCH  12  13
ENDBRANCH   1  12
BRANCH   5  26
ATOM     26  C   LIG    1       -0.221  -2.545  -1.899  0.00  0.00    +0.360 C 
BRANCH  26  27
ATOM     27  C   LIG    1       -1.498  -2.472  -2.696  0.00  0.00    -0.130 A 
ATOM     28  C   LIG    1       -2.599  -1.816  -2.179  0.00  0.00    +0.040 A 
ATOM     29  C   LIG    1       -3.769  -1.745  -2.912  0.00  0.00    +0.010 A 
ATOM     30  C   LIG    1       -3.841  -2.339  -4.158  0.00  0.00    +0.030 A 
ATOM     31  C   LIG    1       -2.741  -2.999  -4.673  0.00  0.00    +0.010 A 
ATOM     32  C   LIG    1       -1.569  -3.066  -3.942  0.00  0.00    +0.020 A 
ENDBRANCH  26  27
ENDBRANCH   5  26
TORSDOF 7
