REMARK  Name = ZINCvU00000003RX.0
REMARK                            x       y       z     vdW  Elec       q    Type
REMARK                         _______ _______ _______ _____ _____    ______ ____
ROOT
ATOM      1  C   LIG    1       -0.977  -2.162  -0.001  0.00  0.00    +0.560 C 
ATOM      2  N   LIG    1       -1.120  -0.822   0.008  0.00  0.00    -0.620 N 
ATOM      3  H   LIG    1       -2.007  -0.429   0.018  0.00  0.00    +0.420 HD
ATOM      4  O   LIG    1        0.134  -2.655  -0.013  0.00  0.00    -0.470 OA
ENDROOT
BRANCH   1   9
ATOM      5  C   LIG    1       -4.559  -3.288   0.026  0.00  0.00    -0.690 A 
ATOM      6  C   LIG    1       -4.410  -4.664   0.017  0.00  0.00    +0.190 A 
ATOM      7  C   LIG    1       -3.147  -5.229   0.003  0.00  0.00    +0.030 A 
ATOM      8  C   LIG    1       -2.026  -4.422  -0.004  0.00  0.00    +0.070 A 
ATOM      9  C   LIG    1       -2.171  -3.032   0.005  0.00  0.00    -0.150 A 
ATOM     10 CL   LIG    1       -0.443  -5.133  -0.022  0.00  0.00    -0.000 Cl
ATOM     11  C   LIG    1       -3.449  -2.470   0.025  0.00  0.00    +0.180 A 
BRANCH   5  12
ATOM     12  S   LIG    1       -6.172  -2.579   0.044  0.00  0.00    +2.690 S 
ATOM     13  O   LIG    1       -7.047  -3.559  -0.498  0.00  0.00    -0.940 OA
ATOM     14  O   LIG    1       -6.042  -1.271  -0.494  0.00  0.00    -0.940 OA
BRANCH  12  15
ATOM     15  N   LIG    1       -6.607  -2.391   1.631  0.00  0.00    -0.990 NA
BRANCH  15  17
ATOM     16  C   LIG    1       -7.492  -0.203   2.273  0.00  0.00    +0.010 C 
ATOM     17  C   LIG    1       -6.289  -1.146   2.335  0.00  0.00    +0.280 C 
ENDBRANCH  15  17
BRANCH  15  18
ATOM     18  C   LIG    1       -7.309  -3.469   2.331  0.00  0.00    +0.300 C 
ATOM     19  C   LIG    1       -6.297  -4.329   3.091  0.00  0.00    +0.000 C 
ENDBRANCH  15  18
ENDBRANCH  12  15
ENDBRANCH   5  12
ENDBRANCH   1   9
BRANCH   2  20
ATOM     20  C   LIG    1        0.002  -0.004   0.002  0.00  0.00    +0.270 A 
ATOM     21  N   LIG    1       -0.015   1.293   0.009  0.00  0.00    -0.490 NA
ATOM     22  C   LIG    1        1.157   1.911   0.001  0.00  0.00    +0.120 A 
ATOM     23  C   LIG    1        2.234   1.104  -0.013  0.00  0.00    -0.080 A 
ATOM     24  S   LIG    1        1.671  -0.566  -0.017  0.00  0.00    +0.220 S 
BRANCH  22  25
ATOM     25  C   LIG    1        1.274   3.389   0.008  0.00  0.00    -0.020 A 
ATOM     26  C   LIG    1        0.129   4.181   0.023  0.00  0.00    +0.060 A 
ATOM     27  C   LIG    1        0.244   5.559   0.029  0.00  0.00    +0.090 A 
ATOM     28  C   LIG    1        1.496   6.152   0.020  0.00  0.00    +0.030 A 
ATOM     29  C   LIG    1        2.637   5.370   0.005  0.00  0.00    +0.030 A 
ATOM     30  F   LIG    1       -0.867   6.328   0.044  0.00  0.00    -0.130 F 
ATOM     31  C   LIG    1        2.533   3.992   0.004  0.00  0.00    +0.100 A 
ATOM     32  F   LIG    1        3.649   3.230  -0.005  0.00  0.00    -0.120 F 
ENDBRANCH  22  25
ENDBRANCH   2  20
TORSDOF 7
