REMARK  Name = ZINCpk00000FBYly.0
REMARK                            x       y       z     vdW  Elec       q    Type
REMARK                         _______ _______ _______ _____ _____    ______ ____
ROOT
ATOM      1  CA  LIG    1       -1.411  -0.690  -2.959  0.00  0.00    +0.240 C 
ATOM      2  N   LIG    1       -0.280   0.187  -3.231  0.00  0.00    -0.710 N 
ATOM      3  H   LIG    1        0.270   0.007  -4.010  0.00  0.00    +0.410 HD
ATOM      4  C   LIG    1        0.032   1.228  -2.455  0.00  0.00    +0.520 C 
ATOM      5  CA  LIG    1       -0.753   1.593  -1.232  0.00  0.00    +0.260 C 
ATOM      6  N   LIG    1       -2.085   1.006  -1.265  0.00  0.00    -0.710 N 
ATOM      7  H   LIG    1       -2.774   1.385  -0.696  0.00  0.00    +0.410 HD
ATOM      8  O   LIG    1        0.992   1.906  -2.754  0.00  0.00    -0.530 OA
ATOM      9  C   LIG    1       -2.401  -0.033  -2.045  0.00  0.00    +0.520 C 
ATOM     10  O   LIG    1       -3.535  -0.462  -2.011  0.00  0.00    -0.520 OA
ENDROOT
BRANCH   1  11
ATOM     11  C   LIG    1       -2.102  -1.038  -4.279  0.00  0.00    +0.150 C 
BRANCH  11  18
ATOM     12  C   LIG    1       -1.601  -4.166  -4.191  0.00  0.00    +0.150 C 
ATOM     13  C   LIG    1       -0.928  -3.188  -5.119  0.00  0.00    +0.080 A 
ATOM     14  N   LIG    1       -0.035  -3.484  -6.029  0.00  0.00    -0.290 NA
ATOM     15  N   LIG    1        0.340  -2.299  -6.675  0.00  0.00    -0.370 N 
ATOM     16  C   LIG    1       -0.362  -1.286  -6.126  0.00  0.00    +0.230 A 
ATOM     17  C   LIG    1        1.317  -2.182  -7.760  0.00  0.00    +0.360 C 
ATOM     18  C   LIG    1       -1.150  -1.808  -5.157  0.00  0.00    -0.250 A 
ENDBRANCH  11  18
ENDBRANCH   1  11
BRANCH   5  19
ATOM     19  C   LIG    1       -0.013   1.086   0.008  0.00  0.00    +0.050 C 
BRANCH  19  20
ATOM     20  C   LIG    1       -0.729   1.579   1.267  0.00  0.00    -0.010 C 
ATOM     21  C   LIG    1       -0.641   3.105   1.339  0.00  0.00    +0.040 C 
ATOM     22  C   LIG    1       -1.357   3.598   2.597  0.00  0.00    +0.030 C 
ATOM     23  C   LIG    1       -0.692   2.990   3.834  0.00  0.00    +0.290 C 
ATOM     24  C   LIG    1       -0.780   1.465   3.762  0.00  0.00    +0.030 C 
ATOM     25  F   LIG    1        0.651   3.379   3.879  0.00  0.00    -0.200 F 
ATOM     26  F   LIG    1       -1.347   3.442   4.985  0.00  0.00    -0.200 F 
ATOM     27  C   LIG    1       -0.064   0.971   2.503  0.00  0.00    +0.050 C 
ENDBRANCH  19  20
ENDBRANCH   5  19
TORSDOF 4
