REMARK  Name = ZINCtV00000L6jAZ.0
REMARK                            x       y       z     vdW  Elec       q    Type
REMARK                         _______ _______ _______ _____ _____    ______ ____
ROOT
ATOM      1  C   LIG    1        1.318  -4.825  -0.835  0.00  0.00    -0.110 A 
ATOM      2  C   LIG    1        1.009  -6.137  -0.600  0.00  0.00    +0.030 A 
ATOM      3  S   LIG    1       -0.320  -6.272   0.458  0.00  0.00    +0.240 S 
ATOM      4  C   LIG    1       -0.482  -4.532   0.609  0.00  0.00    -0.030 A 
ATOM      5  C   LIG    1        0.442  -3.904  -0.130  0.00  0.00    -0.020 A 
ENDROOT
BRANCH   2   6
ATOM      6  N   LIG    1        1.690  -7.217  -1.150  0.00  0.00    -0.380 N 
ATOM      7  C   LIG    1        1.736  -7.537  -2.478  0.00  0.00    +0.020 A 
ATOM      8  C   LIG    1        2.494  -8.643  -2.618  0.00  0.00    -0.040 A 
ATOM      9  C   LIG    1        2.925  -9.027  -1.332  0.00  0.00    -0.040 A 
ATOM     10  C   LIG    1        1.060  -6.782  -3.594  0.00  0.00    +0.130 C 
ATOM     11  C   LIG    1        2.421  -8.138  -0.453  0.00  0.00    +0.020 A 
ATOM     12  C   LIG    1        2.626  -8.157   1.040  0.00  0.00    +0.130 C 
ENDBRANCH   2   6
BRANCH   5  13
ATOM     13  C   LIG    1        0.563  -2.430  -0.213  0.00  0.00    -0.040 A 
ATOM     14  C   LIG    1       -0.561  -1.653  -0.495  0.00  0.00    +0.040 A 
ATOM     15  C   LIG    1       -0.448  -0.282  -0.573  0.00  0.00    +0.020 A 
ATOM     16  C   LIG    1        0.789   0.329  -0.369  0.00  0.00    -0.030 A 
ATOM     17  C   LIG    1        1.914  -0.449  -0.093  0.00  0.00    +0.020 A 
ATOM     18  C   LIG    1        1.801  -1.819  -0.010  0.00  0.00    +0.030 A 
BRANCH  16  19
ATOM     19  C   LIG    1        0.910   1.804  -0.453  0.00  0.00    -0.050 A 
ATOM     20  C   LIG    1       -0.210   2.583  -0.741  0.00  0.00    +0.020 A 
ATOM     21  C   LIG    1       -0.092   3.956  -0.814  0.00  0.00    +0.010 A 
ATOM     22  C   LIG    1        1.136   4.559  -0.612  0.00  0.00    +0.000 A 
ATOM     23  C   LIG    1        2.252   3.791  -0.331  0.00  0.00    +0.010 A 
ATOM     24  C   LIG    1        2.145   2.417  -0.251  0.00  0.00    +0.020 A 
ENDBRANCH  16  19
ENDBRANCH   5  13
BRANCH   1  25
ATOM     25  C   LIG    1        2.415  -4.394  -1.704  0.00  0.00    +0.540 C 
ATOM     26  O   LIG    1        3.547  -4.325  -1.264  0.00  0.00    -0.490 OA
BRANCH  25  27
ATOM     27  O   LIG    1        2.170  -4.074  -2.991  0.00  0.00    -0.340 OA
BRANCH  27  29
ATOM     28  C   LIG    1        2.834  -3.281  -5.195  0.00  0.00    +0.070 C 
ATOM     29  C   LIG    1        3.316  -3.731  -3.814  0.00  0.00    +0.200 C 
ENDBRANCH  27  29
ENDBRANCH  25  27
ENDBRANCH   1  25
TORSDOF 6
