REMARK  Name = ZINCkj000005kfih.1
REMARK                            x       y       z     vdW  Elec       q    Type
REMARK                         _______ _______ _______ _____ _____    ______ ____
ROOT
ATOM      1  N   LIG    1       -3.479   6.817   2.747  0.00  0.00    -0.730 N 
ATOM      2  H   LIG    1       -3.089   6.451   3.556  0.00  0.00    +0.400 HD
ATOM      3  C   LIG    1       -2.971   6.485   1.544  0.00  0.00    +0.720 C 
ATOM      4  N   LIG    1       -1.989   5.566   1.458  0.00  0.00    -0.640 N 
ATOM      5  C   LIG    1       -1.377   4.989   2.666  0.00  0.00    +0.310 C 
ATOM      6  C   LIG    1       -1.419   3.465   2.535  0.00  0.00    +0.260 C 
ATOM      7  N   LIG    1       -0.761   3.049   1.286  0.00  0.00    -0.380 N 
ATOM      8  C   LIG    1       -0.739   1.579   1.259  0.00  0.00    +0.250 C 
ATOM      9  C   LIG    1       -0.018   1.083   0.006  0.00  0.00    +0.050 C 
ATOM     10  C   LIG    1       -0.764   1.595  -1.230  0.00  0.00    +0.040 C 
ATOM     11  C   LIG    1       -0.817   3.122  -1.171  0.00  0.00    +0.070 C 
ATOM     12  C   LIG    1       -1.495   3.571   0.128  0.00  0.00    +0.160 C 
ATOM     13  H   LIG    1        0.185   3.400   1.270  0.00  0.00    +0.420 HD
ATOM     14  C   LIG    1       -1.492   5.105   0.155  0.00  0.00    +0.340 C 
ATOM     15  O   LIG    1       -3.399   7.014   0.536  0.00  0.00    -0.560 OA
ENDROOT
BRANCH   1  16
ATOM     16  C   LIG    1       -4.621   7.731   2.833  0.00  0.00    +0.410 C 
BRANCH  16  20
ATOM     17  C   LIG    1       -5.060   9.536   7.572  0.00  0.00    +0.210 C 
ATOM     18  C   LIG    1       -5.167   8.727   6.306  0.00  0.00    -0.020 A 
ATOM     19  C   LIG    1       -4.566   8.991   5.121  0.00  0.00    -0.050 A 
ATOM     20  C   LIG    1       -4.991   7.938   4.279  0.00  0.00    -0.010 A 
ATOM     21  N   LIG    1       -5.771   7.184   5.000  0.00  0.00    -0.350 NA
ATOM     22  O   LIG    1       -5.876   7.603   6.129  0.00  0.00    +0.110 OA
ENDBRANCH  16  20
ENDBRANCH   1  16
TORSDOF 2
