REMARK  Name = ZINCkj000005kfih.0
REMARK                            x       y       z     vdW  Elec       q    Type
REMARK                         _______ _______ _______ _____ _____    ______ ____
ROOT
ATOM      1  N   LIG    1       -0.721   1.571  -1.179  0.00  0.00    -0.730 N 
ATOM      2  H   LIG    1       -1.515   2.119  -1.079  0.00  0.00    +0.400 HD
ATOM      3  C   LIG    1       -0.268   1.258  -2.409  0.00  0.00    +0.720 C 
ATOM      4  N   LIG    1       -0.974   1.619  -3.499  0.00  0.00    -0.640 N 
ATOM      5  C   LIG    1       -2.187   2.442  -3.377  0.00  0.00    +0.310 C 
ATOM      6  C   LIG    1       -3.317   1.762  -4.152  0.00  0.00    +0.250 C 
ATOM      7  N   LIG    1       -2.885   1.531  -5.538  0.00  0.00    -0.380 N 
ATOM      8  C   LIG    1       -4.008   0.979  -6.308  0.00  0.00    +0.250 C 
ATOM      9  C   LIG    1       -4.511  -0.299  -5.634  0.00  0.00    +0.050 C 
ATOM     10  C   LIG    1       -3.375  -1.325  -5.580  0.00  0.00    +0.030 C 
ATOM     11  C   LIG    1       -2.180  -0.708  -4.846  0.00  0.00    +0.060 C 
ATOM     12  C   LIG    1       -1.766   0.581  -5.559  0.00  0.00    +0.170 C 
ATOM     13  H   LIG    1       -2.593   2.405  -5.949  0.00  0.00    +0.430 HD
ATOM     14  C   LIG    1       -0.558   1.195  -4.845  0.00  0.00    +0.350 C 
ATOM     15  O   LIG    1        0.777   0.651  -2.535  0.00  0.00    -0.560 OA
ENDROOT
BRANCH   1  16
ATOM     16  C   LIG    1       -0.014   1.085   0.008  0.00  0.00    +0.410 C 
BRANCH  16  20
ATOM     17  C   LIG    1       -3.001   1.490   4.109  0.00  0.00    +0.200 C 
ATOM     18  C   LIG    1       -2.006   1.726   3.002  0.00  0.00    -0.020 A 
ATOM     19  C   LIG    1       -1.692   0.873   1.998  0.00  0.00    -0.060 A 
ATOM     20  C   LIG    1       -0.719   1.571   1.248  0.00  0.00    -0.010 A 
ATOM     21  N   LIG    1       -0.556   2.721   1.837  0.00  0.00    -0.340 NA
ATOM     22  O   LIG    1       -1.262   2.825   2.813  0.00  0.00    +0.110 OA
ENDBRANCH  16  20
ENDBRANCH   1  16
TORSDOF 2
