REMARK  Name = ZINCrH000004pN1V.0
REMARK                            x       y       z     vdW  Elec       q    Type
REMARK                         _______ _______ _______ _____ _____    ______ ____
ROOT
ATOM      1  C   LIG    1        2.163   4.376   1.089  0.00  0.00    -0.010 A 
ATOM      2  C   LIG    1        1.792   3.642   0.009  0.00  0.00    -0.070 A 
ATOM      3  C   LIG    1        2.074   4.472  -1.161  0.00  0.00    -0.130 A 
ATOM      4  C   LIG    1        1.925   4.296  -2.539  0.00  0.00    +0.070 A 
ATOM      5  C   LIG    1        2.295   5.297  -3.393  0.00  0.00    +0.010 A 
ATOM      6  C   LIG    1        2.817   6.485  -2.901  0.00  0.00    +0.060 A 
ATOM      7  C   LIG    1        2.965   6.681  -1.545  0.00  0.00    +0.030 A 
ATOM      8  C   LIG    1        2.600   5.677  -0.657  0.00  0.00    +0.070 A 
ATOM      9  O   LIG    1        2.638   5.573   0.686  0.00  0.00    -0.170 OA
ENDROOT
BRANCH   1  17
ATOM     10  C   LIG    1        1.953   8.530   4.015  0.00  0.00    +0.080 C 
ATOM     11  C   LIG    1        1.612   7.043   4.137  0.00  0.00    +0.140 C 
ATOM     12  C   LIG    1        2.528   6.230   3.215  0.00  0.00    +0.260 C 
ATOM     13  N   LIG    1        2.311   4.801   3.488  0.00  0.00    -0.610 N 
ATOM     14  C   LIG    1        2.365   4.348   4.888  0.00  0.00    +0.270 C 
ATOM     15  C   LIG    1        1.462   5.252   5.728  0.00  0.00    +0.140 C 
ATOM     16  C   LIG    1        1.651   4.929   7.211  0.00  0.00    +0.080 C 
ATOM     17  C   LIG    1        2.065   3.933   2.487  0.00  0.00    +0.600 C 
ATOM     18  O   LIG    1        1.760   2.782   2.741  0.00  0.00    -0.500 OA
ATOM     19  O   LIG    1        1.807   6.618   5.488  0.00  0.00    -0.370 OA
ENDBRANCH   1  17
BRANCH   2  20
ATOM     20  C   LIG    1        1.212   2.251   0.014  0.00  0.00    +0.190 C 
BRANCH  20  21
ATOM     21  S   LIG    1       -0.593   2.350   0.111  0.00  0.00    +0.030 S 
BRANCH  21  22
ATOM     22  C   LIG    1       -0.994   0.634   0.101  0.00  0.00    +0.300 A 
ATOM     23  N   LIG    1       -0.017  -0.259   0.028  0.00  0.00    -0.530 NA
ATOM     24  C   LIG    1       -0.284  -1.554   0.023  0.00  0.00    +0.330 A 
ATOM     25  C   LIG    1       -1.604  -1.973   0.085  0.00  0.00    -0.090 A 
ATOM     26  C   LIG    1       -2.601  -1.013   0.156  0.00  0.00    +0.330 A 
ATOM     27  N   LIG    1       -2.266   0.267   0.162  0.00  0.00    -0.500 NA
ENDBRANCH  21  22
ENDBRANCH  20  21
ENDBRANCH   2  20
TORSDOF 4
