REMARK  Name = ZINCpe00000gMGoN.0
REMARK                            x       y       z     vdW  Elec       q    Type
REMARK                         _______ _______ _______ _____ _____    ______ ____
ROOT
ATOM      1  C   LIG    1        1.098   1.536  -5.256  0.00  0.00    +0.080 C 
ATOM      2  C   LIG    1        1.813   1.647  -3.908  0.00  0.00    +0.190 C 
ENDROOT
BRANCH   2   3
ATOM      3  C   LIG    1        3.070   0.817  -3.935  0.00  0.00    +0.520 C 
ATOM      4  N   LIG    1        4.077   1.145  -4.769  0.00  0.00    -0.670 N 
ATOM      5  H   LIG    1        3.962   1.867  -5.407  0.00  0.00    +0.410 HD
ATOM      6  O   LIG    1        3.176  -0.148  -3.207  0.00  0.00    -0.480 OA
BRANCH   4   7
ATOM      7  C   LIG    1        5.283   0.449  -4.713  0.00  0.00    +0.200 A 
ATOM      8  C   LIG    1        5.665  -0.191  -3.543  0.00  0.00    +0.020 A 
ATOM      9  C   LIG    1        6.861  -0.881  -3.491  0.00  0.00    +0.080 A 
ATOM     10  C   LIG    1        7.686  -0.939  -4.602  0.00  0.00    +0.000 A 
ATOM     11  C   LIG    1        7.322  -0.309  -5.773  0.00  0.00    +0.090 A 
ATOM     12  C   LIG    1        6.114   0.387  -5.843  0.00  0.00    -0.060 A 
BRANCH  12  13
ATOM     13  C   LIG    1        5.727   1.038  -7.058  0.00  0.00    +0.250 C 
ATOM     14  N   LIG    1        5.420   1.555  -8.022  0.00  0.00    -0.410 NA
ENDBRANCH  12  13
ENDBRANCH   4   7
ENDBRANCH   2   3
BRANCH   2  15
ATOM     15  O   LIG    1        0.937   1.165  -2.854  0.00  0.00    -0.330 OA
BRANCH  15  16
ATOM     16  C   LIG    1        0.131   2.066  -2.271  0.00  0.00    +0.440 C 
ATOM     17  O   LIG    1        0.157   3.220  -2.629  0.00  0.00    -0.470 OA
BRANCH  16  18
ATOM     18  C   LIG    1       -0.805   1.639  -1.171  0.00  0.00    +0.290 C 
ATOM     19  C   LIG    1        0.004   1.087   0.022  0.00  0.00    +0.060 C 
ATOM     20  C   LIG    1       -0.778   1.618   1.253  0.00  0.00    +0.040 C 
ATOM     21  C   LIG    1       -1.253   3.004   0.743  0.00  0.00    +0.280 C 
ATOM     22  N   LIG    1       -1.569   2.797  -0.682  0.00  0.00    -1.000 NA
BRANCH  22  23
ATOM     23  S   LIG    1       -2.609   3.717  -1.584  0.00  0.00    +2.620 S 
ATOM     24  O   LIG    1       -2.140   3.572  -2.917  0.00  0.00    -0.930 OA
ATOM     25  O   LIG    1       -2.606   4.983  -0.939  0.00  0.00    -0.940 OA
ATOM     26  C   LIG    1       -4.220   2.906  -1.383  0.00  0.00    -0.290 C 
ENDBRANCH  22  23
ENDBRANCH  16  18
ENDBRANCH  15  16
ENDBRANCH   2  15
TORSDOF 7
