REMARK  Name = ZINCpk000000nuxn.0
REMARK                            x       y       z     vdW  Elec       q    Type
REMARK                         _______ _______ _______ _____ _____    ______ ____
ROOT
ATOM      1  C   LIG    1       -0.059   4.522   0.026  0.00  0.00    -0.630 A 
ATOM      2  C   LIG    1        1.147   3.847   0.011  0.00  0.00    +0.110 A 
ATOM      3  C   LIG    1        1.166   2.465   0.004  0.00  0.00    +0.110 A 
ATOM      4  C   LIG    1       -0.022   1.758   0.012  0.00  0.00    -0.630 A 
ATOM      5  C   LIG    1       -1.228   2.433   0.021  0.00  0.00    +0.110 A 
ATOM      6  C   LIG    1       -1.247   3.815   0.034  0.00  0.00    +0.110 A 
ENDROOT
BRANCH   1   7
ATOM      7  S   LIG    1       -0.083   6.284   0.035  0.00  0.00    +2.690 S 
ATOM      8  O   LIG    1        1.166   6.699   0.570  0.00  0.00    -0.950 OA
ATOM      9  O   LIG    1       -1.333   6.665   0.593  0.00  0.00    -0.950 OA
BRANCH   7  10
ATOM     10  N   LIG    1       -0.105   6.782  -1.544  0.00  0.00    -1.110 NA
ATOM     11  H   LIG    1        0.647   7.277  -1.907  0.00  0.00    +0.420 HD
BRANCH  10  12
ATOM     12  C   LIG    1       -1.258   6.476  -2.393  0.00  0.00    +0.280 C 
BRANCH  12  13
ATOM     13  C   LIG    1       -1.209   7.342  -3.653  0.00  0.00    +0.030 C 
BRANCH  13  14
ATOM     14  C   LIG    1       -2.413   7.021  -4.540  0.00  0.00    +0.160 C 
BRANCH  14  15
ATOM     15  O   LIG    1       -2.367   7.830  -5.717  0.00  0.00    -0.390 OA
BRANCH  15  16
ATOM     16  C   LIG    1       -3.454   7.608  -6.618  0.00  0.00    +0.170 C 
BRANCH  16  18
ATOM     17  C   LIG    1       -2.044   8.131  -8.614  0.00  0.00    +0.010 C 
ATOM     18  C   LIG    1       -3.302   8.523  -7.836  0.00  0.00    -0.020 C 
ATOM     19  C   LIG    1       -4.527   8.376  -8.740  0.00  0.00    +0.030 C 
ENDBRANCH  16  18
ENDBRANCH  15  16
ENDBRANCH  14  15
ENDBRANCH  13  14
ENDBRANCH  12  13
ENDBRANCH  10  12
ENDBRANCH   7  10
ENDBRANCH   1   7
BRANCH   4  20
ATOM     20  S   LIG    1        0.002  -0.004   0.002  0.00  0.00    +2.700 S 
ATOM     21  O   LIG    1        1.252  -0.385  -0.556  0.00  0.00    -0.950 OA
ATOM     22  O   LIG    1       -1.247  -0.419  -0.533  0.00  0.00    -0.940 OA
BRANCH  20  23
ATOM     23  N   LIG    1        0.024  -0.503   1.581  0.00  0.00    -1.080 NA
ATOM     24  H   LIG    1        0.795  -0.977   1.929  0.00  0.00    +0.420 HD
BRANCH  23  25
ATOM     25  C   LIG    1       -1.122  -0.228   2.452  0.00  0.00    +0.210 C 
ATOM     26  C   LIG    1       -0.836   0.043   3.930  0.00  0.00    +0.020 C 
ATOM     27  C   LIG    1       -1.477  -1.279   3.505  0.00  0.00    +0.030 C 
ENDBRANCH  23  25
ENDBRANCH  20  23
ENDBRANCH   4  20
TORSDOF 11
