REMARK  Name = ZINCbw0000001gKu.0
REMARK                            x       y       z     vdW  Elec       q    Type
REMARK                         _______ _______ _______ _____ _____    ______ ____
ROOT
ATOM      1  C   LIG    1       -1.354   3.147   0.031  0.00  0.00    -0.010 C 
ATOM      2  C   LIG    1       -0.965   2.112  -1.038  0.00  0.00    +0.040 C 
ATOM      3  C   LIG    1       -0.018   1.503   0.010  0.00  0.00    -0.080 C 
ATOM      4  C   LIG    1       -0.945   2.100   1.083  0.00  0.00    +0.050 C 
ENDROOT
BRANCH   3   5
ATOM      5  C   LIG    1        0.002  -0.004   0.002  0.00  0.00    +0.450 C 
ATOM      6  O   LIG    1        1.039  -0.593  -0.187  0.00  0.00    -0.460 OA
ENDBRANCH   3   5
BRANCH   1   7
ATOM      7  C   LIG    1       -2.848   3.481   0.045  0.00  0.00    +0.030 C 
BRANCH   7   9
ATOM      8  C   LIG    1       -2.313   5.846   0.647  0.00  0.00    +0.010 C 
ATOM      9  C   LIG    1       -3.110   4.603   1.051  0.00  0.00    -0.070 C 
ATOM     10  C   LIG    1       -2.675   4.150   2.446  0.00  0.00    +0.010 C 
ATOM     11  C   LIG    1       -4.603   4.937   1.066  0.00  0.00    +0.010 C 
ENDBRANCH   7   9
ENDBRANCH   1   7
TORSDOF 3
