REMARK  Name = ZINCqH0000006pBj.0
REMARK                            x       y       z     vdW  Elec       q    Type
REMARK                         _______ _______ _______ _____ _____    ______ ____
ROOT
ATOM      1  C   LIG    1       -2.941   4.170  -1.481  0.00  0.00    +0.060 C 
ENDROOT
BRANCH   1   2
ATOM      2  C   LIG    1       -2.555   3.889  -0.028  0.00  0.00    +0.320 C 
ATOM      3  C   LIG    1       -1.231   3.167   0.012  0.00  0.00    -0.100 A 
ATOM      4  C   LIG    1       -0.048   3.870   0.019  0.00  0.00    +0.030 A 
ATOM      5  C   LIG    1        1.160   3.192   0.014  0.00  0.00    +0.010 A 
ATOM      6  C   LIG    1        1.185   1.809   0.002  0.00  0.00    +0.020 A 
ATOM      7  C   LIG    1        0.005   1.093   0.003  0.00  0.00    +0.020 A 
ATOM      8  C   LIG    1       -1.213   1.769   0.012  0.00  0.00    -0.030 A 
ATOM      9  C   LIG    1       -2.490   1.030   0.020  0.00  0.00    -0.040 C 
ATOM     10  C   LIG    1       -3.625   1.686   0.288  0.00  0.00    +0.240 C 
ATOM     11  N   LIG    1       -3.581   3.043   0.581  0.00  0.00    -0.560 N 
ATOM     12  C   LIG    1       -4.478   3.581   1.431  0.00  0.00    +0.510 C 
ATOM     13  O   LIG    1       -4.437   4.766   1.685  0.00  0.00    -0.480 OA
ATOM     14  C   LIG    1       -5.531   2.710   2.067  0.00  0.00    +0.100 C 
ENDBRANCH   1   2
BRANCH   1  17
ATOM     15  N   LIG    1       -4.731   5.369  -2.697  0.00  0.00    -0.680 N 
ATOM     16  H   LIG    1       -4.268   5.162  -3.523  0.00  0.00    +0.410 HD
ATOM     17  C   LIG    1       -4.200   4.998  -1.515  0.00  0.00    +0.500 C 
ATOM     18  O   LIG    1       -4.736   5.329  -0.479  0.00  0.00    -0.480 OA
BRANCH  15  23
ATOM     19  C   LIG    1       -8.050   6.505  -3.800  0.00  0.00    -0.080 A 
ATOM     20  C   LIG    1       -8.363   7.407  -2.801  0.00  0.00    +0.010 A 
ATOM     21  C   LIG    1       -7.474   7.635  -1.766  0.00  0.00    +0.030 A 
ATOM     22  C   LIG    1       -6.269   6.961  -1.729  0.00  0.00    +0.030 A 
ATOM     23  C   LIG    1       -5.951   6.054  -2.732  0.00  0.00    +0.140 A 
ATOM     24  C   LIG    1       -6.844   5.832  -3.772  0.00  0.00    -0.010 A 
BRANCH  19  25
ATOM     25  C   LIG    1       -9.022   6.261  -4.926  0.00  0.00    +0.220 C 
BRANCH  25  27
ATOM     26  C   LIG    1       -9.625   7.024  -7.116  0.00  0.00    +0.200 C 
ATOM     27  O   LIG    1       -8.754   7.172  -5.993  0.00  0.00    -0.390 OA
ENDBRANCH  25  27
ENDBRANCH  19  25
ENDBRANCH  15  23
ENDBRANCH   1  17
TORSDOF 5
