REMARK  Name = ZINCtV00000rw4SP.0
REMARK                            x       y       z     vdW  Elec       q    Type
REMARK                         _______ _______ _______ _____ _____    ______ ____
ROOT
ATOM      1  C   LIG    1        1.106   2.028   0.002  0.00  0.00    +0.420 A 
ATOM      2  N   LIG    1        0.602   1.340  -1.013  0.00  0.00    -0.530 NA
ATOM      3  C   LIG    1        0.627   0.016  -1.032  0.00  0.00    +0.370 A 
ATOM      4  N   LIG    1        1.144  -0.703  -0.062  0.00  0.00    -0.490 NA
ATOM      5  C   LIG    1        1.681  -0.108   1.014  0.00  0.00    +0.170 A 
ATOM      6  C   LIG    1        2.241  -0.849   2.064  0.00  0.00    +0.050 A 
ATOM      7  C   LIG    1        2.776  -0.207   3.138  0.00  0.00    +0.080 A 
ATOM      8  C   LIG    1        2.778   1.193   3.212  0.00  0.00    -0.040 A 
ATOM      9  C   LIG    1        2.232   1.952   2.189  0.00  0.00    +0.100 A 
ATOM     10 CL   LIG    1       -0.055  -0.807  -2.400  0.00  0.00    +0.030 Cl
ATOM     11  C   LIG    1        1.679   1.307   1.080  0.00  0.00    -0.140 A 
ENDROOT
BRANCH   1  15
ATOM     12  C   LIG    1       -2.604   3.369  -0.723  0.00  0.00    +0.030 C 
ATOM     13  C   LIG    1       -1.121   3.385  -1.099  0.00  0.00    +0.020 C 
ATOM     14  C   LIG    1       -0.293   3.895   0.085  0.00  0.00    +0.250 C 
ATOM     15  N   LIG    1        1.074   3.406   0.010  0.00  0.00    -0.500 N 
ATOM     16  C   LIG    1        1.905   3.952  -1.051  0.00  0.00    +0.240 C 
ATOM     17  C   LIG    1        1.439   3.450  -2.422  0.00  0.00    +0.050 C 
ATOM     18  C   LIG    1        0.319   4.350  -2.901  0.00  0.00    -0.070 A 
ATOM     19  C   LIG    1        0.529   5.198  -3.972  0.00  0.00    +0.000 A 
ATOM     20  C   LIG    1       -0.497   6.019  -4.406  0.00  0.00    +0.000 A 
ATOM     21  C   LIG    1       -1.724   5.988  -3.771  0.00  0.00    +0.000 A 
ATOM     22  C   LIG    1       -1.930   5.136  -2.700  0.00  0.00    +0.010 A 
ATOM     23  C   LIG    1       -0.901   4.319  -2.270  0.00  0.00    -0.070 A 
ENDBRANCH   1  15
BRANCH   8  24
ATOM     24  C   LIG    1        3.369   1.867   4.394  0.00  0.00    -0.050 A 
ATOM     25  C   LIG    1        3.380   3.259   4.473  0.00  0.00    +0.020 A 
ATOM     26  C   LIG    1        3.925   3.880   5.578  0.00  0.00    +0.010 A 
ATOM     27  C   LIG    1        4.471   3.125   6.600  0.00  0.00    +0.010 A 
ATOM     28  C   LIG    1        4.468   1.744   6.525  0.00  0.00    +0.010 A 
ATOM     29  C   LIG    1        3.920   1.112   5.428  0.00  0.00    +0.020 A 
ENDBRANCH   8  24
TORSDOF 2
