REMARK  Name = ZINCrD00000s3FqU.0
REMARK                            x       y       z     vdW  Elec       q    Type
REMARK                         _______ _______ _______ _____ _____    ______ ____
ROOT
ATOM      1  C   LIG    1       -4.129   1.751  -2.499  0.00  0.00    +0.270 C 
ATOM      2  C   LIG    1       -3.336   2.215  -1.274  0.00  0.00    +0.180 C 
ATOM      3  N   LIG    1       -2.148   1.363  -1.115  0.00  0.00    -0.530 NA
ATOM      4  C   LIG    1       -2.535  -0.046  -0.960  0.00  0.00    +0.150 C 
ATOM      5  C   LIG    1       -3.336  -0.488  -2.188  0.00  0.00    +0.240 C 
ATOM      6  O   LIG    1       -4.469   0.370  -2.345  0.00  0.00    -0.370 OA
ENDROOT
BRANCH   1  10
ATOM      7  C   LIG    1       -6.966   3.847  -3.373  0.00  0.00    +0.190 A 
ATOM      8  N   LIG    1       -7.237   3.489  -2.148  0.00  0.00    -0.290 NA
ATOM      9  N   LIG    1       -6.303   2.725  -1.704  0.00  0.00    -0.260 NA
ATOM     10  C   LIG    1       -5.389   2.569  -2.622  0.00  0.00    +0.170 A 
ATOM     11  N   LIG    1       -5.785   3.274  -3.709  0.00  0.00    -0.570 N 
ATOM     12  H   LIG    1       -5.319   3.352  -4.556  0.00  0.00    +0.430 HD
BRANCH   7  14
ATOM     13  C   LIG    1       -9.226   4.163  -4.344  0.00  0.00    +0.050 C 
ATOM     14  C   LIG    1       -7.810   4.735  -4.252  0.00  0.00    +0.140 C 
ENDBRANCH   7  14
ENDBRANCH   1  10
BRANCH   3  15
ATOM     15  C   LIG    1       -1.328   1.812   0.018  0.00  0.00    +0.210 C 
BRANCH  15  16
ATOM     16  C   LIG    1       -0.013   1.076   0.008  0.00  0.00    -0.010 C 
ATOM     17  C   LIG    1        1.127   1.754   0.001  0.00  0.00    +0.010 C 
BRANCH  17  18
ATOM     18  C   LIG    1        2.416   1.033  -0.015  0.00  0.00    -0.070 A 
ATOM     19  C   LIG    1        2.437  -0.363  -0.017  0.00  0.00    +0.060 A 
ATOM     20  C   LIG    1        3.642  -1.032  -0.038  0.00  0.00    -0.050 A 
ATOM     21  C   LIG    1        4.834  -0.320  -0.045  0.00  0.00    +0.100 A 
ATOM     22  C   LIG    1        4.817   1.069  -0.038  0.00  0.00    +0.020 A 
ATOM     23  C   LIG    1        3.616   1.746  -0.023  0.00  0.00    +0.070 A 
BRANCH  21  24
ATOM     24  O   LIG    1        6.020  -0.983  -0.059  0.00  0.00    -0.310 OA
BRANCH  24  25
ATOM     25  C   LIG    1        5.964  -2.411  -0.066  0.00  0.00    +0.600 C 
ATOM     26  F   LIG    1        5.298  -2.857   1.080  0.00  0.00    -0.160 F 
ATOM     27  F   LIG    1        7.264  -2.928  -0.081  0.00  0.00    -0.130 F 
ATOM     28  F   LIG    1        5.277  -2.845  -1.205  0.00  0.00    -0.160 F 
ENDBRANCH  24  25
ENDBRANCH  21  24
ENDBRANCH  17  18
ENDBRANCH  15  16
ENDBRANCH   3  15
TORSDOF 7
