REMARK  Name = ZINCrD00000s3FqU.1
REMARK                            x       y       z     vdW  Elec       q    Type
REMARK                         _______ _______ _______ _____ _____    ______ ____
ROOT
ATOM      1  C   LIG    1       -0.731   1.580   1.266  0.00  0.00    +0.290 C 
ATOM      2  C   LIG    1       -0.013   1.086   0.008  0.00  0.00    +0.170 C 
ATOM      3  N   LIG    1       -0.725   1.574  -1.182  0.00  0.00    -0.530 NA
ATOM      4  C   LIG    1       -2.119   1.107  -1.182  0.00  0.00    +0.150 C 
ATOM      5  C   LIG    1       -2.818   1.601   0.088  0.00  0.00    +0.240 C 
ATOM      6  O   LIG    1       -2.093   1.143   1.233  0.00  0.00    -0.370 OA
ENDROOT
BRANCH   1   9
ATOM      7  C   LIG    1        1.169   0.913   4.269  0.00  0.00    +0.290 A 
ATOM      8  N   LIG    1        0.750   1.697   3.309  0.00  0.00    -0.530 NA
ATOM      9  C   LIG    1       -0.051   1.019   2.488  0.00  0.00    +0.230 A 
ATOM     10  N   LIG    1       -0.145  -0.214   2.911  0.00  0.00    -0.290 NA
ATOM     11  N   LIG    1        0.641  -0.308   4.070  0.00  0.00    -0.480 N 
ATOM     12  H   LIG    1        0.777  -1.096   4.619  0.00  0.00    +0.440 HD
BRANCH   7  14
ATOM     13  C   LIG    1        3.531   0.961   5.021  0.00  0.00    +0.050 C 
ATOM     14  C   LIG    1        2.089   1.307   5.395  0.00  0.00    +0.150 C 
ENDBRANCH   7  14
ENDBRANCH   1   9
BRANCH   3  15
ATOM     15  C   LIG    1       -0.034   1.168  -2.413  0.00  0.00    +0.220 C 
BRANCH  15  16
ATOM     16  C   LIG    1       -0.910   1.467  -3.602  0.00  0.00    -0.030 C 
ATOM     17  C   LIG    1       -0.448   2.215  -4.594  0.00  0.00    +0.020 C 
BRANCH  17  18
ATOM     18  C   LIG    1       -1.306   2.509  -5.761  0.00  0.00    -0.070 A 
ATOM     19  C   LIG    1       -2.602   1.994  -5.823  0.00  0.00    +0.060 A 
ATOM     20  C   LIG    1       -3.401   2.274  -6.910  0.00  0.00    -0.050 A 
ATOM     21  C   LIG    1       -2.916   3.058  -7.948  0.00  0.00    +0.100 A 
ATOM     22  C   LIG    1       -1.625   3.568  -7.893  0.00  0.00    +0.020 A 
ATOM     23  C   LIG    1       -0.821   3.296  -6.806  0.00  0.00    +0.070 A 
BRANCH  21  24
ATOM     24  O   LIG    1       -3.705   3.327  -9.021  0.00  0.00    -0.310 OA
BRANCH  24  25
ATOM     25  C   LIG    1       -5.021   2.771  -9.014  0.00  0.00    +0.600 C 
ATOM     26  F   LIG    1       -4.938   1.376  -8.948  0.00  0.00    -0.160 F 
ATOM     27  F   LIG    1       -5.691   3.144 -10.184  0.00  0.00    -0.130 F 
ATOM     28  F   LIG    1       -5.723   3.249  -7.902  0.00  0.00    -0.160 F 
ENDBRANCH  24  25
ENDBRANCH  21  24
ENDBRANCH  17  18
ENDBRANCH  15  16
ENDBRANCH   3  15
TORSDOF 7
