REMARK  Name = ZINCvU00000007ep.0
REMARK                            x       y       z     vdW  Elec       q    Type
REMARK                         _______ _______ _______ _____ _____    ______ ____
ROOT
ATOM      1  C   LIG    1       -3.891   2.105   0.787  0.00  0.00    +0.160 A 
ATOM      2  N   LIG    1       -4.119   3.161   0.037  0.00  0.00    -0.290 NA
ATOM      3  N   LIG    1       -5.284   3.640   0.292  0.00  0.00    -0.250 NA
ATOM      4  C   LIG    1       -5.866   2.926   1.227  0.00  0.00    +0.220 A 
ATOM      5  N   LIG    1       -4.992   1.921   1.572  0.00  0.00    -0.450 N 
ENDROOT
BRANCH   4   6
ATOM      6  C   LIG    1       -7.208   3.157   1.801  0.00  0.00    +0.040 A 
ATOM      7  C   LIG    1       -8.012   2.085   2.207  0.00  0.00    -0.030 A 
ATOM      8  C   LIG    1       -9.256   2.347   2.743  0.00  0.00    +0.270 A 
ATOM      9  N   LIG    1       -9.694   3.586   2.865  0.00  0.00    -0.470 NA
ATOM     10  C   LIG    1       -8.971   4.625   2.490  0.00  0.00    +0.280 A 
ATOM     11  C   LIG    1       -7.714   4.455   1.949  0.00  0.00    +0.020 A 
ENDBRANCH   4   6
BRANCH   1  12
ATOM     12  S   LIG    1       -2.432   1.116   0.783  0.00  0.00    +0.060 S 
BRANCH  12  13
ATOM     13  C   LIG    1       -1.473   1.975  -0.488  0.00  0.00    +0.000 C 
ATOM     14  C   LIG    1       -2.183   1.845  -1.837  0.00  0.00    +0.090 C 
BRANCH  13  15
ATOM     15  C   LIG    1       -0.100   1.362  -0.582  0.00  0.00    +0.420 C 
ATOM     16  O   LIG    1        0.076   0.213  -0.236  0.00  0.00    -0.430 OA
BRANCH  15  21
ATOM     17  C   LIG    1        4.302   4.461  -2.598  0.00  0.00    +0.100 C 
ATOM     18  C   LIG    1        3.148   3.649  -2.070  0.00  0.00    -0.050 A 
ATOM     19  C   LIG    1        1.890   4.217  -1.981  0.00  0.00    +0.000 A 
ATOM     20  C   LIG    1        0.829   3.480  -1.498  0.00  0.00    +0.060 A 
ATOM     21  C   LIG    1        1.027   2.155  -1.098  0.00  0.00    -0.170 A 
ATOM     22  C   LIG    1        2.303   1.589  -1.187  0.00  0.00    +0.090 A 
ATOM     23  C   LIG    1        3.353   2.337  -1.676  0.00  0.00    -0.100 A 
ATOM     24  C   LIG    1        4.727   1.728  -1.778  0.00  0.00    +0.090 C 
ENDBRANCH  15  21
ENDBRANCH  13  15
ENDBRANCH  12  13
ENDBRANCH   1  12
BRANCH   5  25
ATOM     25  C   LIG    1       -5.199   0.872   2.574  0.00  0.00    +0.360 C 
BRANCH  25  26
ATOM     26  C   LIG    1       -4.803   1.390   3.932  0.00  0.00    -0.130 A 
ATOM     27  C   LIG    1       -3.505   1.232   4.380  0.00  0.00    +0.040 A 
ATOM     28  C   LIG    1       -3.140   1.712   5.625  0.00  0.00    +0.010 A 
ATOM     29  C   LIG    1       -4.076   2.339   6.425  0.00  0.00    +0.030 A 
ATOM     30  C   LIG    1       -5.376   2.492   5.979  0.00  0.00    +0.010 A 
ATOM     31  C   LIG    1       -5.739   2.018   4.733  0.00  0.00    +0.020 A 
ENDBRANCH  25  26
ENDBRANCH   5  25
TORSDOF 7
