REMARK  Name = ZINCrD000000B9tL.1
REMARK                            x       y       z     vdW  Elec       q    Type
REMARK                         _______ _______ _______ _____ _____    ______ ____
ROOT
ATOM      1  O   LIG    1        0.029   0.037   0.131  0.00  0.00    -0.580 OA
ATOM      2  C   LIG    1       -0.006   1.247   0.012  0.00  0.00    +0.730 C 
ATOM      3  N   LIG    1        1.141   1.946  -0.097  0.00  0.00    -0.640 N 
ATOM      4  C   LIG    1        1.244   3.409  -0.252  0.00  0.00    +0.250 C 
ATOM      5  C   LIG    1        2.655   3.764   0.284  0.00  0.00    +0.030 C 
ATOM      6  C   LIG    1        3.488   2.553  -0.212  0.00  0.00    +0.240 C 
ATOM      7  C   LIG    1        2.496   1.377  -0.088  0.00  0.00    +0.250 C 
ATOM      8  N   LIG    1       -1.191   1.887  -0.016  0.00  0.00    -0.740 N 
ATOM      9  H   LIG    1       -1.219   2.852  -0.111  0.00  0.00    +0.390 HD
ENDROOT
BRANCH   6  10
ATOM     10  N   LIG    1        4.658   2.337   0.643  0.00  0.00    -0.740 N 
ATOM     11  H   LIG    1        4.676   2.705   1.541  0.00  0.00    +0.400 HD
BRANCH  10  12
ATOM     12  C   LIG    1        5.745   1.601   0.168  0.00  0.00    +0.210 A 
ATOM     13  C   LIG    1        5.718   1.069  -1.115  0.00  0.00    -0.080 A 
ATOM     14  C   LIG    1        6.797   0.346  -1.584  0.00  0.00    +0.050 A 
ATOM     15  C   LIG    1        7.900   0.143  -0.775  0.00  0.00    -0.060 A 
ATOM     16  C   LIG    1        7.929   0.668   0.504  0.00  0.00    +0.050 A 
ATOM     17  C   LIG    1        6.855   1.396   0.978  0.00  0.00    -0.070 A 
ENDBRANCH  10  12
ENDBRANCH   6  10
BRANCH   8  18
ATOM     18  C   LIG    1       -2.438   1.126   0.097  0.00  0.00    +0.310 C 
BRANCH  18  19
ATOM     19  C   LIG    1       -3.622   2.093   0.156  0.00  0.00    +0.230 C 
BRANCH  19  20
ATOM     20  N   LIG    1       -4.859   1.338   0.398  0.00  0.00    -0.500 NA
ATOM     21  C   LIG    1       -4.782   0.585   1.676  0.00  0.00    +0.170 C 
ATOM     22  C   LIG    1       -6.268   0.312   2.018  0.00  0.00    +0.030 C 
ATOM     23  C   LIG    1       -6.971   1.612   1.564  0.00  0.00    +0.020 C 
ATOM     24  C   LIG    1       -6.017   2.248   0.536  0.00  0.00    +0.170 C 
ENDBRANCH  19  20
BRANCH  19  25
ATOM     25  C   LIG    1       -3.733   2.833  -1.152  0.00  0.00    -0.000 A 
ATOM     26  C   LIG    1       -3.299   4.084  -1.387  0.00  0.00    -0.070 A 
ATOM     27  C   LIG    1       -3.602   4.375  -2.737  0.00  0.00    -0.060 A 
ATOM     28  C   LIG    1       -4.210   3.288  -3.244  0.00  0.00    +0.160 A 
ATOM     29  O   LIG    1       -4.287   2.357  -2.279  0.00  0.00    -0.150 OA
ENDBRANCH  19  25
ENDBRANCH  18  19
ENDBRANCH   8  18
TORSDOF 6
