REMARK  Name = ZINCpk00000kZogl.1
REMARK                            x       y       z     vdW  Elec       q    Type
REMARK                         _______ _______ _______ _____ _____    ______ ____
ROOT
ATOM      1  C   LIG    1       -2.112  -0.380  -1.159  0.00  0.00    +0.280 C 
ENDROOT
BRANCH   1   2
ATOM      2  N   LIG    1       -2.132   1.087  -1.222  0.00  0.00    -0.380 N 
ATOM      3  C   LIG    1       -2.850   1.616  -0.056  0.00  0.00    +0.240 C 
ATOM      4  C   LIG    1       -2.189   1.109   1.228  0.00  0.00    +0.040 C 
ATOM      5  C   LIG    1       -0.731   1.581   1.267  0.00  0.00    +0.050 C 
ATOM      6  C   LIG    1       -0.013   1.086   0.008  0.00  0.00    -0.010 C 
ATOM      7  C   LIG    1       -0.755   1.594  -1.230  0.00  0.00    +0.260 C 
ATOM      8  H   LIG    1       -2.602   1.379  -2.065  0.00  0.00    +0.420 HD
BRANCH   6   9
ATOM      9  C   LIG    1        1.422   1.616  -0.003  0.00  0.00    +0.170 C 
BRANCH   9  10
ATOM     10  C   LIG    1        2.187   1.020   1.151  0.00  0.00    +0.040 A 
ATOM     11  N   LIG    1        2.295   1.524   2.367  0.00  0.00    -0.380 NA
ATOM     12  N   LIG    1        3.027   0.719   3.060  0.00  0.00    -0.190 NA
ATOM     13  N   LIG    1        3.385  -0.267   2.312  0.00  0.00    -0.190 NA
ATOM     14  N   LIG    1        2.882  -0.104   1.137  0.00  0.00    -0.390 NA
ENDBRANCH   9  10
ENDBRANCH   6   9
ENDBRANCH   1   2
BRANCH   1  15
ATOM     15  C   LIG    1       -3.541  -0.915  -1.275  0.00  0.00    +0.070 C 
BRANCH  15  17
ATOM     16  O   LIG    1       -2.468  -3.008  -1.084  0.00  0.00    -0.500 OA
ATOM     17  C   LIG    1       -3.521  -2.421  -1.211  0.00  0.00    +0.530 C 
ATOM     18  N   LIG    1       -4.674  -3.114  -1.294  0.00  0.00    -0.550 N 
ATOM     19  C   LIG    1       -4.780  -4.575  -1.249  0.00  0.00    +0.290 C 
ATOM     20  C   LIG    1       -6.283  -4.874  -1.377  0.00  0.00    +0.110 C 
ATOM     21  C   LIG    1       -6.933  -3.514  -1.497  0.00  0.00    -0.120 A 
ATOM     22  C   LIG    1       -8.258  -3.153  -1.641  0.00  0.00    +0.060 A 
ATOM     23  C   LIG    1       -8.609  -1.818  -1.731  0.00  0.00    +0.000 A 
ATOM     24  C   LIG    1       -7.629  -0.845  -1.676  0.00  0.00    +0.040 A 
ATOM     25  C   LIG    1       -6.304  -1.200  -1.532  0.00  0.00    -0.040 A 
ATOM     26  C   LIG    1       -5.943  -2.545  -1.441  0.00  0.00    +0.130 A 
ENDBRANCH  15  17
ENDBRANCH   1  15
TORSDOF 5
