REMARK  Name = ZINCpk00000kZogl.2
REMARK                            x       y       z     vdW  Elec       q    Type
REMARK                         _______ _______ _______ _____ _____    ______ ____
ROOT
ATOM      1  C   LIG    1       -0.719   1.490  -1.185  0.00  0.00    +0.290 C 
ENDROOT
BRANCH   1   2
ATOM      2  N   LIG    1       -0.012   1.005   0.008  0.00  0.00    -0.380 N 
ATOM      3  C   LIG    1       -0.707   1.477   1.211  0.00  0.00    +0.240 C 
ATOM      4  C   LIG    1       -0.022   0.909   2.456  0.00  0.00    +0.050 C 
ATOM      5  C   LIG    1        1.436   1.379   2.489  0.00  0.00    +0.050 C 
ATOM      6  C   LIG    1        2.131   0.945   1.195  0.00  0.00    -0.010 C 
ATOM      7  C   LIG    1        1.366   1.511  -0.003  0.00  0.00    +0.260 C 
ATOM      8  H   LIG    1        0.002  -0.004   0.002  0.00  0.00    +0.420 HD
BRANCH   6   9
ATOM      9  C   LIG    1        3.566   1.476   1.183  0.00  0.00    +0.170 C 
BRANCH   9  10
ATOM     10  C   LIG    1        4.352   0.824   2.291  0.00  0.00    +0.040 A 
ATOM     11  N   LIG    1        4.484   1.267   3.528  0.00  0.00    -0.380 NA
ATOM     12  N   LIG    1        5.228   0.429   4.166  0.00  0.00    -0.190 NA
ATOM     13  N   LIG    1        5.572  -0.518   3.364  0.00  0.00    -0.190 NA
ATOM     14  N   LIG    1        5.046  -0.297   2.207  0.00  0.00    -0.390 NA
ENDBRANCH   9  10
ENDBRANCH   6   9
ENDBRANCH   1   2
BRANCH   1  15
ATOM     15  C   LIG    1       -2.112   0.861  -1.242  0.00  0.00    +0.060 C 
BRANCH  15  17
ATOM     16  O   LIG    1       -2.295   2.140  -3.217  0.00  0.00    -0.510 OA
ATOM     17  C   LIG    1       -2.838   1.358  -2.466  0.00  0.00    +0.530 C 
ATOM     18  N   LIG    1       -4.092   0.935  -2.724  0.00  0.00    -0.550 N 
ATOM     19  C   LIG    1       -4.898   1.351  -3.875  0.00  0.00    +0.290 C 
ATOM     20  C   LIG    1       -6.231   0.600  -3.726  0.00  0.00    +0.110 C 
ATOM     21  C   LIG    1       -6.075  -0.204  -2.455  0.00  0.00    -0.120 A 
ATOM     22  C   LIG    1       -6.946  -1.064  -1.814  0.00  0.00    +0.060 A 
ATOM     23  C   LIG    1       -6.566  -1.691  -0.642  0.00  0.00    +0.000 A 
ATOM     24  C   LIG    1       -5.311  -1.455  -0.111  0.00  0.00    +0.040 A 
ATOM     25  C   LIG    1       -4.439  -0.598  -0.747  0.00  0.00    -0.030 A 
ATOM     26  C   LIG    1       -4.815   0.039  -1.931  0.00  0.00    +0.130 A 
ENDBRANCH  15  17
ENDBRANCH   1  15
TORSDOF 5
