REMARK  Name = ZINCpk00000y6yn6.0
REMARK                            x       y       z     vdW  Elec       q    Type
REMARK                         _______ _______ _______ _____ _____    ______ ____
ROOT
ATOM      1  C   LIG    1       -2.334   3.594   1.427  0.00  0.00    +0.010 C 
ATOM      2  C   LIG    1       -2.775   3.174   2.830  0.00  0.00    +0.020 C 
ATOM      3  C   LIG    1       -3.002   4.425   3.685  0.00  0.00    +0.280 C 
ATOM      4  N   LIG    1       -3.952   5.305   2.992  0.00  0.00    -0.600 N 
ATOM      5  C   LIG    1       -3.669   5.697   1.605  0.00  0.00    +0.290 C 
ATOM      6  C   LIG    1       -5.062   5.745   3.617  0.00  0.00    +0.610 C 
ATOM      7  O   LIG    1       -5.793   6.545   3.066  0.00  0.00    -0.510 OA
ATOM      8  C   LIG    1       -3.435   4.432   0.773  0.00  0.00    +0.030 C 
ENDROOT
BRANCH   6   9
ATOM      9  C   LIG    1       -5.391   5.255   4.969  0.00  0.00    -0.090 A 
ATOM     10  C   LIG    1       -6.517   5.502   5.676  0.00  0.00    -0.110 A 
ATOM     11  C   LIG    1       -7.742   6.303   5.342  0.00  0.00    +0.130 C 
ATOM     12  C   LIG    1       -8.852   5.905   6.325  0.00  0.00    +0.030 C 
ATOM     13  C   LIG    1       -8.322   5.966   7.759  0.00  0.00    +0.030 C 
ATOM     14  C   LIG    1       -7.345   4.810   8.008  0.00  0.00    +0.140 C 
ATOM     15  C   LIG    1       -6.329   4.809   6.896  0.00  0.00    +0.020 A 
ATOM     16  N   LIG    1       -5.175   4.236   6.819  0.00  0.00    -0.330 NA
ATOM     17  O   LIG    1       -4.630   4.463   5.757  0.00  0.00    +0.100 OA
ENDBRANCH   6   9
BRANCH   1  21
ATOM     18  C   LIG    1       -0.950   1.550  -1.258  0.00  0.00    +0.160 C 
ATOM     19  C   LIG    1       -0.154   0.988  -0.059  0.00  0.00    +0.020 C 
ATOM     20  C   LIG    1       -0.906   1.524   1.180  0.00  0.00    +0.010 C 
ATOM     21  C   LIG    1       -2.073   2.346   0.580  0.00  0.00    +0.150 C 
ATOM     22  O   LIG    1       -1.621   2.720  -0.740  0.00  0.00    -0.340 OA
BRANCH  18  26
ATOM     23  N   LIG    1        0.706   0.985  -3.006  0.00  0.00    -0.850 N 
ATOM     24  H   LIG    1        1.308   1.231  -3.725  0.00  0.00    +0.410 HD
ATOM     25  H   LIG    1        0.624   0.056  -2.739  0.00  0.00    +0.400 HD
ATOM     26  C   LIG    1       -0.015   1.933  -2.376  0.00  0.00    +0.520 C 
ATOM     27  O   LIG    1        0.088   3.095  -2.709  0.00  0.00    -0.520 OA
ENDBRANCH  18  26
ENDBRANCH   1  21
TORSDOF 3
