REMARK  Name = ZINCrD00000hQ4ZC.2
REMARK                            x       y       z     vdW  Elec       q    Type
REMARK                         _______ _______ _______ _____ _____    ______ ____
ROOT
ATOM      1  N   LIG    1        2.974   1.036  -0.032  0.00  0.00    -0.460 N 
ATOM      2  C   LIG    1        1.863   0.226  -0.246  0.00  0.00    +0.100 A 
ATOM      3  C   LIG    1        0.663   0.776  -0.242  0.00  0.00    +0.030 A 
ATOM      4  C   LIG    1       -0.534  -0.054  -0.443  0.00  0.00    +0.020 A 
ATOM      5  C   LIG    1       -0.409  -1.351  -0.630  0.00  0.00    +0.010 A 
ATOM      6  C   LIG    1        0.928  -1.965  -0.641  0.00  0.00    +0.020 A 
ATOM      7  C   LIG    1        2.004  -1.220  -0.463  0.00  0.00    -0.080 A 
ATOM      8  C   LIG    1        3.322  -1.861  -0.491  0.00  0.00    +0.020 C 
ATOM      9  C   LIG    1        4.312  -1.578   0.287  0.00  0.00    +0.020 C 
ATOM     10  C   LIG    1        4.304  -0.562   1.344  0.00  0.00    -0.080 A 
ATOM     11  C   LIG    1        4.911  -0.826   2.487  0.00  0.00    +0.020 A 
ATOM     12  C   LIG    1        4.929   0.175   3.565  0.00  0.00    +0.010 A 
ATOM     13  C   LIG    1        4.340   1.339   3.390  0.00  0.00    +0.020 A 
ATOM     14  C   LIG    1        3.662   1.633   2.117  0.00  0.00    +0.040 A 
ATOM     15  C   LIG    1        3.641   0.734   1.151  0.00  0.00    +0.100 A 
ENDROOT
BRANCH   1  16
ATOM     16  C   LIG    1        3.890   0.989  -1.179  0.00  0.00    +0.190 C 
BRANCH  16  17
ATOM     17  C   LIG    1        3.192   1.563  -2.413  0.00  0.00    +0.030 C 
BRANCH  17  18
ATOM     18  C   LIG    1        4.146   1.514  -3.609  0.00  0.00    +0.160 C 
BRANCH  18  22
ATOM     19  N   LIG    1        2.586   2.049  -7.498  0.00  0.00    -0.530 NA
ATOM     20  C   LIG    1        3.707   2.903  -7.082  0.00  0.00    +0.180 C 
ATOM     21  C   LIG    1        4.427   2.255  -5.897  0.00  0.00    +0.180 C 
ATOM     22  N   LIG    1        3.475   2.065  -4.793  0.00  0.00    -0.540 NA
ATOM     23  C   LIG    1        2.354   1.211  -5.210  0.00  0.00    +0.180 C 
ATOM     24  C   LIG    1        1.635   1.859  -6.395  0.00  0.00    +0.180 C 
BRANCH  19  25
ATOM     25  C   LIG    1        1.915   2.600  -8.683  0.00  0.00    +0.180 C 
BRANCH  25  26
ATOM     26  C   LIG    1        2.773   2.337  -9.923  0.00  0.00    +0.170 C 
BRANCH  26  27
ATOM     27  O   LIG    1        2.861   0.929 -10.151  0.00  0.00    -0.560 OA
ATOM     28  H   LIG    1        3.391   0.688 -10.923  0.00  0.00    +0.370 HD
ENDBRANCH  26  27
ENDBRANCH  25  26
ENDBRANCH  19  25
ENDBRANCH  18  22
ENDBRANCH  17  18
ENDBRANCH  16  17
ENDBRANCH   1  16
TORSDOF 7
