REMARK  Name = ZINCvU0000000BNz.0
REMARK                            x       y       z     vdW  Elec       q    Type
REMARK                         _______ _______ _______ _____ _____    ______ ____
ROOT
ATOM      1  C   LIG    1        2.457   0.217   0.255  0.00  0.00    -0.100 A 
ATOM      2  C   LIG    1        2.103   1.560   0.286  0.00  0.00    +0.070 A 
ATOM      3  C   LIG    1        0.785   1.932   0.116  0.00  0.00    +0.040 A 
ATOM      4  C   LIG    1       -0.194   0.972  -0.086  0.00  0.00    +0.050 A 
ATOM      5  C   LIG    1        0.138  -0.365  -0.120  0.00  0.00    +0.040 A 
ATOM      6  C   LIG    1        1.467  -0.757   0.051  0.00  0.00    -0.080 A 
ENDROOT
BRANCH   6   7
ATOM      7  C   LIG    1        1.829  -2.186   0.015  0.00  0.00    +0.550 C 
ATOM      8  N   LIG    1        0.876  -3.118  -0.182  0.00  0.00    -0.670 N 
ATOM      9  H   LIG    1       -0.057  -2.856  -0.226  0.00  0.00    +0.410 HD
ATOM     10  O   LIG    1        2.988  -2.523   0.164  0.00  0.00    -0.480 OA
BRANCH   8  11
ATOM     11  C   LIG    1        1.231  -4.463  -0.323  0.00  0.00    +0.210 A 
ATOM     12  C   LIG    1        2.428  -4.806  -0.940  0.00  0.00    +0.000 A 
ATOM     13  C   LIG    1        2.778  -6.135  -1.073  0.00  0.00    +0.140 A 
ATOM     14  C   LIG    1        1.935  -7.125  -0.603  0.00  0.00    -0.680 A 
ATOM     15  C   LIG    1        0.740  -6.787   0.007  0.00  0.00    +0.150 A 
ATOM     16  C   LIG    1        0.386  -5.459   0.148  0.00  0.00    -0.030 A 
BRANCH  14  17
ATOM     17  S   LIG    1        2.383  -8.819  -0.780  0.00  0.00    +2.500 S 
ATOM     18  O   LIG    1        1.699  -9.475   0.278  0.00  0.00    -0.940 OA
ATOM     19  O   LIG    1        3.803  -8.802  -0.836  0.00  0.00    -0.940 OA
ATOM     20  C   LIG    1        1.689  -9.305  -2.384  0.00  0.00    -0.260 C 
ENDBRANCH  14  17
ENDBRANCH   8  11
ENDBRANCH   6   7
BRANCH   1  21
ATOM     21  S   LIG    1        4.139  -0.260   0.471  0.00  0.00    +0.140 S 
BRANCH  21  26
ATOM     22  C   LIG    1        9.530  -1.627  -0.698  0.00  0.00    +0.140 C 
ATOM     23  C   LIG    1        8.187  -1.430  -1.352  0.00  0.00    -0.170 A 
ATOM     24  C   LIG    1        7.088  -1.089  -0.706  0.00  0.00    -0.070 A 
ATOM     25  C   LIG    1        5.909  -0.956  -1.540  0.00  0.00    -0.160 A 
ATOM     26  C   LIG    1        4.575  -0.610  -1.200  0.00  0.00    +0.210 A 
ATOM     27  N   LIG    1        3.664  -0.549  -2.160  0.00  0.00    -0.530 NA
ATOM     28  C   LIG    1        3.976  -0.809  -3.417  0.00  0.00    +0.520 A 
ATOM     29  N   LIG    1        5.194  -1.138  -3.781  0.00  0.00    -0.500 NA
ATOM     30  C   LIG    1        6.184  -1.226  -2.883  0.00  0.00    +0.100 A 
ATOM     31  C   LIG    1        7.061  -0.857   0.783  0.00  0.00    +0.130 C 
ATOM     32  S   LIG    1        7.883  -1.637  -3.067  0.00  0.00    +0.170 S 
ENDBRANCH  21  26
ENDBRANCH   1  21
TORSDOF 5
