REMARK  Name = ZINCqH0000003pss.0
REMARK                            x       y       z     vdW  Elec       q    Type
REMARK                         _______ _______ _______ _____ _____    ______ ____
ROOT
ATOM      1  C   LIG    1        1.352  -0.539  -0.014  0.00  0.00    -0.190 A 
ATOM      2  C   LIG    1        2.318   0.429  -0.018  0.00  0.00    +0.050 A 
ATOM      3  S   LIG    1        1.617   1.980  -0.003  0.00  0.00    +0.310 S 
ATOM      4  C   LIG    1       -0.016   1.334   0.009  0.00  0.00    -0.250 A 
ATOM      5  C   LIG    1       -1.280   2.171   0.020  0.00  0.00    +0.120 C 
ATOM      6  C   LIG    1       -2.454   1.283   0.447  0.00  0.00    -0.010 C 
ATOM      7  C   LIG    1       -3.770   2.033   0.230  0.00  0.00    +0.030 C 
ATOM      8  C   LIG    1       -2.445   0.008  -0.401  0.00  0.00    +0.030 C 
ATOM      9  C   LIG    1       -1.254  -0.861   0.010  0.00  0.00    +0.090 C 
ATOM     10  C   LIG    1        0.002  -0.004   0.002  0.00  0.00    -0.040 A 
ENDROOT
BRANCH   2  11
ATOM     11  N   LIG    1        3.682   0.181  -0.033  0.00  0.00    -0.640 N 
ATOM     12  H   LIG    1        4.009  -0.733  -0.041  0.00  0.00    +0.420 HD
ATOM     13  C   LIG    1        4.554   1.208  -0.036  0.00  0.00    +0.510 C 
ATOM     14  O   LIG    1        4.145   2.350  -0.025  0.00  0.00    -0.480 OA
BRANCH  13  15
ATOM     15  C   LIG    1        6.036   0.939  -0.052  0.00  0.00    +0.220 C 
BRANCH  15  16
ATOM     16  N   LIG    1        6.766   2.214  -0.052  0.00  0.00    -0.520 NA
ATOM     17  C   LIG    1        6.527   2.957  -1.296  0.00  0.00    +0.170 C 
ATOM     18  C   LIG    1        7.181   4.337  -1.201  0.00  0.00    +0.030 C 
ATOM     19  C   LIG    1        8.685   4.169  -0.965  0.00  0.00    -0.030 C 
ATOM     20  C   LIG    1        8.905   3.350   0.310  0.00  0.00    +0.030 C 
ATOM     21  C   LIG    1        9.336   5.544  -0.809  0.00  0.00    +0.010 C 
ATOM     22  C   LIG    1        8.201   1.999   0.171  0.00  0.00    +0.180 C 
ENDBRANCH  15  16
ENDBRANCH  13  15
ENDBRANCH   2  11
BRANCH   1  23
ATOM     23  C   LIG    1        1.649  -1.973  -0.025  0.00  0.00    +0.540 C 
ATOM     24  O   LIG    1        1.762  -2.563  -1.083  0.00  0.00    -0.490 OA
BRANCH  23  25
ATOM     25  O   LIG    1        1.797  -2.640   1.138  0.00  0.00    -0.350 OA
BRANCH  25  27
ATOM     26  C   LIG    1        2.223  -4.640   2.461  0.00  0.00    +0.070 C 
ATOM     27  C   LIG    1        2.091  -4.059   1.052  0.00  0.00    +0.200 C 
ENDBRANCH  25  27
ENDBRANCH  23  25
ENDBRANCH   1  23
TORSDOF 6
