REMARK  Name = ZINCpk00000y6uuW.0
REMARK                            x       y       z     vdW  Elec       q    Type
REMARK                         _______ _______ _______ _____ _____    ______ ____
ROOT
ATOM      1  C   LIG    1       -2.868   1.797   0.099  0.00  0.00    +0.080 C 
ATOM      2  C   LIG    1       -2.228   1.174  -1.143  0.00  0.00    +0.030 C 
ATOM      3  C   LIG    1       -0.759   1.596  -1.228  0.00  0.00    +0.020 C 
ATOM      4  C   LIG    1       -0.013   1.086   0.008  0.00  0.00    +0.260 C 
ATOM      5  N   LIG    1       -0.706   1.562   1.213  0.00  0.00    -0.610 N 
ATOM      6  C   LIG    1       -0.037   2.238   2.168  0.00  0.00    +0.550 C 
ATOM      7  O   LIG    1       -0.621   2.626   3.158  0.00  0.00    -0.540 OA
ATOM      8  C   LIG    1       -2.146   1.289   1.351  0.00  0.00    +0.290 C 
ENDROOT
BRANCH   1  11
ATOM      9  C   LIG    1       -6.223   0.287   0.008  0.00  0.00    -0.050 A 
ATOM     10  C   LIG    1       -4.866   0.187  -0.243  0.00  0.00    +0.030 A 
ATOM     11  C   LIG    1       -4.323   1.407   0.164  0.00  0.00    +0.030 A 
ATOM     12  N   LIG    1       -5.301   2.154   0.607  0.00  0.00    -0.260 NA
ATOM     13  N   LIG    1       -6.423   1.533   0.531  0.00  0.00    -0.380 N 
ATOM     14  H   LIG    1       -7.282   1.894   0.803  0.00  0.00    +0.440 HD
BRANCH   9  18
ATOM     15  N   LIG    1       -8.539  -0.489   0.048  0.00  0.00    -0.850 N 
ATOM     16  H   LIG    1       -9.213  -1.166  -0.118  0.00  0.00    +0.410 HD
ATOM     17  H   LIG    1       -8.793   0.367   0.426  0.00  0.00    +0.400 HD
ATOM     18  C   LIG    1       -7.247  -0.739  -0.245  0.00  0.00    +0.600 C 
ATOM     19  O   LIG    1       -6.928  -1.813  -0.718  0.00  0.00    -0.520 OA
ENDBRANCH   9  18
ENDBRANCH   1  11
BRANCH   6  20
ATOM     20  C   LIG    1        1.436   2.511   2.006  0.00  0.00    -0.050 C 
ATOM     21  C   LIG    1        1.866   3.962   1.782  0.00  0.00    +0.080 C 
ATOM     22  C   LIG    1        2.139   3.282   3.125  0.00  0.00    +0.050 C 
BRANCH  22  23
ATOM     23  C   LIG    1        3.565   2.909   3.439  0.00  0.00    -0.110 A 
ATOM     24  C   LIG    1        3.911   2.461   4.704  0.00  0.00    +0.080 A 
ATOM     25  C   LIG    1        5.234   2.124   4.946  0.00  0.00    -0.030 A 
ATOM     26  C   LIG    1        6.159   2.254   3.927  0.00  0.00    +0.250 A 
ATOM     27  N   LIG    1        5.795   2.689   2.737  0.00  0.00    -0.480 NA
ATOM     28  C   LIG    1        4.545   3.014   2.470  0.00  0.00    +0.260 A 
ENDBRANCH  22  23
ENDBRANCH   6  20
TORSDOF 4
