REMARK  Name = ZINCpk00000KfKsK.0
REMARK                            x       y       z     vdW  Elec       q    Type
REMARK                         _______ _______ _______ _____ _____    ______ ____
ROOT
ATOM      1  N   LIG    1        4.247   0.851  -1.378  0.00  0.00    -0.530 NA
ATOM      2  C   LIG    1        3.781  -0.395  -2.003  0.00  0.00    +0.190 C 
ATOM      3  C   LIG    1        4.166  -0.395  -3.484  0.00  0.00    +0.180 C 
ATOM      4  N   LIG    1        5.624  -0.260  -3.608  0.00  0.00    -0.530 NA
ATOM      5  C   LIG    1        6.090   0.986  -2.984  0.00  0.00    +0.190 C 
ATOM      6  C   LIG    1        5.705   0.986  -1.503  0.00  0.00    +0.180 C 
ENDROOT
BRANCH   1   7
ATOM      7  C   LIG    1        3.830   0.923   0.028  0.00  0.00    +0.300 C 
BRANCH   7  12
ATOM      8  N   LIG    1        1.619   2.178   0.107  0.00  0.00    -0.440 N 
ATOM      9  C   LIG    1        0.296   1.837   0.184  0.00  0.00    +0.110 A 
ATOM     10  C   LIG    1        0.242   0.492   0.223  0.00  0.00    +0.140 A 
ATOM     11  N   LIG    1        1.498   0.024   0.172  0.00  0.00    -0.490 NA
ATOM     12  C   LIG    1        2.328   1.029   0.102  0.00  0.00    +0.210 A 
BRANCH   8  14
ATOM     13  C   LIG    1        2.398   3.922  -1.420  0.00  0.00    +0.040 C 
ATOM     14  C   LIG    1        2.165   3.536   0.042  0.00  0.00    +0.280 C 
ENDBRANCH   8  14
ENDBRANCH   7  12
ENDBRANCH   1   7
BRANCH   4  15
ATOM     15  C   LIG    1        6.041  -0.332  -5.015  0.00  0.00    +0.200 C 
BRANCH  15  16
ATOM     16  C   LIG    1        5.157   0.589  -5.857  0.00  0.00    +0.180 C 
BRANCH  16  17
ATOM     17  O   LIG    1        5.394   1.948  -5.485  0.00  0.00    -0.540 OA
ATOM     18  H   LIG    1        6.308   2.237  -5.611  0.00  0.00    +0.370 HD
ENDBRANCH  16  17
BRANCH  16  19
ATOM     19  C   LIG    1        5.489   0.401  -7.339  0.00  0.00    +0.170 C 
BRANCH  19  20
ATOM     20  O   LIG    1        4.585   1.173  -8.132  0.00  0.00    -0.300 OA
BRANCH  20  21
ATOM     21  C   LIG    1        4.745   1.118  -9.480  0.00  0.00    +0.130 A 
ATOM     22  C   LIG    1        5.754   0.340 -10.029  0.00  0.00    -0.080 A 
ATOM     23  C   LIG    1        5.911   0.281 -11.400  0.00  0.00    +0.050 A 
ATOM     24  C   LIG    1        5.069   1.004 -12.225  0.00  0.00    -0.040 A 
ATOM     25  C   LIG    1        4.066   1.784 -11.680  0.00  0.00    +0.050 A 
ATOM     26  C   LIG    1        3.902   1.843 -10.310  0.00  0.00    -0.020 A 
ENDBRANCH  20  21
ENDBRANCH  19  20
ENDBRANCH  16  19
ENDBRANCH  15  16
ENDBRANCH   4  15
TORSDOF 9
