REMARK  Name = ZINCtj00000mgxAv.0
REMARK                            x       y       z     vdW  Elec       q    Type
REMARK                         _______ _______ _______ _____ _____    ______ ____
ROOT
ATOM      1  C   LIG    1       -4.356   6.986  -6.367  0.00  0.00    +0.350 A 
ATOM      2  C   LIG    1       -4.050   6.914  -5.011  0.00  0.00    -0.140 A 
ATOM      3  C   LIG    1       -4.801   7.680  -4.125  0.00  0.00    +0.460 A 
ATOM      4  N   LIG    1       -5.771   8.457  -4.603  0.00  0.00    -0.570 NA
ATOM      5  C   LIG    1       -6.027   8.501  -5.895  0.00  0.00    +0.570 A 
ATOM      6  N   LIG    1       -5.342   7.787  -6.765  0.00  0.00    -0.600 NA
ENDROOT
BRANCH   1  11
ATOM      7  C   LIG    1       -4.034   6.585  -8.672  0.00  0.00    +0.190 C 
ATOM      8  C   LIG    1       -3.910   5.260  -9.463  0.00  0.00    +0.060 C 
ATOM      9  C   LIG    1       -4.396   4.223  -8.417  0.00  0.00    +0.170 C 
ATOM     10  C   LIG    1       -3.862   4.795  -7.087  0.00  0.00    +0.200 C 
ATOM     11  N   LIG    1       -3.640   6.238  -7.290  0.00  0.00    -0.470 N 
BRANCH   9  12
ATOM     12  O   LIG    1       -3.829   2.937  -8.678  0.00  0.00    -0.550 OA
ATOM     13  H   LIG    1       -4.041   2.271  -8.009  0.00  0.00    +0.390 HD
ENDBRANCH   9  12
BRANCH   7  14
ATOM     14  C   LIG    1       -3.087   7.640  -9.247  0.00  0.00    +0.280 C 
BRANCH  14  16
ATOM     15  C   LIG    1       -0.828   8.057  -9.938  0.00  0.00    +0.310 C 
ATOM     16  N   LIG    1       -1.710   7.130  -9.217  0.00  0.00    -0.380 N 
ATOM     17  C   LIG    1       -1.261   7.013  -7.823  0.00  0.00    +0.320 C 
ATOM     18  H   LIG    1       -1.677   6.223  -9.658  0.00  0.00    +0.420 HD
ENDBRANCH  14  16
ENDBRANCH   7  14
ENDBRANCH   1  11
BRANCH   3  19
ATOM     19  N   LIG    1       -4.539   7.639  -2.764  0.00  0.00    -0.610 N 
ATOM     20  H   LIG    1       -3.781   7.134  -2.431  0.00  0.00    +0.420 HD
BRANCH  19  21
ATOM     21  C   LIG    1       -5.373   8.332  -1.866  0.00  0.00    -0.010 A 
ATOM     22  C   LIG    1       -5.294   8.295  -0.511  0.00  0.00    +0.220 A 
ATOM     23  N   LIG    1       -6.275   9.098  -0.021  0.00  0.00    -0.360 N 
ATOM     24  N   LIG    1       -6.975   9.634  -1.109  0.00  0.00    -0.280 NA
ATOM     25  C   LIG    1       -6.434   9.182  -2.211  0.00  0.00    +0.260 A 
BRANCH  23  26
ATOM     26  C   LIG    1       -6.555   9.352   1.394  0.00  0.00    +0.410 C 
BRANCH  26  27
ATOM     27  C   LIG    1       -6.534  10.837   1.651  0.00  0.00    +0.100 A 
ATOM     28  C   LIG    1       -7.630  11.444   2.234  0.00  0.00    -0.010 A 
ATOM     29  C   LIG    1       -7.601  12.811   2.466  0.00  0.00    +0.070 A 
ATOM     30  C   LIG    1       -6.465  13.518   2.103  0.00  0.00    -0.020 A 
ATOM     31  C   LIG    1       -5.409  12.843   1.520  0.00  0.00    +0.260 A 
ATOM     32  N   LIG    1       -5.470  11.541   1.319  0.00  0.00    -0.470 NA
ENDBRANCH  26  27
ENDBRANCH  23  26
ENDBRANCH  19  21
ENDBRANCH   3  19
TORSDOF 8
