REMARK  Name = ZINCnE000001CE2O.1
REMARK                            x       y       z     vdW  Elec       q    Type
REMARK                         _______ _______ _______ _____ _____    ______ ____
ROOT
ATOM      1  C   LIG    1        2.508  -6.180  -0.069  0.00  0.00    +0.100 C 
ENDROOT
BRANCH   1   5
ATOM      2  C   LIG    1       -0.963  -8.674  -0.041  0.00  0.00    +0.120 A 
ATOM      3  C   LIG    1       -0.514  -8.119  -1.232  0.00  0.00    +0.010 A 
ATOM      4  C   LIG    1        0.608  -7.313  -1.238  0.00  0.00    +0.030 A 
ATOM      5  C   LIG    1        1.284  -7.059  -0.059  0.00  0.00    -0.050 A 
ATOM      6  C   LIG    1        0.843  -7.615   1.128  0.00  0.00    +0.030 A 
ATOM      7  C   LIG    1       -0.281  -8.417   1.141  0.00  0.00    -0.020 A 
BRANCH   2  10
ATOM      8  C   LIG    1       -3.654 -11.067  -1.134  0.00  0.00    +0.100 C 
ATOM      9  C   LIG    1       -2.371 -10.277  -1.092  0.00  0.00    +0.510 C 
ATOM     10  N   LIG    1       -2.099  -9.491  -0.032  0.00  0.00    -0.670 N 
ATOM     11  H   LIG    1       -2.690  -9.491   0.737  0.00  0.00    +0.410 HD
ATOM     12  O   LIG    1       -1.584 -10.350  -2.011  0.00  0.00    -0.530 OA
ENDBRANCH   2  10
ENDBRANCH   1   5
BRANCH   1  13
ATOM     13  C   LIG    1        2.099  -4.747   0.151  0.00  0.00    +0.470 C 
ATOM     14  N   LIG    1        3.034  -3.776   0.181  0.00  0.00    -0.690 NA
ATOM     15  O   LIG    1        0.929  -4.466   0.301  0.00  0.00    -0.560 OA
BRANCH  14  16
ATOM     16  C   LIG    1        2.657  -2.458   0.383  0.00  0.00    +0.400 A 
ATOM     17  N   LIG    1        1.445  -2.057   0.552  0.00  0.00    -0.560 NA
ATOM     18  C   LIG    1        1.236  -0.739   0.738  0.00  0.00    +0.150 A 
ATOM     19  C   LIG    1        0.018  -0.058   0.942  0.00  0.00    +0.000 A 
ATOM     20  C   LIG    1        0.003   1.304   1.113  0.00  0.00    +0.020 A 
ATOM     21  C   LIG    1        1.184   2.031   1.089  0.00  0.00    -0.050 A 
ATOM     22  C   LIG    1        2.385   1.388   0.891  0.00  0.00    +0.060 A 
ATOM     23  C   LIG    1        2.419   0.007   0.715  0.00  0.00    -0.220 A 
ATOM     24  S   LIG    1        3.767  -1.096   0.445  0.00  0.00    -0.040 S 
ENDBRANCH  14  16
ENDBRANCH   1  13
TORSDOF 4
