REMARK  Name = ZINCpe000000SXCs.0
REMARK                            x       y       z     vdW  Elec       q    Type
REMARK                         _______ _______ _______ _____ _____    ______ ____
ROOT
ATOM      1  C   LIG    1       -0.014   1.209   0.009  0.00  0.00    +0.530 C 
ATOM      2  N   LIG    1       -1.191   1.867   0.018  0.00  0.00    -0.610 N 
ATOM      3  C   LIG    1       -1.233   3.337   0.032  0.00  0.00    +0.300 C 
ATOM      4  C   LIG    1       -2.163   3.803  -1.099  0.00  0.00    +0.200 C 
ATOM      5  N   LIG    1       -3.468   3.143  -0.957  0.00  0.00    -0.470 N 
ATOM      6  C   LIG    1       -3.347   1.687  -1.105  0.00  0.00    +0.210 C 
ATOM      7  C   LIG    1       -2.466   1.133   0.020  0.00  0.00    +0.290 C 
ATOM      8  O   LIG    1        0.002  -0.004   0.002  0.00  0.00    -0.530 OA
ENDROOT
BRANCH   1  11
ATOM      9  N   LIG    1        3.464   1.754   0.965  0.00  0.00    -0.620 N 
ATOM     10  C   LIG    1        2.491   1.030   0.139  0.00  0.00    +0.300 C 
ATOM     11  C   LIG    1        1.280   1.980   0.001  0.00  0.00    +0.000 C 
ATOM     12  C   LIG    1        1.415   2.849   1.272  0.00  0.00    +0.070 C 
ATOM     13  C   LIG    1        2.886   2.777   1.617  0.00  0.00    +0.520 C 
ATOM     14  O   LIG    1        3.461   3.533   2.371  0.00  0.00    -0.520 OA
BRANCH   9  16
ATOM     15  C   LIG    1        5.733   2.588   0.595  0.00  0.00    +0.030 C 
ATOM     16  C   LIG    1        4.884   1.406   1.065  0.00  0.00    +0.240 C 
ATOM     17  C   LIG    1        5.227   1.077   2.520  0.00  0.00    +0.030 C 
ENDBRANCH   9  16
ENDBRANCH   1  11
BRANCH   5  18
ATOM     18  C   LIG    1       -4.389   3.661  -1.861  0.00  0.00    +0.320 A 
ATOM     19  C   LIG    1       -4.644   5.027  -1.875  0.00  0.00    +0.010 A 
ATOM     20  C   LIG    1       -5.572   5.531  -2.789  0.00  0.00    +0.050 A 
ATOM     21  C   LIG    1       -6.207   4.630  -3.653  0.00  0.00    +0.000 A 
ATOM     22  C   LIG    1       -5.897   3.289  -3.573  0.00  0.00    +0.310 A 
ATOM     23  N   LIG    1       -5.010   2.848  -2.701  0.00  0.00    -0.500 NA
BRANCH  20  24
ATOM     24  C   LIG    1       -5.866   6.932  -2.841  0.00  0.00    +0.250 C 
ATOM     25  N   LIG    1       -6.099   8.043  -2.883  0.00  0.00    -0.390 NA
ENDBRANCH  20  24
ENDBRANCH   5  18
TORSDOF 4
