REMARK  Name = ZINCrD000000C8Z8.0
REMARK                            x       y       z     vdW  Elec       q    Type
REMARK                         _______ _______ _______ _____ _____    ______ ____
ROOT
ATOM      1  C   LIG    1       -0.134   8.727  -5.520  0.00  0.00    +0.190 A 
ATOM      2  C   LIG    1       -0.430   9.677  -4.548  0.00  0.00    +0.010 A 
ATOM      3  C   LIG    1       -0.579   9.295  -3.233  0.00  0.00    +0.110 A 
ATOM      4  C   LIG    1       -0.432   7.952  -2.877  0.00  0.00    -0.150 A 
ATOM      5  C   LIG    1       -0.129   7.001  -3.855  0.00  0.00    +0.070 A 
ATOM      6  C   LIG    1        0.013   7.388  -5.168  0.00  0.00    -0.020 A 
ENDROOT
BRANCH   1   9
ATOM      7  O   LIG    1        0.967  11.033  -6.254  0.00  0.00    -0.550 OA
ATOM      8  C   LIG    1        0.539  10.323  -7.144  0.00  0.00    +0.700 C 
ATOM      9  N   LIG    1        0.016   9.117  -6.851  0.00  0.00    -0.680 N 
ATOM     10  H   LIG    1       -0.257   8.519  -7.565  0.00  0.00    +0.410 HD
ATOM     11  N   LIG    1        0.588  10.743  -8.424  0.00  0.00    -0.680 N 
ATOM     12  H   LIG    1        0.180  10.212  -9.125  0.00  0.00    +0.410 HD
BRANCH  11  13
ATOM     13  C   LIG    1        1.228  11.947  -8.741  0.00  0.00    +0.160 A 
ATOM     14  C   LIG    1        0.764  12.725  -9.793  0.00  0.00    -0.020 A 
ATOM     15  C   LIG    1        1.395  13.914 -10.101  0.00  0.00    +0.030 A 
ATOM     16  C   LIG    1        2.494  14.325  -9.370  0.00  0.00    -0.010 A 
ATOM     17  C   LIG    1        2.962  13.550  -8.324  0.00  0.00    +0.030 A 
ATOM     18  C   LIG    1        2.332  12.362  -8.008  0.00  0.00    +0.020 A 
ENDBRANCH  11  13
ENDBRANCH   1   9
BRANCH   4  19
ATOM     19  C   LIG    1       -0.589   7.539  -1.468  0.00  0.00    +0.560 C 
ATOM     20  N   LIG    1       -0.447   6.243  -1.126  0.00  0.00    -0.720 N 
ATOM     21  H   LIG    1       -0.241   5.582  -1.805  0.00  0.00    +0.400 HD
ATOM     22  O   LIG    1       -0.848   8.368  -0.617  0.00  0.00    -0.530 OA
BRANCH  20  23
ATOM     23  C   LIG    1       -0.604   5.834   0.272  0.00  0.00    +0.350 C 
BRANCH  23  24
ATOM     24  C   LIG    1       -0.397   4.345   0.385  0.00  0.00    +0.080 A 
ATOM     25  N   LIG    1        0.812   3.870   0.609  0.00  0.00    -0.450 NA
ATOM     26  C   LIG    1        1.040   2.575   0.716  0.00  0.00    +0.250 A 
ATOM     27  C   LIG    1        0.011   1.661   0.596  0.00  0.00    -0.010 A 
ATOM     28  C   LIG    1       -1.275   2.117   0.355  0.00  0.00    +0.040 A 
ATOM     29  C   LIG    1       -1.481   3.489   0.253  0.00  0.00    +0.080 A 
BRANCH  29  30
ATOM     30  O   LIG    1       -2.726   3.984   0.023  0.00  0.00    -0.490 OA
ATOM     31  H   LIG    1       -2.944   4.081  -0.914  0.00  0.00    +0.390 HD
ENDBRANCH  29  30
ENDBRANCH  23  24
ENDBRANCH  20  23
ENDBRANCH   4  19
TORSDOF 6
