REMARK  Name = ZINCnE000001LYK8.0
REMARK                            x       y       z     vdW  Elec       q    Type
REMARK                         _______ _______ _______ _____ _____    ______ ____
ROOT
ATOM      1  C   LIG    1        2.419   3.936  -0.001  0.00  0.00    +0.560 C 
ATOM      2  N   LIG    1        3.596   3.285   0.086  0.00  0.00    -0.600 N 
ATOM      3  C   LIG    1        3.641   1.817   0.080  0.00  0.00    +0.260 C 
ATOM      4  C   LIG    1        4.424   1.342   1.308  0.00  0.00    +0.010 C 
ATOM      5  C   LIG    1        5.799   2.014   1.322  0.00  0.00    +0.020 C 
ATOM      6  C   LIG    1        5.627   3.531   1.416  0.00  0.00    -0.030 C 
ATOM      7  C   LIG    1        4.858   4.031   0.183  0.00  0.00    +0.280 C 
ATOM      8  O   LIG    1        2.399   5.150  -0.064  0.00  0.00    -0.520 OA
ENDROOT
BRANCH   1  11
ATOM      9  C   LIG    1       -1.061   2.801   0.833  0.00  0.00    -0.110 A 
ATOM     10  C   LIG    1        0.118   3.515   0.854  0.00  0.00    +0.120 A 
ATOM     11  C   LIG    1        1.153   3.175  -0.019  0.00  0.00    -0.130 A 
ATOM     12  C   LIG    1        0.988   2.112  -0.910  0.00  0.00    +0.080 A 
ATOM     13  C   LIG    1       -0.196   1.405  -0.924  0.00  0.00    -0.010 A 
ATOM     14  C   LIG    1       -1.222   1.750  -0.058  0.00  0.00    +0.130 A 
ATOM     15  F   LIG    1       -2.382   1.058  -0.079  0.00  0.00    -0.130 F 
BRANCH   9  16
ATOM     16  C   LIG    1       -2.179   3.167   1.774  0.00  0.00    +0.150 C 
BRANCH  16  18
ATOM     17  C   LIG    1       -4.521   4.701   2.251  0.00  0.00    +0.130 C 
ATOM     18  S   LIG    1       -3.259   4.392   0.984  0.00  0.00    -0.250 S 
ENDBRANCH  16  18
ENDBRANCH   9  16
ENDBRANCH   1  11
BRANCH   6  19
ATOM     19  C   LIG    1        7.003   4.200   1.463  0.00  0.00    +0.040 C 
BRANCH  19  20
ATOM     20  C   LIG    1        6.832   5.704   1.682  0.00  0.00    -0.080 C 
BRANCH  20  21
ATOM     21  C   LIG    1        8.186   6.362   1.729  0.00  0.00    +0.490 C 
ATOM     22  O   LIG    1        8.274   7.567   1.896  0.00  0.00    -0.710 OA
ATOM     23  O   LIG    1        9.195   5.690   1.599  0.00  0.00    -0.700 OA
ENDBRANCH  20  21
ENDBRANCH  19  20
ENDBRANCH   6  19
TORSDOF 6
