REMARK  Name = ZINCkj000005hlkL.0
REMARK                            x       y       z     vdW  Elec       q    Type
REMARK                         _______ _______ _______ _____ _____    ______ ____
ROOT
ATOM      1  N   LIG    1        1.575  -2.510   2.374  0.00  0.00    -0.750 N 
ATOM      2  H   LIG    1        1.898  -1.876   3.033  0.00  0.00    +0.390 HD
ATOM      3  C   LIG    1        1.765  -3.832   2.560  0.00  0.00    +0.710 C 
ATOM      4  N   LIG    1        2.405  -4.272   3.662  0.00  0.00    -0.670 N 
ATOM      5  H   LIG    1        2.783  -3.636   4.290  0.00  0.00    +0.410 HD
ATOM      6  O   LIG    1        1.359  -4.627   1.734  0.00  0.00    -0.560 OA
ENDROOT
BRANCH   4   7
ATOM      7  C   LIG    1        2.524  -5.646   3.900  0.00  0.00    +0.120 A 
ATOM      8  C   LIG    1        2.671  -6.537   2.841  0.00  0.00    +0.100 A 
ATOM      9  C   LIG    1        2.786  -7.888   3.127  0.00  0.00    +0.000 A 
ATOM     10  C   LIG    1        2.751  -8.305   4.443  0.00  0.00    +0.280 A 
ATOM     11  N   LIG    1        2.610  -7.436   5.426  0.00  0.00    -0.460 NA
ATOM     12  C   LIG    1        2.503  -6.142   5.199  0.00  0.00    +0.150 A 
ATOM     13 CL   LIG    1        2.327  -5.046   6.534  0.00  0.00    -0.030 Cl
ENDBRANCH   4   7
BRANCH   1  14
ATOM     14  C   LIG    1        0.879  -2.032   1.176  0.00  0.00    +0.290 C 
BRANCH  14  19
ATOM     15  C   LIG    1        1.430   3.494  -0.119  0.00  0.00    +0.320 C 
ATOM     16  N   LIG    1        1.442   2.027  -0.041  0.00  0.00    -0.380 N 
ATOM     17  C   LIG    1        0.063   1.527  -0.041  0.00  0.00    +0.280 C 
ATOM     18  C   LIG    1        0.071  -0.003  -0.041  0.00  0.00    +0.110 C 
ATOM     19  C   LIG    1        0.798  -0.505   1.210  0.00  0.00    +0.120 C 
ATOM     20  C   LIG    1        2.211   0.083   1.237  0.00  0.00    +0.030 C 
ATOM     21  C   LIG    1        2.124   1.610   1.191  0.00  0.00    +0.260 C 
ATOM     22  H   LIG    1        1.934   1.654  -0.839  0.00  0.00    +0.420 HD
BRANCH  19  23
ATOM     23  O   LIG    1        0.084  -0.088   2.376  0.00  0.00    -0.550 OA
ATOM     24  H   LIG    1        0.489  -0.372   3.207  0.00  0.00    +0.390 HD
ENDBRANCH  19  23
ENDBRANCH  14  19
ENDBRANCH   1  14
TORSDOF 4
