REMARK  Name = ZINCrH00000No4Va.0
REMARK                            x       y       z     vdW  Elec       q    Type
REMARK                         _______ _______ _______ _____ _____    ______ ____
ROOT
ATOM      1  C   LIG    1        3.189   5.994   1.215  0.00  0.00    +0.190 C 
ATOM      2  C   LIG    1        2.129   5.272   0.786  0.00  0.00    -0.130 C 
ENDROOT
BRANCH   2   3
ATOM      3  C   LIG    1        0.895   5.916   0.519  0.00  0.00    +0.560 C 
ATOM      4  N   LIG    1       -0.128   5.218  -0.013  0.00  0.00    -0.550 N 
ATOM      5  C   LIG    1        0.062   3.826  -0.445  0.00  0.00    +0.280 C 
ATOM      6  C   LIG    1       -0.615   3.665  -1.813  0.00  0.00    +0.020 C 
ATOM      7  C   LIG    1       -2.115   3.907  -1.655  0.00  0.00    +0.110 C 
ATOM      8  C   LIG    1       -2.367   5.213  -0.945  0.00  0.00    +0.100 A 
ATOM      9  N   LIG    1       -3.551   5.789  -1.073  0.00  0.00    -0.470 NA
ATOM     10  C   LIG    1       -3.842   6.930  -0.482  0.00  0.00    +0.240 A 
ATOM     11  C   LIG    1       -2.915   7.577   0.313  0.00  0.00    -0.020 A 
ATOM     12  C   LIG    1       -1.662   7.011   0.480  0.00  0.00    +0.070 A 
ATOM     13  C   LIG    1       -1.388   5.807  -0.164  0.00  0.00    +0.110 A 
ATOM     14  O   LIG    1        0.759   7.099   0.771  0.00  0.00    -0.530 OA
ENDBRANCH   2   3
BRANCH   1  18
ATOM     15  N   LIG    1        6.573   4.948   2.061  0.00  0.00    -0.370 N 
ATOM     16  C   LIG    1        6.048   3.733   1.715  0.00  0.00    +0.030 A 
ATOM     17  C   LIG    1        4.761   3.894   1.362  0.00  0.00    +0.000 A 
ATOM     18  C   LIG    1        4.467   5.327   1.492  0.00  0.00    -0.170 A 
ATOM     19  C   LIG    1        6.792   2.423   1.732  0.00  0.00    +0.140 C 
ATOM     20  C   LIG    1        5.633   5.918   1.932  0.00  0.00    +0.090 A 
ATOM     21  C   LIG    1        5.829   7.384   2.219  0.00  0.00    +0.150 C 
BRANCH  15  25
ATOM     22  C   LIG    1       10.976   4.615   4.383  0.00  0.00    +0.210 C 
ATOM     23  C   LIG    1        9.814   5.006   3.507  0.00  0.00    -0.010 A 
ATOM     24  C   LIG    1        8.599   4.412   3.462  0.00  0.00    -0.050 A 
ATOM     25  C   LIG    1        7.889   5.159   2.486  0.00  0.00    +0.220 A 
ATOM     26  N   LIG    1        8.712   6.080   2.061  0.00  0.00    -0.350 NA
ATOM     27  O   LIG    1        9.781   6.011   2.621  0.00  0.00    +0.120 OA
ENDBRANCH  15  25
ENDBRANCH   1  18
TORSDOF 3
