REMARK  Name = ZINCpk00000KfKSD.0
REMARK                            x       y       z     vdW  Elec       q    Type
REMARK                         _______ _______ _______ _____ _____    ______ ____
ROOT
ATOM      1  C   LIG    1        3.625   2.311  -1.029  0.00  0.00    +0.060 C 
ATOM      2  C   LIG    1        3.243   1.379  -2.181  0.00  0.00    +0.240 C 
ATOM      3  O   LIG    1        2.094   0.613  -1.811  0.00  0.00    -0.290 OA
ATOM      4  C   LIG    1        2.289  -0.384  -0.912  0.00  0.00    +0.130 A 
ATOM      5  C   LIG    1        3.500  -1.074  -0.901  0.00  0.00    +0.090 A 
ATOM      6  N   LIG    1        4.496  -0.723  -1.825  0.00  0.00    -0.660 N 
ATOM      7  H   LIG    1        5.244  -1.317  -1.991  0.00  0.00    +0.420 HD
ATOM      8  C   LIG    1        3.712  -2.091   0.014  0.00  0.00    +0.040 A 
ATOM      9  C   LIG    1        2.720  -2.429   0.920  0.00  0.00    +0.030 A 
ATOM     10  C   LIG    1        1.519  -1.752   0.926  0.00  0.00    +0.050 A 
ATOM     11  C   LIG    1        1.289  -0.726   0.004  0.00  0.00    -0.130 A 
ATOM     12  C   LIG    1        4.395   0.454  -2.480  0.00  0.00    +0.500 C 
ATOM     13  O   LIG    1        5.227   0.764  -3.306  0.00  0.00    -0.500 OA
ENDROOT
BRANCH  11  14
ATOM     14  C   LIG    1        0.002  -0.004   0.002  0.00  0.00    +0.580 C 
ATOM     15  N   LIG    1       -1.155  -0.689  -0.092  0.00  0.00    -0.600 N 
ATOM     16  C   LIG    1       -2.439   0.019  -0.181  0.00  0.00    +0.290 C 
ATOM     17  C   LIG    1       -3.192  -0.490  -1.420  0.00  0.00    +0.040 C 
ATOM     18  C   LIG    1       -3.319  -2.014  -1.343  0.00  0.00    +0.030 C 
ATOM     19  C   LIG    1       -1.924  -2.643  -1.335  0.00  0.00    +0.260 C 
ATOM     20  C   LIG    1       -1.156  -2.159  -0.102  0.00  0.00    +0.280 C 
ATOM     21  O   LIG    1       -0.015   1.209   0.086  0.00  0.00    -0.510 OA
BRANCH  19  22
ATOM     22  N   LIG    1       -2.046  -4.102  -1.293  0.00  0.00    -0.370 N 
ATOM     23  C   LIG    1       -2.196  -4.867  -0.198  0.00  0.00    +0.470 A 
ATOM     24  N   LIG    1       -2.270  -6.116  -0.581  0.00  0.00    -0.540 NA
ATOM     25  C   LIG    1       -2.163  -6.188  -1.907  0.00  0.00    +0.420 A 
ATOM     26  N   LIG    1       -2.024  -4.981  -2.389  0.00  0.00    -0.310 NA
ENDBRANCH  19  22
ENDBRANCH  11  14
TORSDOF 2
