REMARK  Name = ZINCpe00000VVGwZ.0
REMARK                            x       y       z     vdW  Elec       q    Type
REMARK                         _______ _______ _______ _____ _____    ______ ____
ROOT
ATOM      1  C   LIG    1        1.189   2.072   0.002  0.00  0.00    +0.460 A 
ATOM      2  C   LIG    1       -0.017   1.379   0.010  0.00  0.00    -0.120 A 
ATOM      3  C   LIG    1        0.002  -0.004   0.002  0.00  0.00    +0.220 A 
ATOM      4  C   LIG    1        1.231  -0.650  -0.013  0.00  0.00    -0.800 A 
ATOM      5  C   LIG    1        2.390   0.101  -0.020  0.00  0.00    +0.420 A 
ATOM      6  N   LIG    1        2.341   1.419  -0.012  0.00  0.00    -0.540 NA
ENDROOT
BRANCH   4   7
ATOM      7  S   LIG    1        1.311  -2.410  -0.024  0.00  0.00    +2.710 S 
ATOM      8  O   LIG    1        0.086  -2.871   0.529  0.00  0.00    -0.950 OA
ATOM      9  O   LIG    1        2.583  -2.757   0.507  0.00  0.00    -0.950 OA
BRANCH   7  10
ATOM     10  N   LIG    1        1.319  -2.891  -1.609  0.00  0.00    -1.120 NA
ATOM     11  H   LIG    1        0.577  -3.406  -1.963  0.00  0.00    +0.420 HD
BRANCH  10  12
ATOM     12  C   LIG    1        2.446  -2.538  -2.476  0.00  0.00    +0.400 C 
BRANCH  12  13
ATOM     13  C   LIG    1        2.400  -3.380  -3.725  0.00  0.00    -0.030 A 
ATOM     14  C   LIG    1        1.764  -3.060  -4.866  0.00  0.00    -0.030 A 
ATOM     15  C   LIG    1        1.981  -4.126  -5.769  0.00  0.00    -0.070 A 
ATOM     16  C   LIG    1        2.738  -5.033  -5.126  0.00  0.00    +0.180 A 
ATOM     17  O   LIG    1        2.994  -4.573  -3.890  0.00  0.00    -0.170 OA
ENDBRANCH  12  13
ENDBRANCH  10  12
ENDBRANCH   7  10
ENDBRANCH   4   7
BRANCH   1  19
ATOM     18  C   LIG    1        2.446   4.199  -0.109  0.00  0.00    +0.310 C 
ATOM     19  N   LIG    1        1.185   3.462   0.009  0.00  0.00    -0.580 N 
BRANCH  19  20
ATOM     20  C   LIG    1       -0.080   4.190   0.136  0.00  0.00    +0.330 C 
BRANCH  20  21
ATOM     21  C   LIG    1       -0.376   4.433   1.593  0.00  0.00    +0.490 C 
ATOM     22  N   LIG    1       -1.496   5.090   1.953  0.00  0.00    -0.700 N 
ATOM     23  H   LIG    1       -2.112   5.407   1.274  0.00  0.00    +0.400 HD
ATOM     24  O   LIG    1        0.394   4.036   2.443  0.00  0.00    -0.520 OA
BRANCH  22  25
ATOM     25  C   LIG    1       -1.785   5.326   3.370  0.00  0.00    +0.220 C 
ATOM     26  C   LIG    1       -3.218   5.086   3.849  0.00  0.00    +0.010 C 
ATOM     27  C   LIG    1       -2.682   6.514   3.720  0.00  0.00    +0.020 C 
ENDBRANCH  22  25
ENDBRANCH  20  21
ENDBRANCH  19  20
ENDBRANCH   1  19
TORSDOF 8
