REMARK  Name = ZINCpk00000kEUGc.0
REMARK                            x       y       z     vdW  Elec       q    Type
REMARK                         _______ _______ _______ _____ _____    ______ ____
ROOT
ATOM      1  C   LIG    1        2.370   5.755   2.033  0.00  0.00    +0.570 C 
ATOM      2  N   LIG    1        3.619   5.886   1.542  0.00  0.00    -0.600 N 
ATOM      3  C   LIG    1        4.617   6.725   2.225  0.00  0.00    +0.260 C 
ATOM      4  C   LIG    1        5.898   5.903   2.404  0.00  0.00    +0.210 C 
ATOM      5  O   LIG    1        6.286   5.355   1.141  0.00  0.00    -0.370 OA
ATOM      6  C   LIG    1        5.334   4.448   0.580  0.00  0.00    +0.220 C 
ATOM      7  C   LIG    1        4.024   5.196   0.308  0.00  0.00    +0.220 C 
ATOM      8  O   LIG    1        1.597   4.969   1.524  0.00  0.00    -0.520 OA
ENDROOT
BRANCH   1  12
ATOM      9  C   LIG    1        2.627   9.980   4.667  0.00  0.00    +0.130 C 
ATOM     10  C   LIG    1        2.063   8.598   4.462  0.00  0.00    +0.170 A 
ATOM     11  C   LIG    1        2.468   7.864   3.400  0.00  0.00    -0.070 A 
ATOM     12  C   LIG    1        1.941   6.571   3.197  0.00  0.00    -0.030 A 
ATOM     13  C   LIG    1        1.022   6.073   4.103  0.00  0.00    -0.020 A 
ATOM     14  C   LIG    1        0.637   6.875   5.197  0.00  0.00    +0.520 A 
ATOM     15  O   LIG    1       -0.172   6.453   6.007  0.00  0.00    -0.540 OA
ATOM     16  N   LIG    1        1.161   8.105   5.348  0.00  0.00    -0.490 N 
ATOM     17  C   LIG    1        0.752   8.926   6.490  0.00  0.00    +0.320 C 
ENDBRANCH   1  12
BRANCH   7  18
ATOM     18  C   LIG    1        2.938   4.199  -0.105  0.00  0.00    +0.070 C 
BRANCH  18  19
ATOM     19  C   LIG    1        1.776   4.945  -0.708  0.00  0.00    +0.470 C 
ATOM     20  O   LIG    1        1.812   6.155  -0.799  0.00  0.00    -0.460 OA
BRANCH  19  21
ATOM     21  C   LIG    1        0.644   4.235  -1.168  0.00  0.00    -0.100 A 
ATOM     22  C   LIG    1       -0.486   4.787  -1.739  0.00  0.00    +0.040 A 
ATOM     23  C   LIG    1       -1.340   3.719  -2.044  0.00  0.00    -0.070 A 
ATOM     24  C   LIG    1       -0.718   2.583  -1.651  0.00  0.00    +0.210 A 
ATOM     25  O   LIG    1        0.473   2.896  -1.129  0.00  0.00    -0.150 OA
ENDBRANCH  19  21
ENDBRANCH  18  19
ENDBRANCH   7  18
TORSDOF 4
