REMARK  Name = ZINCqH0000006Lqz.0
REMARK                            x       y       z     vdW  Elec       q    Type
REMARK                         _______ _______ _______ _____ _____    ______ ____
ROOT
ATOM      1  C   LIG    1        4.753   5.546  -0.014  0.00  0.00    +0.510 C 
ATOM      2  N   LIG    1        5.811   6.383  -0.019  0.00  0.00    -0.730 N 
ATOM      3  H   LIG    1        6.712   6.025  -0.030  0.00  0.00    +0.400 HD
ATOM      4  O   LIG    1        3.626   5.994  -0.000  0.00  0.00    -0.520 OA
ENDROOT
BRANCH   2   5
ATOM      5  C   LIG    1        5.598   7.832  -0.009  0.00  0.00    +0.240 C 
ATOM      6  C   LIG    1        5.386   8.326  -1.442  0.00  0.00    +0.000 C 
ATOM      7  C   LIG    1        5.164   9.840  -1.432  0.00  0.00    +0.020 C 
ATOM      8  C   LIG    1        6.389  10.531  -0.830  0.00  0.00    -0.010 C 
ATOM      9  C   LIG    1        6.167  12.045  -0.820  0.00  0.00    +0.000 C 
ATOM     10  C   LIG    1        7.392  12.736  -0.218  0.00  0.00    +0.000 C 
ATOM     11  C   LIG    1        7.604  12.242   1.214  0.00  0.00    +0.000 C 
ATOM     12  C   LIG    1        7.826  10.728   1.204  0.00  0.00    +0.010 C 
ATOM     13  C   LIG    1        6.601  10.037   0.603  0.00  0.00    -0.010 C 
ATOM     14  C   LIG    1        6.823   8.523   0.592  0.00  0.00    +0.020 C 
ENDBRANCH   2   5
BRANCH   1  15
ATOM     15  C   LIG    1        4.972   4.056  -0.024  0.00  0.00    +0.120 C 
BRANCH  15  18
ATOM     16  C   LIG    1        1.812   2.382   1.200  0.00  0.00    +0.150 A 
ATOM     17  C   LIG    1        3.041   3.025   1.188  0.00  0.00    -0.090 A 
ATOM     18  C   LIG    1        3.639   3.352  -0.015  0.00  0.00    +0.010 A 
ATOM     19  C   LIG    1        3.018   3.037  -1.209  0.00  0.00    -0.090 A 
ATOM     20  C   LIG    1        1.792   2.390  -1.205  0.00  0.00    +0.150 A 
ATOM     21  C   LIG    1        1.187   2.059   0.002  0.00  0.00    +0.030 A 
BRANCH  16  23
ATOM     22  C   LIG    1        1.921   2.428   3.575  0.00  0.00    +0.240 C 
ATOM     23  O   LIG    1        1.222   2.065   2.384  0.00  0.00    -0.300 OA
ENDBRANCH  16  23
BRANCH  20  24
ATOM     24  O   LIG    1        1.181   2.081  -2.380  0.00  0.00    -0.300 OA
ATOM     25  C   LIG    1        1.861   2.451  -3.581  0.00  0.00    +0.240 C 
ENDBRANCH  20  24
BRANCH  21  26
ATOM     26  O   LIG    1       -0.017   1.425   0.010  0.00  0.00    -0.310 OA
ATOM     27  C   LIG    1        0.002  -0.004   0.002  0.00  0.00    +0.210 C 
ENDBRANCH  21  26
ENDBRANCH  15  18
ENDBRANCH   1  15
TORSDOF 6
