REMARK  Name = ZINCqH0000004J1Z.2
REMARK                            x       y       z     vdW  Elec       q    Type
REMARK                         _______ _______ _______ _____ _____    ______ ____
ROOT
ATOM      1  C   LIG    1       -1.852   4.471   0.334  0.00  0.00    +0.100 C 
ATOM      2  C   LIG    1       -0.902   3.692  -0.579  0.00  0.00    +0.030 C 
ATOM      3  C   LIG    1       -0.982   2.201  -0.244  0.00  0.00    +0.020 C 
ATOM      4  C   LIG    1       -0.578   1.984   1.216  0.00  0.00    +0.000 C 
ATOM      5  C   LIG    1       -1.528   2.763   2.128  0.00  0.00    +0.010 C 
ATOM      6  C   LIG    1       -1.449   4.254   1.794  0.00  0.00    +0.000 C 
ENDROOT
BRANCH   1   7
ATOM      7  N   LIG    1       -1.776   5.902   0.013  0.00  0.00    -0.520 NA
ATOM      8  C   LIG    1       -2.748   6.672   0.802  0.00  0.00    +0.150 C 
ATOM      9  C   LIG    1       -2.677   8.146   0.394  0.00  0.00    +0.220 C 
ATOM     10  O   LIG    1       -1.339   8.620   0.571  0.00  0.00    -0.380 OA
ATOM     11  C   LIG    1       -0.366   7.893  -0.184  0.00  0.00    +0.110 C 
ATOM     12  C   LIG    1       -0.674   8.026  -1.677  0.00  0.00    +0.020 C 
ATOM     13  C   LIG    1        1.027   8.456   0.103  0.00  0.00    +0.060 C 
ATOM     14  C   LIG    1       -0.414   6.417   0.218  0.00  0.00    +0.170 C 
ENDBRANCH   1   7
BRANCH   1  15
ATOM     15  C   LIG    1       -3.284   3.976   0.121  0.00  0.00    +0.280 C 
BRANCH  15  17
ATOM     16  C   LIG    1       -4.979   4.035  -1.628  0.00  0.00    +0.550 C 
ATOM     17  N   LIG    1       -3.715   4.299  -1.241  0.00  0.00    -0.710 N 
ATOM     18  H   LIG    1       -3.092   4.704  -1.864  0.00  0.00    +0.400 HD
ATOM     19  O   LIG    1       -5.760   3.528  -0.848  0.00  0.00    -0.530 OA
BRANCH  16  25
ATOM     20  C   LIG    1       -6.701   4.027  -3.429  0.00  0.00    -0.020 A 
ATOM     21  C   LIG    1       -7.103   4.339  -4.711  0.00  0.00    +0.000 A 
ATOM     22  C   LIG    1       -6.229   4.972  -5.578  0.00  0.00    +0.040 A 
ATOM     23  C   LIG    1       -4.951   5.300  -5.165  0.00  0.00    +0.000 A 
ATOM     24  C   LIG    1       -4.538   4.999  -3.883  0.00  0.00    +0.040 A 
ATOM     25  C   LIG    1       -5.414   4.361  -3.003  0.00  0.00    -0.140 A 
BRANCH  20  27
ATOM     26  C   LIG    1       -8.303   4.366  -1.566  0.00  0.00    +0.030 C 
ATOM     27  C   LIG    1       -7.651   3.333  -2.488  0.00  0.00    +0.070 C 
ENDBRANCH  20  27
ENDBRANCH  16  25
ENDBRANCH  15  17
ENDBRANCH   1  15
TORSDOF 5
