REMARK  Name = ZINCkj000005lqUS.0
REMARK                            x       y       z     vdW  Elec       q    Type
REMARK                         _______ _______ _______ _____ _____    ______ ____
ROOT
ATOM      1  C   LIG    1       -4.968   1.969   3.339  0.00  0.00    +0.530 C 
ATOM      2  N   LIG    1       -5.568   1.724   4.520  0.00  0.00    -0.620 N 
ATOM      3  C   LIG    1       -6.460   2.717   5.138  0.00  0.00    +0.320 C 
ATOM      4  C   LIG    1       -7.879   2.131   5.222  0.00  0.00    +0.320 C 
ATOM      5  N   LIG    1       -7.805   0.763   5.742  0.00  0.00    -0.360 N 
ATOM      6  N   LIG    1       -8.843   0.013   6.303  0.00  0.00    -0.270 NA
ATOM      7  C   LIG    1       -8.367  -1.163   6.630  0.00  0.00    +0.280 A 
ATOM      8  C   LIG    1       -7.008  -1.196   6.290  0.00  0.00    -0.230 A 
ATOM      9 BR   LIG    1       -5.831  -2.656   6.541  0.00  0.00    -0.010 Br
ATOM     10  C   LIG    1       -6.689  -0.004   5.752  0.00  0.00    +0.090 A 
ATOM     11  C   LIG    1       -5.346   0.454   5.237  0.00  0.00    +0.400 C 
ATOM     12  O   LIG    1       -5.164   3.020   2.766  0.00  0.00    -0.520 OA
ENDROOT
BRANCH   1  17
ATOM     13  C   LIG    1       -0.699   1.479   1.216  0.00  0.00    +0.190 C 
ATOM     14  C   LIG    1       -0.362   0.671   2.517  0.00  0.00    +0.110 C 
ATOM     15  C   LIG    1       -1.667   1.266   2.939  0.00  0.00    -0.020 C 
ATOM     16  C   LIG    1       -2.841   0.666   3.669  0.00  0.00    +0.070 C 
ATOM     17  C   LIG    1       -4.053   0.938   2.730  0.00  0.00    -0.010 C 
ATOM     18  C   LIG    1       -3.421   1.483   1.409  0.00  0.00    +0.090 C 
ATOM     19  C   LIG    1       -2.041   0.857   1.454  0.00  0.00    -0.050 C 
BRANCH  13  20
ATOM     20  N   LIG    1       -0.012   1.005   0.008  0.00  0.00    -0.630 N 
ATOM     21  H   LIG    1       -0.500   1.339  -0.810  0.00  0.00    +0.440 HD
ATOM     22  H   LIG    1        0.935   1.354   0.000  0.00  0.00    +0.440 HD
ATOM     23  H   LIG    1        0.002  -0.004   0.002  0.00  0.00    +0.430 HD
ENDBRANCH  13  20
ENDBRANCH   1  17
TORSDOF 2
