REMARK  Name = ZINCvU0000000Gye.0
REMARK                            x       y       z     vdW  Elec       q    Type
REMARK                         _______ _______ _______ _____ _____    ______ ____
ROOT
ATOM      1  C   LIG    1       -0.019   1.405   0.033  0.00  0.00    -0.110 A 
ATOM      2  C   LIG    1        1.185   2.110   0.018  0.00  0.00    +0.070 A 
ATOM      3  C   LIG    1        2.386   1.420  -0.007  0.00  0.00    +0.140 A 
ATOM      4  C   LIG    1        2.390   0.030  -0.017  0.00  0.00    +0.040 A 
ATOM      5  C   LIG    1        1.199  -0.670  -0.003  0.00  0.00    +0.050 A 
ATOM      6  C   LIG    1       -0.005   0.008   0.022  0.00  0.00    +0.000 A 
ATOM      7 CL   LIG    1       -1.499  -0.876   0.040  0.00  0.00    -0.030 Cl
ENDROOT
BRANCH   1   9
ATOM      8  O   LIG    1       -2.352   1.518   0.061  0.00  0.00    -0.510 OA
ATOM      9  C   LIG    1       -1.305   2.134   0.053  0.00  0.00    +0.560 C 
ATOM     10  N   LIG    1       -1.315   3.481   0.064  0.00  0.00    -0.720 N 
ATOM     11  H   LIG    1       -0.479   3.973   0.058  0.00  0.00    +0.400 HD
BRANCH  10  12
ATOM     12  C   LIG    1       -2.590   4.204   0.084  0.00  0.00    +0.370 C 
BRANCH  12  13
ATOM     13  C   LIG    1       -2.326   5.687   0.092  0.00  0.00    -0.210 A 
ATOM     14  C   LIG    1       -2.205   6.453  -0.994  0.00  0.00    +0.030 A 
ATOM     15  C   LIG    1       -1.964   7.792  -0.739  0.00  0.00    +0.000 A 
ATOM     16  C   LIG    1       -1.891   8.114   0.553  0.00  0.00    -0.030 A 
ATOM     17  S   LIG    1       -2.140   6.676   1.535  0.00  0.00    +0.110 S 
ENDBRANCH  12  13
ENDBRANCH  10  12
ENDBRANCH   1   9
BRANCH   3  18
ATOM     18  N   LIG    1        3.596   2.123  -0.023  0.00  0.00    -0.660 N 
ATOM     19  H   LIG    1        4.369   1.769   0.445  0.00  0.00    +0.420 HD
ATOM     20  C   LIG    1        3.688   3.292  -0.687  0.00  0.00    +0.610 C 
ATOM     21  O   LIG    1        2.700   3.777  -1.202  0.00  0.00    -0.510 OA
BRANCH  20  22
ATOM     22  C   LIG    1        4.989   3.982  -0.790  0.00  0.00    -0.010 A 
ATOM     23  N   LIG    1        6.135   3.573  -0.283  0.00  0.00    -0.250 NA
ATOM     24  N   LIG    1        7.067   4.414  -0.560  0.00  0.00    -0.230 N 
ATOM     25  C   LIG    1        6.562   5.447  -1.284  0.00  0.00    +0.180 A 
ATOM     26  C   LIG    1        5.241   5.206  -1.456  0.00  0.00    +0.010 A 
BRANCH  24  27
ATOM     27  C   LIG    1        8.407   4.284  -0.172  0.00  0.00    +0.140 A 
ATOM     28  C   LIG    1        8.813   3.183   0.570  0.00  0.00    +0.060 A 
ATOM     29  C   LIG    1       10.135   3.057   0.951  0.00  0.00    +0.060 A 
ATOM     30  C   LIG    1       11.053   4.027   0.595  0.00  0.00    +0.050 A 
ATOM     31  C   LIG    1       10.652   5.126  -0.145  0.00  0.00    -0.070 A 
ATOM     32 BR   LIG    1       11.913   6.449  -0.630  0.00  0.00    -0.030 Br
ATOM     33  C   LIG    1        9.332   5.254  -0.533  0.00  0.00    +0.050 A 
ENDBRANCH  24  27
ENDBRANCH  20  22
ENDBRANCH   3  18
TORSDOF 6
