REMARK  Name = ZINCrg00000fSJ04.0
REMARK                            x       y       z     vdW  Elec       q    Type
REMARK                         _______ _______ _______ _____ _____    ______ ____
ROOT
ATOM      1  C   LIG    1        2.422   1.183  -0.015  0.00  0.00    +0.330 C 
ENDROOT
BRANCH   1   5
ATOM      2  C   LIG    1        5.633   4.005  -0.030  0.00  0.00    +0.120 A 
ATOM      3  C   LIG    1        5.125   3.534   1.174  0.00  0.00    -0.010 A 
ATOM      4  C   LIG    1        4.088   2.622   1.176  0.00  0.00    +0.060 A 
ATOM      5  C   LIG    1        3.554   2.178  -0.020  0.00  0.00    -0.140 A 
ATOM      6  C   LIG    1        4.061   2.640  -1.221  0.00  0.00    +0.060 A 
ATOM      7  C   LIG    1        5.094   3.556  -1.230  0.00  0.00    -0.040 A 
BRANCH   2  11
ATOM      8  O   LIG    1        7.990   4.035  -3.201  0.00  0.00    -0.540 OA
ATOM      9  C   LIG    1        7.848   4.084  -1.998  0.00  0.00    +0.490 C 
ATOM     10  C   LIG    1        7.097   5.244  -1.408  0.00  0.00    +0.270 C 
ATOM     11  N   LIG    1        6.681   4.927  -0.035  0.00  0.00    -0.480 N 
ATOM     12  C   LIG    1        7.828   4.426   0.740  0.00  0.00    +0.250 C 
ATOM     13  C   LIG    1        8.221   3.049   0.201  0.00  0.00    +0.230 C 
ATOM     14  N   LIG    1        8.367   3.103  -1.251  0.00  0.00    -0.720 N 
ATOM     15  H   LIG    1        8.861   2.396  -1.694  0.00  0.00    +0.400 HD
ENDBRANCH   2  11
ENDBRANCH   1   5
BRANCH   1  16
ATOM     16  N   LIG    1        1.144   1.898   0.008  0.00  0.00    -0.720 N 
ATOM     17  H   LIG    1        1.131   2.868   0.017  0.00  0.00    +0.400 HD
ATOM     18  C   LIG    1       -0.014   1.209   0.017  0.00  0.00    +0.520 C 
ATOM     19  O   LIG    1        0.002  -0.004   0.005  0.00  0.00    -0.500 OA
BRANCH  18  20
ATOM     20  C   LIG    1       -1.329   1.944   0.034  0.00  0.00    +0.140 C 
ATOM     21  C   LIG    1       -1.500   2.730  -1.273  0.00  0.00    +0.250 C 
ATOM     22  O   LIG    1       -2.763   3.404  -1.230  0.00  0.00    -0.300 OA
ATOM     23  C   LIG    1       -3.833   2.671  -0.817  0.00  0.00    +0.040 A 
ATOM     24  C   LIG    1       -5.114   3.129  -1.083  0.00  0.00    +0.030 A 
ATOM     25  C   LIG    1       -6.212   2.400  -0.665  0.00  0.00    +0.020 A 
ATOM     26  C   LIG    1       -6.035   1.213   0.020  0.00  0.00    +0.030 A 
ATOM     27  C   LIG    1       -4.760   0.750   0.288  0.00  0.00    +0.030 A 
ATOM     28  C   LIG    1       -3.655   1.476  -0.130  0.00  0.00    +0.050 A 
ATOM     29  O   LIG    1       -2.406   1.006   0.138  0.00  0.00    -0.280 OA
ENDBRANCH  18  20
ENDBRANCH   1  16
TORSDOF 4
