REMARK  Name = ZINCvU0000000Hgr.0
REMARK                            x       y       z     vdW  Elec       q    Type
REMARK                         _______ _______ _______ _____ _____    ______ ____
ROOT
ATOM      1  C   LIG    1        6.422   6.046   1.800  0.00  0.00    +0.140 A 
ATOM      2  C   LIG    1        6.467   5.552   3.045  0.00  0.00    -0.060 A 
ATOM      3  S   LIG    1        4.796   5.118   3.448  0.00  0.00    +0.200 S 
ATOM      4  C   LIG    1        4.135   5.629   1.884  0.00  0.00    +0.210 A 
ATOM      5  C   LIG    1        2.801   5.574   1.466  0.00  0.00    -0.130 C 
ATOM      6  N   LIG    1        5.205   6.092   1.178  0.00  0.00    -0.450 N 
ENDROOT
BRANCH   5   7
ATOM      7  C   LIG    1        1.756   5.125   2.399  0.00  0.00    +0.270 A 
ATOM      8  N   LIG    1        1.927   4.745   3.652  0.00  0.00    -0.300 NA
ATOM      9  N   LIG    1        0.794   4.424   4.170  0.00  0.00    -0.280 NA
ATOM     10  C   LIG    1       -0.157   4.580   3.296  0.00  0.00    +0.180 A 
ATOM     11  C   LIG    1       -1.631   4.335   3.497  0.00  0.00    +0.150 C 
ATOM     12  C   LIG    1       -2.169   3.527   2.313  0.00  0.00    +0.030 C 
ATOM     13  C   LIG    1       -2.606   4.475   1.200  0.00  0.00    +0.020 C 
ATOM     14  C   LIG    1       -1.712   5.713   1.165  0.00  0.00    +0.030 C 
ATOM     15  C   LIG    1       -0.266   5.299   0.876  0.00  0.00    +0.280 C 
ATOM     16  N   LIG    1        0.419   5.019   2.137  0.00  0.00    -0.470 N 
ENDBRANCH   5   7
BRANCH   1  21
ATOM     17  C   LIG    1       11.186   7.909  -0.838  0.00  0.00    +0.100 C 
ATOM     18  C   LIG    1        9.938   7.421  -0.147  0.00  0.00    -0.070 A 
ATOM     19  C   LIG    1        9.649   7.850   1.135  0.00  0.00    +0.010 A 
ATOM     20  C   LIG    1        8.508   7.408   1.773  0.00  0.00    +0.050 A 
ATOM     21  C   LIG    1        7.646   6.525   1.122  0.00  0.00    -0.060 A 
ATOM     22  C   LIG    1        7.947   6.091  -0.170  0.00  0.00    +0.030 A 
ATOM     23  C   LIG    1        9.088   6.546  -0.799  0.00  0.00    +0.010 A 
ENDBRANCH   1  21
BRANCH   6  24
ATOM     24  C   LIG    1        5.065   6.593  -0.121  0.00  0.00    +0.100 A 
ATOM     25  C   LIG    1        5.049   5.723  -1.204  0.00  0.00    +0.030 A 
ATOM     26  C   LIG    1        4.906   6.220  -2.485  0.00  0.00    +0.030 A 
ATOM     27  C   LIG    1        4.789   7.582  -2.690  0.00  0.00    +0.040 A 
ATOM     28  C   LIG    1        4.810   8.451  -1.615  0.00  0.00    +0.030 A 
ATOM     29  C   LIG    1        4.947   7.961  -0.331  0.00  0.00    +0.040 A 
ENDBRANCH   6  24
BRANCH   5  30
ATOM     30  C   LIG    1        2.453   5.954   0.130  0.00  0.00    +0.270 C 
ATOM     31  N   LIG    1        2.177   6.256  -0.930  0.00  0.00    -0.420 NA
ENDBRANCH   5  30
TORSDOF 4
