REMARK  Name = ZINCpe000000V7F6.0
REMARK                            x       y       z     vdW  Elec       q    Type
REMARK                         _______ _______ _______ _____ _____    ______ ____
ROOT
ATOM      1  N   LIG    1        0.681  -0.477  -1.207  0.00  0.00    -0.750 N 
ATOM      2  H   LIG    1        1.028   0.162  -1.848  0.00  0.00    +0.390 HD
ATOM      3  C   LIG    1        0.827  -1.799  -1.425  0.00  0.00    +0.700 C 
ATOM      4  N   LIG    1        1.367  -2.235  -2.580  0.00  0.00    -0.610 N 
ATOM      5  C   LIG    1        1.873  -1.249  -3.497  0.00  0.00    +0.270 C 
ATOM      6  C   LIG    1        0.853  -0.916  -4.557  0.00  0.00    +0.070 C 
ATOM      7  C   LIG    1        0.462  -2.144  -5.370  0.00  0.00    -0.070 A 
ATOM      8  C   LIG    1        0.380  -1.781  -6.735  0.00  0.00    -0.010 A 
ATOM      9  C   LIG    1        0.045  -2.687  -7.707  0.00  0.00    +0.000 A 
ATOM     10  C   LIG    1       -0.220  -3.994  -7.337  0.00  0.00    +0.000 A 
ATOM     11  C   LIG    1       -0.138  -4.334  -6.011  0.00  0.00    -0.010 A 
ATOM     12  C   LIG    1        0.209  -3.389  -5.017  0.00  0.00    -0.060 A 
ATOM     13  C   LIG    1        0.212  -4.082  -3.660  0.00  0.00    +0.070 C 
ATOM     14  C   LIG    1        1.392  -3.654  -2.813  0.00  0.00    +0.300 C 
ATOM     15  O   LIG    1        0.471  -2.597  -0.580  0.00  0.00    -0.580 OA
ENDROOT
BRANCH   1  16
ATOM     16  C   LIG    1       -0.004  -0.005  -0.000  0.00  0.00    +0.310 C 
BRANCH  16  17
ATOM     17  C   LIG    1       -0.034   1.525   0.004  0.00  0.00    +0.050 C 
BRANCH  17  20
ATOM     18  N   LIG    1       -0.883   3.332   1.464  0.00  0.00    -0.730 N 
ATOM     19  H   LIG    1       -0.536   3.971   0.822  0.00  0.00    +0.400 HD
ATOM     20  C   LIG    1       -0.737   2.010   1.245  0.00  0.00    +0.520 C 
ATOM     21  O   LIG    1       -1.172   1.211   2.047  0.00  0.00    -0.520 OA
BRANCH  18  22
ATOM     22  C   LIG    1       -1.567   3.804   2.670  0.00  0.00    +0.290 C 
BRANCH  22  23
ATOM     23  C   LIG    1       -1.597   5.333   2.674  0.00  0.00    +0.090 C 
BRANCH  23  24
ATOM     24  C   LIG    1       -2.301   5.819   3.915  0.00  0.00    +0.460 C 
ATOM     25  O   LIG    1       -2.734   5.023   4.715  0.00  0.00    -0.500 OA
BRANCH  24  27
ATOM     26  C   LIG    1       -3.135   7.530   5.349  0.00  0.00    +0.270 C 
ATOM     27  O   LIG    1       -2.447   7.135   4.133  0.00  0.00    -0.360 OA
ENDBRANCH  24  27
ENDBRANCH  23  24
ENDBRANCH  22  23
ENDBRANCH  18  22
ENDBRANCH  17  20
ENDBRANCH  16  17
ENDBRANCH   1  16
TORSDOF 7
