REMARK  Name = ZINCpe00000MJLww.0
REMARK                            x       y       z     vdW  Elec       q    Type
REMARK                         _______ _______ _______ _____ _____    ______ ____
ROOT
ATOM      1  C   LIG    1       -0.821   1.627  -1.190  0.00  0.00    +0.150 C 
ATOM      2  C   LIG    1       -0.013   1.086   0.008  0.00  0.00    +0.070 C 
ATOM      3  C   LIG    1       -0.802   1.617   1.234  0.00  0.00    +0.040 C 
ATOM      4  C   LIG    1       -1.283   2.998   0.716  0.00  0.00    +0.260 C 
ATOM      5  N   LIG    1       -1.592   2.783  -0.710  0.00  0.00    -0.620 N 
ATOM      6  C   LIG    1       -2.442   3.523  -1.449  0.00  0.00    +0.530 C 
ATOM      7  O   LIG    1       -2.621   3.253  -2.618  0.00  0.00    -0.510 OA
ENDROOT
BRANCH   1  11
ATOM      8  C   LIG    1       -3.865  -0.655  -1.607  0.00  0.00    +0.280 C 
ATOM      9  N   LIG    1       -2.955   0.380  -1.111  0.00  0.00    -0.730 N 
ATOM     10  H   LIG    1       -3.215   0.934  -0.359  0.00  0.00    +0.400 HD
ATOM     11  C   LIG    1       -1.757   0.562  -1.700  0.00  0.00    +0.520 C 
ATOM     12  O   LIG    1       -1.432  -0.130  -2.641  0.00  0.00    -0.510 OA
ENDBRANCH   1  11
BRANCH   1  13
ATOM     13  C   LIG    1        0.132   2.065  -2.305  0.00  0.00    +0.200 C 
BRANCH  13  14
ATOM     14  O   LIG    1        0.889   0.939  -2.753  0.00  0.00    -0.370 OA
ATOM     15  C   LIG    1        1.814   1.241  -3.800  0.00  0.00    +0.200 C 
ENDBRANCH  13  14
ENDBRANCH   1  13
BRANCH   6  16
ATOM     16  C   LIG    1       -3.170   4.685  -0.824  0.00  0.00    +0.130 C 
BRANCH  16  17
ATOM     17  C   LIG    1       -4.051   5.340  -1.857  0.00  0.00    -0.100 A 
ATOM     18  C   LIG    1       -3.555   6.372  -2.631  0.00  0.00    +0.070 A 
ATOM     19  C   LIG    1       -4.359   6.971  -3.582  0.00  0.00    -0.070 A 
ATOM     20  C   LIG    1       -5.668   6.542  -3.752  0.00  0.00    +0.130 A 
ATOM     21  C   LIG    1       -6.164   5.510  -2.969  0.00  0.00    -0.010 A 
ATOM     22  C   LIG    1       -5.355   4.911  -2.023  0.00  0.00    +0.070 A 
BRANCH  20  23
ATOM     23  O   LIG    1       -6.462   7.133  -4.683  0.00  0.00    -0.310 OA
BRANCH  23  24
ATOM     24  C   LIG    1       -5.884   8.189  -5.453  0.00  0.00    +0.380 C 
BRANCH  24  25
ATOM     25  C   LIG    1       -6.882   8.706  -6.404  0.00  0.00    +0.210 C 
ATOM     26  N   LIG    1       -7.652   9.105  -7.137  0.00  0.00    -0.390 NA
ENDBRANCH  24  25
ENDBRANCH  23  24
ENDBRANCH  20  23
ENDBRANCH  16  17
ENDBRANCH   6  16
TORSDOF 8
