REMARK  Name = ZINCrH000004jte7.0
REMARK                            x       y       z     vdW  Elec       q    Type
REMARK                         _______ _______ _______ _____ _____    ______ ____
ROOT
ATOM      1  N   LIG    1       -1.489   2.208   1.040  0.00  0.00    -0.670 N 
ATOM      2  H   LIG    1       -1.607   3.151   1.231  0.00  0.00    +0.410 HD
ATOM      3  C   LIG    1       -0.265   1.650   1.131  0.00  0.00    +0.590 C 
ATOM      4  O   LIG    1       -0.131   0.451   0.975  0.00  0.00    -0.490 OA
ENDROOT
BRANCH   3   5
ATOM      5  C   LIG    1        0.907   2.491   1.413  0.00  0.00    +0.000 A 
ATOM      6  C   LIG    1        2.186   2.046   1.528  0.00  0.00    +0.070 A 
ATOM      7  C   LIG    1        3.010   3.166   1.796  0.00  0.00    -0.120 A 
ATOM      8  C   LIG    1        4.386   3.321   2.006  0.00  0.00    -0.020 A 
ATOM      9  C   LIG    1        4.900   4.560   2.257  0.00  0.00    -0.120 A 
ATOM     10  C   LIG    1        4.070   5.673   2.306  0.00  0.00    +0.060 A 
ATOM     11  C   LIG    1        2.714   5.547   2.102  0.00  0.00    -0.020 A 
ATOM     12  C   LIG    1        6.381   4.722   2.482  0.00  0.00    +0.090 C 
ATOM     13  C   LIG    1        5.297   2.121   1.955  0.00  0.00    +0.100 C 
ATOM     14  C   LIG    1        2.166   4.294   1.846  0.00  0.00    +0.120 A 
ATOM     15  N   LIG    1        0.884   3.858   1.608  0.00  0.00    -0.580 N 
ATOM     16  H   LIG    1        0.092   4.419   1.583  0.00  0.00    +0.420 HD
ENDBRANCH   3   5
BRANCH   1  21
ATOM     17  C   LIG    1       -3.769  -0.668   0.713  0.00  0.00    -0.020 A 
ATOM     18  C   LIG    1       -4.776  -0.110  -0.074  0.00  0.00    +0.020 A 
ATOM     19  C   LIG    1       -4.684   1.205  -0.483  0.00  0.00    +0.050 A 
ATOM     20  C   LIG    1       -3.600   1.975  -0.110  0.00  0.00    +0.020 A 
ATOM     21  C   LIG    1       -2.588   1.427   0.670  0.00  0.00    +0.150 A 
ATOM     22  C   LIG    1       -2.671   0.106   1.085  0.00  0.00    +0.090 A 
BRANCH  17  27
ATOM     23  N   LIG    1       -4.982  -2.847   1.156  0.00  0.00    -0.370 N 
ATOM     24  N   LIG    1       -4.569  -4.095   1.654  0.00  0.00    -0.080 NA
ATOM     25  N   LIG    1       -3.307  -4.000   1.901  0.00  0.00    -0.040 NA
ATOM     26  N   LIG    1       -2.881  -2.825   1.606  0.00  0.00    -0.310 NA
ATOM     27  C   LIG    1       -3.865  -2.079   1.152  0.00  0.00    +0.290 A 
BRANCH  23  29
ATOM     28  C   LIG    1       -6.529  -2.834  -0.738  0.00  0.00    +0.050 C 
ATOM     29  C   LIG    1       -6.330  -2.460   0.732  0.00  0.00    +0.320 C 
ENDBRANCH  23  29
ENDBRANCH  17  27
ENDBRANCH   1  21
TORSDOF 4
