REMARK  Name = ZINCqH0000002qam.0
REMARK                            x       y       z     vdW  Elec       q    Type
REMARK                         _______ _______ _______ _____ _____    ______ ____
ROOT
ATOM      1  C   LIG    1        1.112   3.703   2.240  0.00  0.00    +0.040 C 
ENDROOT
BRANCH   1   2
ATOM      2  C   LIG    1        2.164   4.509   3.005  0.00  0.00    +0.310 C 
ATOM      3  C   LIG    1        2.461   5.785   2.256  0.00  0.00    -0.090 A 
ATOM      4  C   LIG    1        3.165   5.687   1.064  0.00  0.00    +0.010 A 
ATOM      5  C   LIG    1        3.459   6.817   0.329  0.00  0.00    +0.000 A 
ATOM      6  C   LIG    1        3.048   8.056   0.784  0.00  0.00    +0.010 A 
ATOM      7  C   LIG    1        2.351   8.155   1.970  0.00  0.00    +0.000 A 
ATOM      8  C   LIG    1        2.057   7.019   2.714  0.00  0.00    -0.070 A 
ATOM      9  C   LIG    1        1.305   7.206   4.005  0.00  0.00    +0.070 C 
ATOM     10  C   LIG    1        0.649   5.898   4.447  0.00  0.00    +0.270 C 
ATOM     11  N   LIG    1        1.657   4.829   4.343  0.00  0.00    -0.610 N 
ATOM     12  C   LIG    1        2.095   4.171   5.435  0.00  0.00    +0.520 C 
ATOM     13  O   LIG    1        2.925   3.294   5.321  0.00  0.00    -0.510 OA
ATOM     14  C   LIG    1        1.553   4.524   6.796  0.00  0.00    +0.090 C 
ENDBRANCH   1   2
BRANCH   1  16
ATOM     15  N   LIG    1        0.017   1.493   2.421  0.00  0.00    -0.620 N 
ATOM     16  C   LIG    1        0.904   2.375   2.921  0.00  0.00    +0.510 C 
ATOM     17  O   LIG    1        1.536   2.100   3.920  0.00  0.00    -0.480 OA
BRANCH  15  18
ATOM     18  C   LIG    1       -0.185   0.202   3.083  0.00  0.00    +0.280 C 
BRANCH  18  19
ATOM     19  C   LIG    1        0.824  -0.813   2.541  0.00  0.00    +0.000 C 
BRANCH  19  21
ATOM     20  C   LIG    1        1.679  -3.151   2.749  0.00  0.00    +0.010 C 
ATOM     21  C   LIG    1        0.669  -2.137   3.291  0.00  0.00    +0.000 C 
ENDBRANCH  19  21
ENDBRANCH  18  19
ENDBRANCH  15  18
BRANCH  15  22
ATOM     22  C   LIG    1       -0.746   1.825   1.216  0.00  0.00    +0.330 C 
BRANCH  22  23
ATOM     23  C   LIG    1       -2.109   2.395   1.615  0.00  0.00    +0.430 C 
ATOM     24  F   LIG    1       -2.788   2.826   0.471  0.00  0.00    -0.180 F 
ATOM     25  F   LIG    1       -2.859   1.404   2.257  0.00  0.00    -0.180 F 
ATOM     26  F   LIG    1       -1.925   3.476   2.484  0.00  0.00    -0.180 F 
ENDBRANCH  22  23
ENDBRANCH  15  22
ENDBRANCH   1  16
TORSDOF 7
