REMARK  Name = ZINCpe00000gLNkF.0
REMARK                            x       y       z     vdW  Elec       q    Type
REMARK                         _______ _______ _______ _____ _____    ______ ____
ROOT
ATOM      1  N   LIG    1       -0.722   1.571  -1.179  0.00  0.00    -0.740 N 
ATOM      2  H   LIG    1       -1.516   2.118  -1.079  0.00  0.00    +0.400 HD
ATOM      3  C   LIG    1       -0.268   1.258  -2.409  0.00  0.00    +0.720 C 
ATOM      4  N   LIG    1       -0.974   1.619  -3.499  0.00  0.00    -0.630 N 
ATOM      5  C   LIG    1       -2.185   2.441  -3.367  0.00  0.00    +0.280 C 
ATOM      6  C   LIG    1       -3.345   1.734  -4.066  0.00  0.00    +0.060 C 
ATOM      7  C   LIG    1       -2.947   1.401  -5.500  0.00  0.00    +0.130 C 
ATOM      8  N   LIG    1       -2.685   2.631  -6.259  0.00  0.00    -0.720 N 
ATOM      9  H   LIG    1       -2.003   3.295  -6.071  0.00  0.00    +0.440 HD
ATOM     10  C   LIG    1       -3.577   2.654  -7.267  0.00  0.00    +0.700 C 
ATOM     11  N   LIG    1       -4.388   1.589  -7.256  0.00  0.00    -0.580 N 
ATOM     12  C   LIG    1       -5.452   1.354  -8.236  0.00  0.00    +0.340 C 
ATOM     13  O   LIG    1       -3.640   3.543  -8.094  0.00  0.00    -0.540 OA
ATOM     14  C   LIG    1       -1.726   0.488  -5.526  0.00  0.00    +0.060 C 
ATOM     15  C   LIG    1       -4.103   0.758  -6.232  0.00  0.00    +0.530 C 
ATOM     16  O   LIG    1       -4.657  -0.285  -5.957  0.00  0.00    -0.450 OA
ATOM     17  C   LIG    1       -0.550   1.191  -4.839  0.00  0.00    +0.310 C 
ATOM     18  O   LIG    1        0.778   0.652  -2.535  0.00  0.00    -0.580 OA
ENDROOT
BRANCH   1  19
ATOM     19  C   LIG    1       -0.014   1.084   0.008  0.00  0.00    +0.420 C 
BRANCH  19  23
ATOM     20  C   LIG    1       -1.617   2.658   3.212  0.00  0.00    -0.000 A 
ATOM     21  N   LIG    1       -2.138   1.516   2.896  0.00  0.00    -0.260 NA
ATOM     22  N   LIG    1       -1.673   0.950   1.866  0.00  0.00    -0.230 NA
ATOM     23  C   LIG    1       -0.720   1.569   1.248  0.00  0.00    -0.050 A 
ATOM     24  S   LIG    1       -0.399   3.037   2.070  0.00  0.00    +0.190 S 
BRANCH  20  26
ATOM     25  C   LIG    1       -3.492   3.893   4.264  0.00  0.00    +0.060 C 
ATOM     26  C   LIG    1       -2.016   3.511   4.388  0.00  0.00    +0.080 C 
ATOM     27  C   LIG    1       -1.799   2.726   5.684  0.00  0.00    +0.060 C 
ENDBRANCH  20  26
ENDBRANCH  19  23
ENDBRANCH   1  19
TORSDOF 3
