REMARK  Name = ZINCvU0000000FAU.0
REMARK                            x       y       z     vdW  Elec       q    Type
REMARK                         _______ _______ _______ _____ _____    ______ ____
ROOT
ATOM      1  C   LIG    1        0.375  -4.115   7.120  0.00  0.00    +0.140 A 
ATOM      2  N   LIG    1        0.281  -5.378   6.772  0.00  0.00    -0.290 NA
ATOM      3  N   LIG    1        0.013  -6.096   7.804  0.00  0.00    -0.250 NA
ATOM      4  C   LIG    1       -0.087  -5.340   8.861  0.00  0.00    +0.180 A 
ATOM      5  N   LIG    1        0.140  -4.052   8.463  0.00  0.00    -0.420 N 
ENDROOT
BRANCH   5   6
ATOM      6  C   LIG    1        0.133  -2.852   9.304  0.00  0.00    +0.190 C 
ATOM      7  C   LIG    1        0.021  -1.498   8.602  0.00  0.00    +0.080 C 
ATOM      8  C   LIG    1        1.350  -1.929   9.228  0.00  0.00    +0.060 C 
ENDBRANCH   5   6
BRANCH   1   9
ATOM      9  S   LIG    1        0.731  -2.759   6.053  0.00  0.00    +0.140 S 
BRANCH   9  10
ATOM     10  C   LIG    1        0.911  -3.635   4.479  0.00  0.00    +0.160 C 
BRANCH  10  18
ATOM     11  C   LIG    1        2.530  -0.249  -2.284  0.00  0.00    +0.160 C 
ATOM     12  C   LIG    1        2.222  -0.827  -0.927  0.00  0.00    -0.200 A 
ATOM     13  C   LIG    1        2.112  -0.116   0.180  0.00  0.00    -0.030 A 
ATOM     14  C   LIG    1        1.804  -0.886   1.368  0.00  0.00    -0.220 A 
ATOM     15  C   LIG    1        1.690  -2.240   1.100  0.00  0.00    +0.050 A 
ATOM     16  N   LIG    1        1.399  -3.101   2.136  0.00  0.00    -0.580 N 
ATOM     17  H   LIG    1        1.317  -4.051   1.959  0.00  0.00    +0.430 HD
ATOM     18  C   LIG    1        1.227  -2.646   3.387  0.00  0.00    +0.460 A 
ATOM     19  N   LIG    1        1.323  -1.383   3.695  0.00  0.00    -0.570 NA
ATOM     20  C   LIG    1        1.603  -0.454   2.766  0.00  0.00    +0.550 A 
ATOM     21  O   LIG    1        1.690   0.724   3.071  0.00  0.00    -0.480 OA
ATOM     22  C   LIG    1        2.288   1.381   0.205  0.00  0.00    +0.130 C 
ATOM     23  S   LIG    1        1.965  -2.533  -0.610  0.00  0.00    +0.180 S 
ENDBRANCH  10  18
ENDBRANCH   9  10
ENDBRANCH   1   9
BRANCH   4  24
ATOM     24  C   LIG    1       -0.397  -5.801  10.262  0.00  0.00    +0.350 C 
BRANCH  24  25
ATOM     25  O   LIG    1       -1.811  -5.788  10.466  0.00  0.00    -0.300 OA
BRANCH  25  26
ATOM     26  C   LIG    1       -2.261  -6.179  11.688  0.00  0.00    +0.140 A 
ATOM     27  C   LIG    1       -1.361  -6.568  12.668  0.00  0.00    -0.060 A 
ATOM     28  C   LIG    1       -1.822  -6.965  13.909  0.00  0.00    +0.060 A 
ATOM     29  C   LIG    1       -3.178  -6.976  14.174  0.00  0.00    +0.000 A 
ATOM     30  C   LIG    1       -4.079  -6.590  13.198  0.00  0.00    +0.070 A 
ATOM     31  C   LIG    1       -3.623  -6.186  11.957  0.00  0.00    -0.070 A 
ATOM     32 CL   LIG    1       -4.754  -5.693  10.735  0.00  0.00    -0.050 Cl
ENDBRANCH  25  26
ENDBRANCH  24  25
ENDBRANCH   4  24
TORSDOF 7
