REMARK  Name = ZINCnE000005t5GP.0
REMARK                            x       y       z     vdW  Elec       q    Type
REMARK                         _______ _______ _______ _____ _____    ______ ____
ROOT
ATOM      1  N   LIG    1        1.938   4.242  -5.580  0.00  0.00    -0.680 N 
ATOM      2  H   LIG    1        1.178   3.794  -5.980  0.00  0.00    +0.410 HD
ATOM      3  C   LIG    1        2.296   3.961  -4.311  0.00  0.00    +0.710 C 
ATOM      4  N   LIG    1        1.557   3.106  -3.576  0.00  0.00    -0.720 N 
ATOM      5  H   LIG    1        0.768   2.693  -3.961  0.00  0.00    +0.400 HD
ATOM      6  O   LIG    1        3.285   4.478  -3.829  0.00  0.00    -0.560 OA
ENDROOT
BRANCH   1  12
ATOM      7  C   LIG    1        2.191   7.553  -9.215  0.00  0.00    +0.140 C 
ATOM      8  C   LIG    1        2.821   6.795  -8.075  0.00  0.00    +0.180 A 
ATOM      9  N   LIG    1        4.083   7.017  -7.762  0.00  0.00    -0.500 NA
ATOM     10  C   LIG    1        4.680   6.379  -6.773  0.00  0.00    +0.310 A 
ATOM     11  C   LIG    1        3.999   5.445  -6.021  0.00  0.00    -0.020 A 
ATOM     12  C   LIG    1        2.663   5.180  -6.317  0.00  0.00    +0.250 A 
ATOM     13  C   LIG    1        2.071   5.872  -7.373  0.00  0.00    -0.190 A 
ATOM     14 BR   LIG    1        0.265   5.554  -7.834  0.00  0.00    -0.030 Br
ENDBRANCH   1  12
BRANCH   4  15
ATOM     15  C   LIG    1        1.946   2.800  -2.198  0.00  0.00    +0.270 C 
ATOM     16  C   LIG    1        1.379   3.866  -1.259  0.00  0.00    +0.020 C 
BRANCH  15  17
ATOM     17  C   LIG    1        1.393   1.428  -1.805  0.00  0.00    -0.030 C 
ATOM     18  C   LIG    1        2.089   0.809  -0.581  0.00  0.00    +0.040 C 
ATOM     19  C   LIG    1        2.014  -0.538  -1.318  0.00  0.00    -0.090 C 
ATOM     20  C   LIG    1        1.981   0.269  -2.626  0.00  0.00    -0.050 C 
ATOM     21  C   LIG    1        1.016  -0.296  -3.670  0.00  0.00    +0.020 C 
ATOM     22  C   LIG    1        3.369   0.565  -3.199  0.00  0.00    +0.040 C 
BRANCH  19  23
ATOM     23  C   LIG    1        3.251  -1.384  -1.161  0.00  0.00    +0.500 C 
ATOM     24  O   LIG    1        3.799  -1.851  -2.145  0.00  0.00    -0.690 OA
ATOM     25  O   LIG    1        3.705  -1.601  -0.050  0.00  0.00    -0.700 OA
ENDBRANCH  19  23
ENDBRANCH  15  17
ENDBRANCH   4  15
TORSDOF 4
