REMARK  Name = ZINCrD00000dWJRZ.0
REMARK                            x       y       z     vdW  Elec       q    Type
REMARK                         _______ _______ _______ _____ _____    ______ ____
ROOT
ATOM      1  C   LIG    1       -6.819   1.111   4.767  0.00  0.00    +0.160 A 
ATOM      2  C   LIG    1       -6.673   0.232   3.702  0.00  0.00    +0.010 A 
ATOM      3  C   LIG    1       -6.153   0.679   2.502  0.00  0.00    +0.050 A 
ATOM      4  C   LIG    1       -5.777   2.000   2.358  0.00  0.00    -0.030 A 
ATOM      5  C   LIG    1       -5.921   2.884   3.420  0.00  0.00    +0.170 A 
ATOM      6  C   LIG    1       -6.438   2.438   4.628  0.00  0.00    -0.010 A 
ENDROOT
BRANCH   1   8
ATOM      7  C   LIG    1       -7.138  -0.616   6.373  0.00  0.00    +0.530 C 
ATOM      8  N   LIG    1       -7.346   0.657   5.982  0.00  0.00    -0.670 N 
ATOM      9  H   LIG    1       -7.860   1.259   6.542  0.00  0.00    +0.410 HD
ATOM     10  O   LIG    1       -6.593  -1.399   5.624  0.00  0.00    -0.510 OA
BRANCH   7  11
ATOM     11  C   LIG    1       -7.583  -1.066   7.741  0.00  0.00    -0.010 C 
ATOM     12  C   LIG    1       -8.152  -2.480   7.868  0.00  0.00    +0.100 C 
ATOM     13  C   LIG    1       -9.083  -1.269   7.964  0.00  0.00    +0.060 C 
BRANCH  11  15
ATOM     14  C   LIG    1       -5.425  -1.081   8.839  0.00  0.00    +0.210 C 
ATOM     15  N   LIG    1       -6.794  -0.547   8.866  0.00  0.00    -0.490 NA
ATOM     16  C   LIG    1       -6.786   0.921   8.871  0.00  0.00    +0.190 C 
ENDBRANCH  11  15
ENDBRANCH   7  11
ENDBRANCH   1   8
BRANCH   5  17
ATOM     17  N   LIG    1       -5.539   4.223   3.274  0.00  0.00    -0.670 N 
ATOM     18  H   LIG    1       -4.737   4.447   2.777  0.00  0.00    +0.410 HD
ATOM     19  C   LIG    1       -6.287   5.200   3.824  0.00  0.00    +0.530 C 
ATOM     20  O   LIG    1       -7.364   4.937   4.314  0.00  0.00    -0.510 OA
BRANCH  19  21
ATOM     21  C   LIG    1       -5.783   6.621   3.829  0.00  0.00    +0.040 C 
ATOM     22  C   LIG    1       -6.811   7.550   4.510  0.00  0.00    +0.070 C 
ATOM     23  C   LIG    1       -6.328   7.567   5.976  0.00  0.00    +0.080 C 
ATOM     24  C   LIG    1       -4.845   7.276   5.909  0.00  0.00    -0.080 A 
ATOM     25  C   LIG    1       -3.848   7.473   6.849  0.00  0.00    +0.010 A 
ATOM     26  C   LIG    1       -2.542   7.126   6.562  0.00  0.00    +0.020 A 
ATOM     27  C   LIG    1       -2.228   6.581   5.331  0.00  0.00    +0.010 A 
ATOM     28  C   LIG    1       -3.221   6.384   4.391  0.00  0.00    +0.020 A 
ATOM     29  C   LIG    1       -4.531   6.731   4.678  0.00  0.00    -0.100 A 
ENDBRANCH  19  21
ENDBRANCH   5  17
TORSDOF 5
