REMARK  Name = ZINCvU000000066N.1
REMARK                            x       y       z     vdW  Elec       q    Type
REMARK                         _______ _______ _______ _____ _____    ______ ____
ROOT
ATOM      1  C   LIG    1        7.318  -2.759  -2.685  0.00  0.00    +0.330 C 
ENDROOT
BRANCH   1   2
ATOM      2  C   LIG    1        7.419  -3.614  -3.921  0.00  0.00    -0.070 A 
ATOM      3  C   LIG    1        6.925  -3.142  -5.128  0.00  0.00    +0.010 A 
ATOM      4  C   LIG    1        7.014  -3.900  -6.262  0.00  0.00    +0.070 A 
ATOM      5  C   LIG    1        7.595  -5.169  -6.207  0.00  0.00    +0.050 A 
ATOM      6  N   LIG    1        7.818  -6.138  -7.133  0.00  0.00    -0.500 NA
ATOM      7  C   LIG    1        8.402  -7.154  -6.569  0.00  0.00    +0.490 A 
ATOM      8  N   LIG    1        8.595  -6.909  -5.245  0.00  0.00    -0.600 N 
ATOM      9  H   LIG    1        9.010  -7.506  -4.604  0.00  0.00    +0.430 HD
ATOM     10  C   LIG    1        8.090  -5.650  -4.984  0.00  0.00    +0.050 A 
ATOM     11  C   LIG    1        7.998  -4.864  -3.844  0.00  0.00    +0.040 A 
ENDBRANCH   1   2
BRANCH   1  12
ATOM     12  C   LIG    1        8.424  -1.735  -2.690  0.00  0.00    -0.090 A 
ATOM     13  C   LIG    1        8.303  -0.591  -3.456  0.00  0.00    +0.020 A 
ATOM     14  C   LIG    1        9.316   0.350  -3.457  0.00  0.00    +0.000 A 
ATOM     15  C   LIG    1       10.453   0.142  -2.699  0.00  0.00    +0.000 A 
ATOM     16  C   LIG    1       10.576  -1.005  -1.937  0.00  0.00    +0.000 A 
ATOM     17  C   LIG    1        9.561  -1.943  -1.932  0.00  0.00    +0.020 A 
ENDBRANCH   1  12
BRANCH   1  20
ATOM     18  O   LIG    1        6.073  -1.887  -0.458  0.00  0.00    -0.530 OA
ATOM     19  C   LIG    1        5.484  -1.679  -1.498  0.00  0.00    +0.520 C 
ATOM     20  N   LIG    1        6.021  -2.077  -2.668  0.00  0.00    -0.720 N 
ATOM     21  H   LIG    1        5.550  -1.911  -3.499  0.00  0.00    +0.400 HD
BRANCH  19  22
ATOM     22  C   LIG    1        4.150  -0.978  -1.481  0.00  0.00    +0.060 C 
BRANCH  22  23
ATOM     23  C   LIG    1        3.771  -0.637  -0.038  0.00  0.00    +0.090 C 
BRANCH  23  24
ATOM     24  C   LIG    1        2.438   0.065  -0.021  0.00  0.00    -0.070 A 
ATOM     25  C   LIG    1        2.380   1.424  -0.013  0.00  0.00    +0.010 A 
ATOM     26  C   LIG    1        1.156   2.091   0.002  0.00  0.00    +0.010 A 
ATOM     27  C   LIG    1       -0.017   1.401   0.010  0.00  0.00    +0.020 A 
ATOM     28  C   LIG    1        0.002  -0.004   0.002  0.00  0.00    -0.050 A 
ATOM     29  C   LIG    1       -1.188  -0.750   0.010  0.00  0.00    +0.020 A 
ATOM     30  C   LIG    1       -1.131  -2.110   0.003  0.00  0.00    +0.000 A 
ATOM     31  C   LIG    1        0.093  -2.776  -0.013  0.00  0.00    +0.000 A 
ATOM     32  C   LIG    1        1.266  -2.087  -0.021  0.00  0.00    +0.020 A 
ATOM     33  C   LIG    1        1.247  -0.682  -0.013  0.00  0.00    -0.050 A 
ENDBRANCH  23  24
ENDBRANCH  22  23
ENDBRANCH  19  22
ENDBRANCH   1  20
TORSDOF 6
