REMARK  Name = ZINCvU000000066N.0
REMARK                            x       y       z     vdW  Elec       q    Type
REMARK                         _______ _______ _______ _____ _____    ______ ____
ROOT
ATOM      1  C   LIG    1       -2.449   1.117   0.020  0.00  0.00    +0.340 C 
ENDROOT
BRANCH   1   2
ATOM      2  C   LIG    1       -3.537   1.963   0.630  0.00  0.00    -0.100 A 
ATOM      3  C   LIG    1       -3.594   3.319   0.344  0.00  0.00    +0.040 A 
ATOM      4  C   LIG    1       -4.585   4.108   0.890  0.00  0.00    +0.030 A 
ATOM      5  C   LIG    1       -5.525   3.540   1.739  0.00  0.00    +0.050 A 
ATOM      6  N   LIG    1       -6.611   4.031   2.436  0.00  0.00    -0.600 N 
ATOM      7  H   LIG    1       -6.922   4.950   2.443  0.00  0.00    +0.430 HD
ATOM      8  C   LIG    1       -7.163   2.987   3.111  0.00  0.00    +0.490 A 
ATOM      9  N   LIG    1       -6.493   1.897   2.876  0.00  0.00    -0.490 NA
ATOM     10  C   LIG    1       -5.463   2.167   2.033  0.00  0.00    +0.050 A 
ATOM     11  C   LIG    1       -4.453   1.387   1.464  0.00  0.00    +0.090 A 
ENDBRANCH   1   2
BRANCH   1  12
ATOM     12  C   LIG    1       -2.824   0.761  -1.396  0.00  0.00    -0.090 A 
ATOM     13  C   LIG    1       -2.639   1.680  -2.412  0.00  0.00    +0.020 A 
ATOM     14  C   LIG    1       -2.979   1.352  -3.711  0.00  0.00    +0.000 A 
ATOM     15  C   LIG    1       -3.512   0.109  -3.993  0.00  0.00    +0.000 A 
ATOM     16  C   LIG    1       -3.703  -0.808  -2.976  0.00  0.00    +0.000 A 
ATOM     17  C   LIG    1       -3.359  -0.482  -1.678  0.00  0.00    +0.020 A 
ENDBRANCH   1  12
BRANCH   1  20
ATOM     18  O   LIG    1        0.002  -0.004   0.002  0.00  0.00    -0.530 OA
ATOM     19  C   LIG    1       -0.014   1.209   0.009  0.00  0.00    +0.520 C 
ATOM     20  N   LIG    1       -1.191   1.867   0.018  0.00  0.00    -0.730 N 
ATOM     21  H   LIG    1       -1.204   2.837   0.023  0.00  0.00    +0.400 HD
BRANCH  19  22
ATOM     22  C   LIG    1        1.280   1.980   0.001  0.00  0.00    +0.060 C 
BRANCH  22  23
ATOM     23  C   LIG    1        2.457   1.002  -0.016  0.00  0.00    +0.090 C 
BRANCH  23  24
ATOM     24  C   LIG    1        3.751   1.773  -0.024  0.00  0.00    -0.070 A 
ATOM     25  C   LIG    1        4.383   2.036  -1.200  0.00  0.00    +0.010 A 
ATOM     26  C   LIG    1        5.578   2.753  -1.228  0.00  0.00    +0.010 A 
ATOM     27  C   LIG    1        6.154   3.200  -0.080  0.00  0.00    +0.020 A 
ATOM     28  C   LIG    1        5.534   2.943   1.155  0.00  0.00    -0.050 A 
ATOM     29  C   LIG    1        6.098   3.389   2.362  0.00  0.00    +0.020 A 
ATOM     30  C   LIG    1        5.469   3.121   3.539  0.00  0.00    +0.000 A 
ATOM     31  C   LIG    1        4.272   2.409   3.567  0.00  0.00    +0.000 A 
ATOM     32  C   LIG    1        3.696   1.962   2.418  0.00  0.00    +0.020 A 
ATOM     33  C   LIG    1        4.316   2.219   1.183  0.00  0.00    -0.050 A 
ENDBRANCH  23  24
ENDBRANCH  22  23
ENDBRANCH  19  22
ENDBRANCH   1  20
TORSDOF 6
