REMARK  Name = ZINCvU0000000GAE.0
REMARK                            x       y       z     vdW  Elec       q    Type
REMARK                         _______ _______ _______ _____ _____    ______ ____
ROOT
ATOM      1  C   LIG    1        1.574   5.312   0.011  0.00  0.00    +0.290 A 
ATOM      2  N   LIG    1        2.104   4.124  -0.015  0.00  0.00    -0.480 NA
ATOM      3  C   LIG    1        1.123   3.186  -0.015  0.00  0.00    +0.050 A 
ATOM      4  C   LIG    1        1.125   1.789  -0.035  0.00  0.00    +0.070 A 
ATOM      5  C   LIG    1       -0.058   1.105  -0.028  0.00  0.00    +0.000 A 
ATOM      6  C   LIG    1       -1.267   1.785  -0.005  0.00  0.00    +0.030 A 
ATOM      7  C   LIG    1       -1.294   3.163   0.020  0.00  0.00    +0.010 A 
ATOM      8  C   LIG    1       -0.102   3.874   0.014  0.00  0.00    +0.060 A 
ATOM      9  N   LIG    1        0.217   5.218   0.030  0.00  0.00    -0.480 N 
ENDROOT
BRANCH   1  12
ATOM     10  N   LIG    1        4.534   7.343  -0.635  0.00  0.00    -0.560 N 
ATOM     11  C   LIG    1        3.347   6.658  -1.158  0.00  0.00    +0.300 C 
ATOM     12  C   LIG    1        2.349   6.604   0.020  0.00  0.00    +0.090 C 
ATOM     13  C   LIG    1        3.298   6.671   1.240  0.00  0.00    +0.090 C 
ATOM     14  C   LIG    1        4.536   7.361   0.709  0.00  0.00    +0.520 C 
ATOM     15  O   LIG    1        5.402   7.857   1.397  0.00  0.00    -0.500 OA
BRANCH  10  21
ATOM     16  C   LIG    1        8.659   9.994  -1.005  0.00  0.00    +0.090 C 
ATOM     17  C   LIG    1        7.547   9.197  -1.638  0.00  0.00    -0.050 A 
ATOM     18  C   LIG    1        7.516   9.023  -3.010  0.00  0.00    -0.020 A 
ATOM     19  C   LIG    1        6.498   8.293  -3.595  0.00  0.00    -0.050 A 
ATOM     20  C   LIG    1        5.508   7.735  -2.810  0.00  0.00    -0.040 A 
ATOM     21  C   LIG    1        5.536   7.907  -1.432  0.00  0.00    +0.170 A 
ATOM     22  C   LIG    1        6.469   8.106  -5.090  0.00  0.00    +0.090 C 
ATOM     23  C   LIG    1        6.558   8.645  -0.849  0.00  0.00    -0.010 A 
ENDBRANCH  10  21
ENDBRANCH   1  12
BRANCH   9  24
ATOM     24  C   LIG    1       -0.731   6.334   0.060  0.00  0.00    +0.370 C 
BRANCH  24  25
ATOM     25  C   LIG    1       -1.077   6.738  -1.350  0.00  0.00    -0.130 A 
ATOM     26  C   LIG    1       -0.325   7.702  -1.997  0.00  0.00    +0.060 A 
ATOM     27  C   LIG    1       -0.638   8.069  -3.292  0.00  0.00    -0.010 A 
ATOM     28  C   LIG    1       -1.711   7.479  -3.938  0.00  0.00    +0.110 A 
ATOM     29  C   LIG    1       -2.466   6.518  -3.288  0.00  0.00    -0.010 A 
ATOM     30  F   LIG    1       -2.020   7.841  -5.202  0.00  0.00    -0.130 F 
ATOM     31  C   LIG    1       -2.148   6.148  -1.995  0.00  0.00    +0.060 A 
ENDBRANCH  24  25
ENDBRANCH   9  24
TORSDOF 4
