REMARK  Name = ZINCpe000027pHuI.0
REMARK                            x       y       z     vdW  Elec       q    Type
REMARK                         _______ _______ _______ _____ _____    ______ ____
ROOT
ATOM      1  N   LIG    1        1.463   0.091   0.002  0.00  0.00    -0.610 N 
ATOM      2  C   LIG    1        1.496   1.449  -0.005  0.00  0.00    +0.530 C 
ATOM      3  C   LIG    1       -0.017   1.530  -0.004  0.00  0.00    +0.260 C 
ATOM      4  O   LIG    1        2.386   2.273  -0.010  0.00  0.00    -0.460 OA
ATOM      5  C   LIG    1       -0.008  -0.007   0.003  0.00  0.00    +0.310 C 
ENDROOT
BRANCH   5   6
ATOM      6  C   LIG    1       -0.575  -0.623  -1.250  0.00  0.00    -0.110 A 
ATOM      7  C   LIG    1        0.155  -0.596  -2.423  0.00  0.00    +0.040 A 
ATOM      8  C   LIG    1       -0.359  -1.163  -3.575  0.00  0.00    -0.030 A 
ATOM      9  C   LIG    1       -1.613  -1.751  -3.557  0.00  0.00    +0.120 A 
ATOM     10  C   LIG    1       -2.352  -1.773  -2.377  0.00  0.00    +0.110 A 
ATOM     11  C   LIG    1       -1.828  -1.207  -1.225  0.00  0.00    -0.010 A 
BRANCH  10  12
ATOM     12  O   LIG    1       -3.583  -2.349  -2.354  0.00  0.00    -0.300 OA
ATOM     13  C   LIG    1       -4.283  -2.335  -1.108  0.00  0.00    +0.240 C 
ENDBRANCH  10  12
BRANCH   9  14
ATOM     14  O   LIG    1       -2.123  -2.304  -4.690  0.00  0.00    -0.300 OA
ATOM     15  C   LIG    1       -1.310  -2.245  -5.863  0.00  0.00    +0.240 C 
ENDBRANCH   9  14
ENDBRANCH   5   6
BRANCH   3  16
ATOM     16  N   LIG    1       -0.575   2.121   1.215  0.00  0.00    -0.300 N 
ATOM     17  C   LIG    1        0.087   2.360   2.363  0.00  0.00    +0.400 A 
ATOM     18  N   LIG    1       -0.776   2.894   3.191  0.00  0.00    -0.300 NA
ATOM     19  N   LIG    1       -1.912   2.971   2.587  0.00  0.00    -0.060 NA
ATOM     20  N   LIG    1       -1.794   2.504   1.393  0.00  0.00    -0.080 NA
ENDBRANCH   3  16
BRANCH   1  21
ATOM     21  C   LIG    1        2.520  -0.922   0.006  0.00  0.00    +0.310 C 
BRANCH  21  22
ATOM     22  C   LIG    1        2.804  -1.357   1.445  0.00  0.00    +0.020 C 
BRANCH  22  23
ATOM     23  C   LIG    1        3.990  -2.324   1.461  0.00  0.00    +0.160 C 
BRANCH  23  25
ATOM     24  C   LIG    1        5.350  -3.639   2.932  0.00  0.00    +0.200 C 
ATOM     25  O   LIG    1        4.255  -2.731   2.805  0.00  0.00    -0.390 OA
ENDBRANCH  23  25
ENDBRANCH  22  23
ENDBRANCH  21  22
ENDBRANCH   1  21
TORSDOF 8
