REMARK  Name = ZINCnE000007Ms41.0
REMARK                            x       y       z     vdW  Elec       q    Type
REMARK                         _______ _______ _______ _____ _____    ______ ____
ROOT
ATOM      1  N   LIG    1       -3.292   3.806   1.386  0.00  0.00    -0.500 NA
ATOM      2  C   LIG    1       -3.367   2.428   0.885  0.00  0.00    +0.180 C 
ATOM      3  C   LIG    1       -4.045   1.540   1.930  0.00  0.00    -0.000 C 
ATOM      4  C   LIG    1       -5.450   2.076   2.214  0.00  0.00    +0.160 C 
ATOM      5  C   LIG    1       -5.348   3.528   2.689  0.00  0.00    +0.010 C 
ATOM      6  C   LIG    1       -4.632   4.359   1.622  0.00  0.00    +0.170 C 
ENDROOT
BRANCH   5   7
ATOM      7  C   LIG    1       -6.752   4.091   2.918  0.00  0.00    +0.000 C 
ATOM      8  C   LIG    1       -7.559   4.049   1.604  0.00  0.00    +0.010 C 
ATOM      9  C   LIG    1       -8.400   5.350   1.634  0.00  0.00    +0.000 C 
ATOM     10  C   LIG    1       -7.423   6.376   2.260  0.00  0.00    +0.000 C 
ATOM     11  C   LIG    1       -6.666   5.569   3.336  0.00  0.00    +0.010 C 
ENDBRANCH   5   7
BRANCH   4  12
ATOM     12  O   LIG    1       -6.067   1.283   3.231  0.00  0.00    -0.570 OA
ATOM     13  H   LIG    1       -6.164   0.350   2.998  0.00  0.00    +0.370 HD
ENDBRANCH   4  12
BRANCH   1  14
ATOM     14  C   LIG    1       -2.525   4.660   0.469  0.00  0.00    +0.090 C 
BRANCH  14  15
ATOM     15  C   LIG    1       -2.494   6.069   1.002  0.00  0.00    -0.030 A 
ATOM     16  C   LIG    1       -2.786   7.130   0.165  0.00  0.00    +0.020 A 
ATOM     17  C   LIG    1       -2.758   8.424   0.652  0.00  0.00    +0.010 A 
ATOM     18  C   LIG    1       -2.439   8.656   1.977  0.00  0.00    +0.010 A 
ATOM     19  C   LIG    1       -2.147   7.595   2.814  0.00  0.00    -0.090 A 
ATOM     20 BR   LIG    1       -1.710   7.913   4.627  0.00  0.00    -0.070 Br
ATOM     21  C   LIG    1       -2.169   6.302   2.325  0.00  0.00    +0.080 A 
ENDBRANCH  14  15
BRANCH  14  23
ATOM     22  O   LIG    1       -0.666   3.404   1.221  0.00  0.00    -0.660 OA
ATOM     23  C   LIG    1       -1.116   4.135   0.356  0.00  0.00    +0.510 C 
ATOM     24  O   LIG    1       -0.426   4.443  -0.601  0.00  0.00    -0.690 OA
ENDBRANCH  14  23
ENDBRANCH   1  14
TORSDOF 5
