REMARK  Name = ZINCrD00000hQ6pT.0
REMARK                            x       y       z     vdW  Elec       q    Type
REMARK                         _______ _______ _______ _____ _____    ______ ____
ROOT
ATOM      1  C   LIG    1        2.118   2.060   0.799  0.00  0.00    +0.110 A 
ATOM      2  C   LIG    1        0.810   1.609   0.708  0.00  0.00    +0.020 A 
ATOM      3  C   LIG    1        0.554   0.277   0.452  0.00  0.00    +0.040 A 
ATOM      4  C   LIG    1        1.608  -0.613   0.286  0.00  0.00    +0.120 A 
ATOM      5  C   LIG    1        2.918  -0.160   0.377  0.00  0.00    +0.020 A 
ATOM      6  C   LIG    1        3.171   1.173   0.633  0.00  0.00    -0.040 A 
ENDROOT
BRANCH   4   7
ATOM      7  N   LIG    1        1.350  -1.963   0.028  0.00  0.00    -0.940 N 
ATOM      8  C   LIG    1        0.080  -2.560   0.448  0.00  0.00    +0.330 C 
BRANCH   7   9
ATOM      9  S   LIG    1        2.481  -2.887  -0.754  0.00  0.00    +2.690 S 
ATOM     10  O   LIG    1        1.946  -4.202  -0.822  0.00  0.00    -0.930 OA
ATOM     11  O   LIG    1        3.731  -2.587  -0.150  0.00  0.00    -0.940 OA
BRANCH   9  12
ATOM     12  C   LIG    1        2.576  -2.302  -2.413  0.00  0.00    -0.720 A 
ATOM     13  C   LIG    1        3.730  -1.691  -2.865  0.00  0.00    +0.160 A 
ATOM     14  C   LIG    1        3.807  -1.237  -4.169  0.00  0.00    -0.010 A 
ATOM     15  C   LIG    1        2.726  -1.383  -5.018  0.00  0.00    +0.110 A 
ATOM     16  C   LIG    1        1.569  -1.989  -4.566  0.00  0.00    -0.020 A 
ATOM     17  C   LIG    1        1.493  -2.449  -3.263  0.00  0.00    +0.200 A 
ATOM     18  F   LIG    1        0.362  -3.042  -2.820  0.00  0.00    -0.120 F 
ENDBRANCH   9  12
ENDBRANCH   7   9
ENDBRANCH   4   7
BRANCH   1  19
ATOM     19  O   LIG    1        2.369   3.373   1.051  0.00  0.00    -0.310 OA
BRANCH  19  20
ATOM     20  C   LIG    1        3.740   3.768   1.131  0.00  0.00    +0.220 C 
BRANCH  20  23
ATOM     21  N   LIG    1        3.291   5.747   2.701  0.00  0.00    -0.440 NA
ATOM     22  C   LIG    1        2.510   6.051   1.487  0.00  0.00    +0.180 C 
ATOM     23  C   LIG    1        3.822   5.269   1.418  0.00  0.00    +0.090 C 
BRANCH  21  24
ATOM     24  C   LIG    1        2.682   4.648   3.461  0.00  0.00    +0.160 C 
BRANCH  24  26
ATOM     25  C   LIG    1        1.300   6.219   4.827  0.00  0.00    +0.020 C 
ATOM     26  C   LIG    1        2.367   5.124   4.881  0.00  0.00    -0.020 C 
ATOM     27  C   LIG    1        1.848   3.947   5.710  0.00  0.00    +0.010 C 
ENDBRANCH  24  26
ENDBRANCH  21  24
ENDBRANCH  20  23
ENDBRANCH  19  20
ENDBRANCH   1  19
TORSDOF 8
