REMARK  Name = ZINCrg00000B5hDI.0
REMARK                            x       y       z     vdW  Elec       q    Type
REMARK                         _______ _______ _______ _____ _____    ______ ____
ROOT
ATOM      1  N   LIG    1        0.187  -0.101  -0.399  0.00  0.00    -0.320 N 
ATOM      2  N   LIG    1       -0.032   1.286  -0.349  0.00  0.00    -0.300 NA
ATOM      3  C   LIG    1        1.041   1.825   0.170  0.00  0.00    +0.290 A 
ATOM      4  N   LIG    1        1.923   0.870   0.452  0.00  0.00    -0.500 NA
ATOM      5  C   LIG    1        1.431  -0.306   0.118  0.00  0.00    +0.390 A 
ENDROOT
BRANCH   5   6
ATOM      6  C   LIG    1        2.107  -1.611   0.274  0.00  0.00    -0.100 A 
ATOM      7  C   LIG    1        1.378  -2.749   0.615  0.00  0.00    +0.390 A 
ATOM      8  N   LIG    1        1.971  -3.919   0.751  0.00  0.00    -0.460 NA
ATOM      9  C   LIG    1        3.274  -4.064   0.583  0.00  0.00    +0.320 A 
ATOM     10  O   LIG    1        3.855  -5.282   0.735  0.00  0.00    -0.280 OA
ATOM     11  C   LIG    1        4.982  -5.567  -0.097  0.00  0.00    +0.320 C 
ATOM     12  C   LIG    1        5.935  -4.398  -0.078  0.00  0.00    +0.490 C 
ATOM     13  N   LIG    1        5.452  -3.145   0.073  0.00  0.00    -0.660 N 
ATOM     14  H   LIG    1        6.050  -2.382   0.063  0.00  0.00    +0.420 HD
ATOM     15  O   LIG    1        7.128  -4.582  -0.199  0.00  0.00    -0.500 OA
ATOM     16  C   LIG    1        4.073  -2.967   0.245  0.00  0.00    +0.040 A 
ATOM     17  C   LIG    1        3.493  -1.723   0.086  0.00  0.00    +0.140 A 
ENDBRANCH   5   6
BRANCH   1  23
ATOM     18  C   LIG    1       -2.697   0.406  -1.241  0.00  0.00    +0.380 C 
ATOM     19  N   LIG    1       -1.969  -0.865  -1.256  0.00  0.00    -0.360 N 
ATOM     20  N   LIG    1       -2.462  -2.113  -1.669  0.00  0.00    -0.290 NA
ATOM     21  C   LIG    1       -1.492  -2.976  -1.517  0.00  0.00    +0.460 A 
ATOM     22  N   LIG    1       -0.420  -2.345  -1.039  0.00  0.00    -0.540 NA
ATOM     23  C   LIG    1       -0.690  -1.069  -0.879  0.00  0.00    +0.510 A 
ENDBRANCH   1  23
BRANCH   3  24
ATOM     24  C   LIG    1        1.245   3.298   0.411  0.00  0.00    +0.110 C 
ATOM     25  C   LIG    1        0.041   4.221   0.209  0.00  0.00    +0.120 C 
ATOM     26  C   LIG    1        1.188   4.227  -0.804  0.00  0.00    -0.210 C 
ATOM     27  C   LIG    1        1.382   4.147  -2.319  0.00  0.00    +0.060 C 
ATOM     28  C   LIG    1        2.086   5.242  -1.515  0.00  0.00    +0.080 C 
ENDBRANCH   3  24
TORSDOF 3
