REMARK  Name = ZINC9l0000002pXB.0
REMARK                            x       y       z     vdW  Elec       q    Type
REMARK                         _______ _______ _______ _____ _____    ______ ____
ROOT
ATOM      1  C   LIG    1        3.004   0.918  -1.939  0.00  0.00    +0.010 C 
ATOM      2  C   LIG    1        2.262   0.592  -0.641  0.00  0.00    -0.020 C 
ATOM      3  C   LIG    1        1.187  -0.482  -0.903  0.00  0.00    -0.010 C 
ATOM      4  C   LIG    1        0.004  -0.066   0.007  0.00  0.00    +0.000 C 
ATOM      5  C   LIG    1        0.022   1.480  -0.096  0.00  0.00    +0.020 C 
ATOM      6  C   LIG    1        1.522   1.840  -0.128  0.00  0.00    -0.100 C 
ENDROOT
BRANCH   6   7
ATOM      7  C   LIG    1        1.755   2.999  -1.062  0.00  0.00    +0.510 C 
ATOM      8  O   LIG    1        1.100   3.098  -2.086  0.00  0.00    -0.700 OA
ATOM      9  O   LIG    1        2.598   3.837  -0.795  0.00  0.00    -0.710 OA
ENDBRANCH   6   7
TORSDOF 1
