REMARK  Name = ZINCqH0000004kk3.0
REMARK                            x       y       z     vdW  Elec       q    Type
REMARK                         _______ _______ _______ _____ _____    ______ ____
ROOT
ATOM      1  N   LIG    1       -0.430   7.190   1.869  0.00  0.00    -0.720 N 
ATOM      2  H   LIG    1       -0.293   6.309   2.251  0.00  0.00    +0.400 HD
ATOM      3  C   LIG    1       -0.426   8.278   2.665  0.00  0.00    +0.560 C 
ATOM      4  O   LIG    1       -0.598   9.382   2.187  0.00  0.00    -0.530 OA
ENDROOT
BRANCH   3   5
ATOM      5  C   LIG    1       -0.215   8.128   4.119  0.00  0.00    -0.130 A 
ATOM      6  C   LIG    1        0.119   6.884   4.655  0.00  0.00    +0.050 A 
ATOM      7  C   LIG    1        0.316   6.749   6.014  0.00  0.00    +0.010 A 
ATOM      8  C   LIG    1        0.184   7.843   6.853  0.00  0.00    +0.040 A 
ATOM      9  C   LIG    1       -0.146   9.082   6.340  0.00  0.00    +0.020 A 
ATOM     10  C   LIG    1       -0.342   9.239   4.971  0.00  0.00    +0.020 A 
BRANCH  10  11
ATOM     11  C   LIG    1       -0.690  10.569   4.416  0.00  0.00    -0.150 A 
ATOM     12  C   LIG    1        0.144  11.672   4.618  0.00  0.00    +0.320 A 
ATOM     13  N   LIG    1       -0.202  12.839   4.101  0.00  0.00    -0.520 NA
ATOM     14  C   LIG    1       -1.319  12.971   3.413  0.00  0.00    +0.490 A 
ATOM     15  N   LIG    1       -2.135  11.957   3.203  0.00  0.00    -0.520 NA
ATOM     16  C   LIG    1       -1.864  10.755   3.680  0.00  0.00    +0.380 A 
ENDBRANCH  10  11
ENDBRANCH   3   5
BRANCH   1  17
ATOM     17  C   LIG    1       -0.640   7.339   0.427  0.00  0.00    +0.290 C 
BRANCH  17  18
ATOM     18  C   LIG    1       -0.598   5.963  -0.239  0.00  0.00    +0.160 C 
BRANCH  18  20
ATOM     19  C   LIG    1       -0.899   4.735  -2.394  0.00  0.00    +0.020 C 
ATOM     20  C   LIG    1       -0.817   6.118  -1.746  0.00  0.00    +0.020 C 
ENDBRANCH  18  20
BRANCH  18  21
ATOM     21  O   LIG    1        0.676   5.358  -0.003  0.00  0.00    -0.300 OA
BRANCH  21  22
ATOM     22  C   LIG    1        0.703   4.005   0.122  0.00  0.00    +0.130 A 
ATOM     23  C   LIG    1       -0.483   3.284   0.130  0.00  0.00    -0.080 A 
ATOM     24  C   LIG    1       -0.453   1.909   0.256  0.00  0.00    +0.040 A 
ATOM     25  C   LIG    1        0.757   1.251   0.376  0.00  0.00    -0.040 A 
ATOM     26  C   LIG    1        1.940   1.968   0.374  0.00  0.00    +0.050 A 
ATOM     27  C   LIG    1        1.915   3.342   0.241  0.00  0.00    -0.020 A 
ENDBRANCH  21  22
ENDBRANCH  18  21
ENDBRANCH  17  18
ENDBRANCH   1  17
TORSDOF 7
