REMARK  Name = ZINCAx0000000ecT.0
REMARK                            x       y       z     vdW  Elec       q    Type
REMARK                         _______ _______ _______ _____ _____    ______ ____
ROOT
ATOM      1  C   LIG    1       -0.015   6.141   0.786  0.00  0.00    +0.250 C 
ATOM      2  C   LIG    1       -1.230   6.531   0.323  0.00  0.00    -0.280 A 
ATOM      3  S   LIG    1       -1.644   8.049  -0.498  0.00  0.00    +0.190 S 
ATOM      4  C   LIG    1       -3.358   7.646  -0.697  0.00  0.00    +0.200 A 
ATOM      5  N   LIG    1       -3.538   6.412  -0.138  0.00  0.00    -0.490 N 
ATOM      6  C   LIG    1       -4.332   8.434  -1.300  0.00  0.00    -0.050 C 
ATOM      7  C   LIG    1       -2.496   5.796   0.395  0.00  0.00    +0.550 A 
ATOM      8  O   LIG    1       -2.583   4.696   0.909  0.00  0.00    -0.450 OA
ENDROOT
BRANCH   6   9
ATOM      9  C   LIG    1       -3.985   9.773  -1.808  0.00  0.00    +0.240 A 
ATOM     10  N   LIG    1       -2.801  10.353  -1.756  0.00  0.00    -0.280 NA
ATOM     11  N   LIG    1       -2.861  11.516  -2.303  0.00  0.00    -0.280 NA
ATOM     12  C   LIG    1       -4.069  11.748  -2.727  0.00  0.00    +0.190 A 
ATOM     13  C   LIG    1       -4.563  12.981  -3.439  0.00  0.00    +0.160 C 
ATOM     14  C   LIG    1       -5.882  13.431  -2.803  0.00  0.00    +0.030 C 
ATOM     15  C   LIG    1       -7.048  12.721  -3.483  0.00  0.00    +0.020 C 
ATOM     16  C   LIG    1       -6.644  11.313  -3.915  0.00  0.00    +0.030 C 
ATOM     17  C   LIG    1       -6.256  10.486  -2.686  0.00  0.00    +0.280 C 
ATOM     18  N   LIG    1       -4.828  10.657  -2.420  0.00  0.00    -0.470 N 
ENDBRANCH   6   9
BRANCH   1  22
ATOM     19  C   LIG    1        0.541   2.178   2.198  0.00  0.00    +0.130 A 
ATOM     20  C   LIG    1       -0.246   2.411   1.079  0.00  0.00    -0.050 A 
ATOM     21  C   LIG    1       -0.434   3.697   0.620  0.00  0.00    +0.100 A 
ATOM     22  C   LIG    1        0.179   4.771   1.276  0.00  0.00    -0.100 A 
ATOM     23  C   LIG    1        0.977   4.533   2.402  0.00  0.00    +0.000 A 
ATOM     24  C   LIG    1        1.155   3.243   2.858  0.00  0.00    +0.090 A 
BRANCH  19  26
ATOM     25  C   LIG    1        0.062  -0.134   1.926  0.00  0.00    +0.240 C 
ATOM     26  O   LIG    1        0.719   0.909   2.649  0.00  0.00    -0.300 OA
ENDBRANCH  19  26
BRANCH  24  27
ATOM     27  O   LIG    1        1.930   3.008   3.951  0.00  0.00    -0.310 OA
ATOM     28  C   LIG    1        2.528   4.145   4.578  0.00  0.00    +0.240 C 
ENDBRANCH  24  27
ENDBRANCH   1  22
BRANCH   5  29
ATOM     29  C   LIG    1       -4.803   5.810  -0.131  0.00  0.00    +0.090 A 
ATOM     30  C   LIG    1       -5.752   6.195   0.807  0.00  0.00    +0.030 A 
ATOM     31  C   LIG    1       -6.999   5.603   0.809  0.00  0.00    +0.030 A 
ATOM     32  C   LIG    1       -7.301   4.620  -0.116  0.00  0.00    +0.040 A 
ATOM     33  C   LIG    1       -6.357   4.231  -1.048  0.00  0.00    +0.030 A 
ATOM     34  C   LIG    1       -5.109   4.823  -1.058  0.00  0.00    +0.040 A 
ENDBRANCH   5  29
BRANCH   6  35
ATOM     35  C   LIG    1       -5.672   7.945  -1.427  0.00  0.00    +0.250 C 
ATOM     36  N   LIG    1       -6.735   7.558  -1.528  0.00  0.00    -0.390 NA
ENDBRANCH   6  35
TORSDOF 6
