REMARK  Name = ZINCvU00000003X4.0
REMARK                            x       y       z     vdW  Elec       q    Type
REMARK                         _______ _______ _______ _____ _____    ______ ____
ROOT
ATOM      1  N   LIG    1       -3.056   2.671  -0.786  0.00  0.00    -0.410 N 
ATOM      2  C   LIG    1       -3.461   3.678  -1.622  0.00  0.00    +0.160 A 
ATOM      3  N   LIG    1       -4.610   4.124  -1.167  0.00  0.00    -0.280 NA
ATOM      4  N   LIG    1       -4.952   3.474  -0.113  0.00  0.00    -0.260 NA
ATOM      5  C   LIG    1       -4.044   2.565   0.170  0.00  0.00    +0.270 A 
ENDROOT
BRANCH   1   9
ATOM      6  C   LIG    1        0.425   0.393  -1.082  0.00  0.00    +0.150 A 
ATOM      7  C   LIG    1       -0.814  -0.212  -1.234  0.00  0.00    +0.020 A 
ATOM      8  C   LIG    1       -1.966   0.543  -1.142  0.00  0.00    +0.080 A 
ATOM      9  C   LIG    1       -1.885   1.905  -0.886  0.00  0.00    +0.060 A 
ATOM     10  C   LIG    1       -0.645   2.509  -0.733  0.00  0.00    +0.090 A 
ATOM     11  C   LIG    1        0.507   1.755  -0.831  0.00  0.00    -0.050 A 
BRANCH   6  13
ATOM     12  C   LIG    1        2.802   0.337  -1.011  0.00  0.00    +0.250 C 
ATOM     13  O   LIG    1        1.560  -0.350  -1.179  0.00  0.00    -0.310 OA
ENDBRANCH   6  13
ENDBRANCH   1   9
BRANCH   5  14
ATOM     14  C   LIG    1       -4.075   1.617   1.295  0.00  0.00    -0.140 A 
ATOM     15  C   LIG    1       -4.882   1.713   2.374  0.00  0.00    +0.080 A 
ATOM     16  C   LIG    1       -4.731   0.699   3.297  0.00  0.00    +0.010 A 
ATOM     17  C   LIG    1       -3.805  -0.214   2.990  0.00  0.00    -0.040 A 
ATOM     18  S   LIG    1       -3.061   0.188   1.448  0.00  0.00    +0.150 S 
ENDBRANCH   5  14
BRANCH   2  19
ATOM     19  S   LIG    1       -2.601   4.266  -3.043  0.00  0.00    +0.070 S 
BRANCH  19  20
ATOM     20  C   LIG    1       -3.743   5.560  -3.588  0.00  0.00    +0.090 C 
BRANCH  20  21
ATOM     21  C   LIG    1       -3.197   6.221  -4.828  0.00  0.00    +0.420 C 
ATOM     22  O   LIG    1       -2.140   5.854  -5.296  0.00  0.00    -0.430 OA
BRANCH  21  23
ATOM     23  C   LIG    1       -3.947   7.313  -5.470  0.00  0.00    -0.170 A 
ATOM     24  C   LIG    1       -5.222   7.655  -5.010  0.00  0.00    +0.070 A 
ATOM     25  C   LIG    1       -5.918   8.680  -5.617  0.00  0.00    -0.110 A 
ATOM     26  C   LIG    1       -5.357   9.367  -6.679  0.00  0.00    -0.040 A 
ATOM     27  C   LIG    1       -4.096   9.034  -7.140  0.00  0.00    +0.000 A 
ATOM     28  C   LIG    1       -6.125  10.486  -7.336  0.00  0.00    +0.100 C 
ATOM     29  C   LIG    1       -7.292   9.050  -5.122  0.00  0.00    +0.090 C 
ATOM     30  C   LIG    1       -3.385   8.017  -6.540  0.00  0.00    -0.020 A 
ATOM     31  C   LIG    1       -2.009   7.660  -7.040  0.00  0.00    +0.110 C 
ENDBRANCH  21  23
ENDBRANCH  20  21
ENDBRANCH  19  20
ENDBRANCH   2  19
TORSDOF 7
