REMARK  Name = ZINCtV000002FLWY.0
REMARK                            x       y       z     vdW  Elec       q    Type
REMARK                         _______ _______ _______ _____ _____    ______ ____
ROOT
ATOM      1  C   LIG    1        8.361   1.332   0.964  0.00  0.00    +0.130 A 
ATOM      2  N   LIG    1        8.029   2.602   0.982  0.00  0.00    -0.280 NA
ATOM      3  N   LIG    1        6.764   2.712   1.192  0.00  0.00    -0.230 NA
ATOM      4  C   LIG    1        6.239   1.516   1.326  0.00  0.00    +0.220 A 
ATOM      5  O   LIG    1        7.239   0.618   1.180  0.00  0.00    -0.200 OA
ENDROOT
BRANCH   4   6
ATOM      6  C   LIG    1        4.824   1.210   1.580  0.00  0.00    -0.120 A 
ATOM      7  C   LIG    1        3.865   2.131   1.717  0.00  0.00    +0.020 A 
ATOM      8  C   LIG    1        2.541   1.592   1.963  0.00  0.00    -0.080 A 
ATOM      9  C   LIG    1        1.319   2.277   2.154  0.00  0.00    +0.080 A 
ATOM     10  C   LIG    1        0.168   1.585   2.376  0.00  0.00    +0.030 A 
ATOM     11  C   LIG    1        0.175   0.198   2.418  0.00  0.00    +0.060 A 
ATOM     12  C   LIG    1        1.349  -0.495   2.235  0.00  0.00    +0.060 A 
ATOM     13  C   LIG    1        2.544   0.193   2.007  0.00  0.00    -0.130 A 
ATOM     14 CL   LIG    1        4.179   3.835   1.609  0.00  0.00    +0.000 Cl
ATOM     15  S   LIG    1        4.175  -0.410   1.743  0.00  0.00    +0.190 S 
ENDBRANCH   4   6
BRANCH   1  16
ATOM     16  S   LIG    1        9.977   0.681   0.704  0.00  0.00    +0.130 S 
BRANCH  16  17
ATOM     17  C   LIG    1       10.906   2.220   0.495  0.00  0.00    +0.090 C 
BRANCH  17  18
ATOM     18  C   LIG    1       12.359   1.901   0.253  0.00  0.00    +0.450 C 
ATOM     19  O   LIG    1       12.730   0.746   0.225  0.00  0.00    -0.460 OA
BRANCH  18  23
ATOM     20  C   LIG    1       14.430   6.529  -0.251  0.00  0.00    +0.130 C 
ATOM     21  C   LIG    1       14.222   5.039  -0.168  0.00  0.00    +0.010 A 
ATOM     22  C   LIG    1       13.046   4.428   0.048  0.00  0.00    +0.000 A 
ATOM     23  C   LIG    1       13.323   2.985   0.052  0.00  0.00    -0.270 A 
ATOM     24  C   LIG    1       14.680   2.861  -0.180  0.00  0.00    +0.130 A 
ATOM     25  C   LIG    1       15.447   1.566  -0.272  0.00  0.00    +0.150 C 
ATOM     26  N   LIG    1       15.198   4.095  -0.308  0.00  0.00    -0.410 N 
BRANCH  26  27
ATOM     27  C   LIG    1       16.612   4.386  -0.562  0.00  0.00    +0.180 C 
ATOM     28  C   LIG    1       16.939   5.389  -1.670  0.00  0.00    +0.060 C 
ATOM     29  C   LIG    1       17.207   3.897  -1.883  0.00  0.00    +0.040 C 
ENDBRANCH  26  27
ENDBRANCH  18  23
ENDBRANCH  17  18
ENDBRANCH  16  17
ENDBRANCH   1  16
TORSDOF 6
