REMARK  Name = ZINCpk000000oFWN.0
REMARK                            x       y       z     vdW  Elec       q    Type
REMARK                         _______ _______ _______ _____ _____    ______ ____
ROOT
ATOM      1  N   LIG    1        0.692   5.684  -1.054  0.00  0.00    -0.510 NA
ENDROOT
BRANCH   1   3
ATOM      2  C   LIG    1        1.592   5.215  -3.283  0.00  0.00    +0.030 C 
ATOM      3  C   LIG    1        1.746   4.965  -1.781  0.00  0.00    +0.170 C 
ENDBRANCH   1   3
BRANCH   1   4
ATOM      4  C   LIG    1        0.935   7.133  -1.070  0.00  0.00    +0.300 C 
BRANCH   4   5
ATOM      5  C   LIG    1       -0.346   7.861  -0.753  0.00  0.00    +0.430 A 
ATOM      6  N   LIG    1       -1.441   7.168  -0.638  0.00  0.00    -0.490 NA
ATOM      7  C   LIG    1       -2.618   7.746  -0.352  0.00  0.00    +0.340 A 
ATOM      8  C   LIG    1       -2.674   9.138  -0.184  0.00  0.00    -0.350 A 
ATOM      9  C   LIG    1       -1.433   9.900  -0.324  0.00  0.00    +0.580 A 
ATOM     10  O   LIG    1       -1.417  11.111  -0.189  0.00  0.00    -0.520 OA
ATOM     11  C   LIG    1       -4.012   9.472   0.098  0.00  0.00    +0.330 A 
ATOM     12  N   LIG    1       -4.716   8.373   0.102  0.00  0.00    -0.270 NA
ATOM     13  N   LIG    1       -3.883   7.282  -0.174  0.00  0.00    -0.350 N 
ATOM     14  C   LIG    1       -4.302   5.881  -0.257  0.00  0.00    +0.380 C 
ATOM     15  N   LIG    1       -0.304   9.209  -0.608  0.00  0.00    -0.650 N 
ATOM     16  H   LIG    1        0.538   9.680  -0.708  0.00  0.00    +0.420 HD
ENDBRANCH   4   5
ENDBRANCH   1   4
BRANCH   1  17
ATOM     17  C   LIG    1        0.567   5.186   0.322  0.00  0.00    +0.240 C 
BRANCH  17  18
ATOM     18  C   LIG    1        0.079   3.761   0.298  0.00  0.00    -0.070 A 
ATOM     19  C   LIG    1       -1.278   3.496   0.325  0.00  0.00    +0.060 A 
ATOM     20  C   LIG    1       -1.731   2.190   0.299  0.00  0.00    +0.040 A 
ATOM     21  C   LIG    1       -0.826   1.143   0.254  0.00  0.00    +0.030 A 
ATOM     22  O   LIG    1       -1.007  -0.210   0.223  0.00  0.00    -0.310 OA
ATOM     23  C   LIG    1        0.265  -0.776   0.589  0.00  0.00    +0.430 C 
ATOM     24  O   LIG    1        1.216   0.224   0.179  0.00  0.00    -0.310 OA
ATOM     25  C   LIG    1        0.541   1.409   0.227  0.00  0.00    +0.030 A 
ATOM     26  C   LIG    1        0.988   2.720   0.249  0.00  0.00    +0.030 A 
ENDBRANCH  17  18
ENDBRANCH   1  17
TORSDOF 5
