REMARK  Name = ZINCkj000005mdew.1
REMARK                            x       y       z     vdW  Elec       q    Type
REMARK                         _______ _______ _______ _____ _____    ______ ____
ROOT
ATOM      1  O   LIG    1        0.967   4.180  -6.641  0.00  0.00    -0.470 OA
ATOM      2  C   LIG    1        1.126   3.112  -6.084  0.00  0.00    +0.640 C 
ATOM      3  O   LIG    1        1.341   2.999  -4.769  0.00  0.00    -0.330 OA
ATOM      4  C   LIG    1        1.492   1.592  -4.421  0.00  0.00    +0.190 C 
ATOM      5  C   LIG    1        1.331   0.856  -5.765  0.00  0.00    +0.300 C 
ATOM      6  N   LIG    1        1.104   1.939  -6.733  0.00  0.00    -0.560 N 
ENDROOT
BRANCH   6   7
ATOM      7  C   LIG    1        0.900   1.773  -8.107  0.00  0.00    +0.160 A 
ATOM      8  C   LIG    1        0.905   0.500  -8.663  0.00  0.00    -0.020 A 
ATOM      9  C   LIG    1        0.698   0.340 -10.019  0.00  0.00    +0.040 A 
ATOM     10  C   LIG    1        0.495   1.445 -10.825  0.00  0.00    +0.000 A 
ATOM     11  C   LIG    1        0.494   2.714 -10.275  0.00  0.00    +0.040 A 
ATOM     12  C   LIG    1        0.696   2.881  -8.919  0.00  0.00    +0.010 A 
ENDBRANCH   6   7
BRANCH   4  13
ATOM     13  C   LIG    1        0.400   1.162  -3.439  0.00  0.00    +0.290 C 
BRANCH  13  14
ATOM     14  N   LIG    1        0.518   1.945  -2.202  0.00  0.00    -0.390 N 
ATOM     15  C   LIG    1        1.778   1.598  -1.511  0.00  0.00    +0.260 C 
ATOM     16  C   LIG    1        1.431   1.654  -0.003  0.00  0.00    +0.090 C 
ATOM     17  C   LIG    1       -0.013   1.086   0.008  0.00  0.00    +0.010 C 
ATOM     18  C   LIG    1       -0.611   1.631  -1.306  0.00  0.00    +0.270 C 
ATOM     19  H   LIG    1        0.511   2.930  -2.423  0.00  0.00    +0.440 HD
BRANCH  17  20
ATOM     20  C   LIG    1       -0.790   1.608   1.218  0.00  0.00    +0.200 C 
BRANCH  20  21
ATOM     21  O   LIG    1       -0.250   1.040   2.413  0.00  0.00    -0.570 OA
ATOM     22  H   LIG    1       -0.695   1.328   3.221  0.00  0.00    +0.400 HD
ENDBRANCH  20  21
ENDBRANCH  17  20
ENDBRANCH  13  14
ENDBRANCH   4  13
TORSDOF 5
