REMARK  Name = ZINCkj000005mdew.0
REMARK                            x       y       z     vdW  Elec       q    Type
REMARK                         _______ _______ _______ _____ _____    ______ ____
ROOT
ATOM      1  O   LIG    1        0.070   3.319  -2.936  0.00  0.00    -0.470 OA
ATOM      2  C   LIG    1        0.300   2.774  -1.875  0.00  0.00    +0.640 C 
ATOM      3  O   LIG    1       -0.605   2.035  -1.222  0.00  0.00    -0.320 OA
ATOM      4  C   LIG    1       -0.019   1.526   0.010  0.00  0.00    +0.190 C 
ATOM      5  C   LIG    1        1.417   2.086  -0.000  0.00  0.00    +0.300 C 
ATOM      6  N   LIG    1        1.483   2.857  -1.251  0.00  0.00    -0.560 N 
ENDROOT
BRANCH   6   7
ATOM      7  C   LIG    1        2.599   3.564  -1.713  0.00  0.00    +0.160 A 
ATOM      8  C   LIG    1        3.771   3.578  -0.969  0.00  0.00    -0.020 A 
ATOM      9  C   LIG    1        4.872   4.272  -1.431  0.00  0.00    +0.040 A 
ATOM     10  C   LIG    1        4.805   4.961  -2.628  0.00  0.00    +0.000 A 
ATOM     11  C   LIG    1        3.638   4.953  -3.369  0.00  0.00    +0.040 A 
ATOM     12  C   LIG    1        2.535   4.256  -2.915  0.00  0.00    +0.010 A 
ENDBRANCH   6   7
BRANCH   4  13
ATOM     13  C   LIG    1        0.002  -0.004   0.002  0.00  0.00    +0.290 C 
BRANCH  13  14
ATOM     14  N   LIG    1       -1.376  -0.512   0.012  0.00  0.00    -0.390 N 
ATOM     15  C   LIG    1       -2.046  -0.156  -1.252  0.00  0.00    +0.260 C 
ATOM     16  C   LIG    1       -2.486  -1.474  -1.923  0.00  0.00    +0.090 C 
ATOM     17  C   LIG    1       -2.547  -2.469  -0.734  0.00  0.00    +0.010 C 
ATOM     18  C   LIG    1       -1.362  -1.986   0.139  0.00  0.00    +0.280 C 
ATOM     19  H   LIG    1       -1.881  -0.112   0.789  0.00  0.00    +0.430 HD
BRANCH  17  20
ATOM     20  C   LIG    1       -2.327  -3.906  -1.210  0.00  0.00    +0.210 C 
BRANCH  20  21
ATOM     21  O   LIG    1       -3.423  -4.308  -2.035  0.00  0.00    -0.570 OA
ATOM     22  H   LIG    1       -3.351  -5.211  -2.373  0.00  0.00    +0.400 HD
ENDBRANCH  20  21
ENDBRANCH  17  20
ENDBRANCH  13  14
ENDBRANCH   4  13
TORSDOF 5
