REMARK  Name = ZINCvU00000007KR.0
REMARK                            x       y       z     vdW  Elec       q    Type
REMARK                         _______ _______ _______ _____ _____    ______ ____
ROOT
ATOM      1  C   LIG    1        5.299  -6.944  -3.525  0.00  0.00    +0.110 A 
ATOM      2  C   LIG    1        4.334  -6.446  -2.669  0.00  0.00    -0.040 A 
ATOM      3  C   LIG    1        4.690  -5.648  -1.588  0.00  0.00    -0.060 A 
ATOM      4  C   LIG    1        6.017  -5.358  -1.363  0.00  0.00    -0.090 A 
ATOM      5  C   LIG    1        6.471  -4.523  -0.197  0.00  0.00    +0.370 C 
ATOM      6  N   LIG    1        5.315  -3.885   0.441  0.00  0.00    -0.610 N 
ATOM      7  C   LIG    1        4.120  -4.718   0.660  0.00  0.00    +0.290 C 
ATOM      8  C   LIG    1        5.342  -2.588   0.807  0.00  0.00    +0.510 C 
ATOM      9  O   LIG    1        6.371  -1.953   0.712  0.00  0.00    -0.470 OA
ATOM     10  C   LIG    1        6.990  -5.851  -2.223  0.00  0.00    -0.010 A 
ATOM     11  C   LIG    1        3.581  -5.134  -0.708  0.00  0.00    +0.070 C 
ATOM     12  C   LIG    1        6.639  -6.642  -3.301  0.00  0.00    +0.100 A 
ENDROOT
BRANCH   5  13
ATOM     13  C   LIG    1        7.424  -3.461  -0.683  0.00  0.00    -0.150 A 
ATOM     14  C   LIG    1        8.704  -3.353  -0.323  0.00  0.00    +0.000 A 
ATOM     15  C   LIG    1        9.385  -2.295  -0.901  0.00  0.00    +0.010 A 
ATOM     16  C   LIG    1        8.659  -1.545  -1.730  0.00  0.00    -0.050 A 
ATOM     17  S   LIG    1        7.021  -2.180  -1.819  0.00  0.00    +0.130 S 
ENDBRANCH   5  13
BRANCH   1  19
ATOM     18  C   LIG    1        3.546  -7.992  -4.744  0.00  0.00    +0.250 C 
ATOM     19  O   LIG    1        4.941  -7.725  -4.579  0.00  0.00    -0.300 OA
ENDBRANCH   1  19
BRANCH  12  20
ATOM     20  O   LIG    1        7.598  -7.121  -4.139  0.00  0.00    -0.300 OA
ATOM     21  C   LIG    1        8.951  -6.769  -3.846  0.00  0.00    +0.240 C 
ENDBRANCH  12  20
BRANCH   8  22
ATOM     22  C   LIG    1        4.095  -1.928   1.334  0.00  0.00    +0.220 C 
BRANCH  22  23
ATOM     23  O   LIG    1        4.377  -0.563   1.651  0.00  0.00    -0.280 OA
BRANCH  23  24
ATOM     24  C   LIG    1        3.350   0.181   2.143  0.00  0.00    +0.140 A 
ATOM     25  C   LIG    1        2.099  -0.392   2.316  0.00  0.00    -0.070 A 
ATOM     26  C   LIG    1        1.057   0.366   2.816  0.00  0.00    +0.080 A 
ATOM     27  C   LIG    1        1.262   1.694   3.144  0.00  0.00    -0.080 A 
ATOM     28  C   LIG    1        2.510   2.267   2.972  0.00  0.00    -0.030 A 
ATOM     29  C   LIG    1        2.730   3.714   3.330  0.00  0.00    +0.120 C 
ATOM     30 CL   LIG    1       -0.051   2.646   3.766  0.00  0.00    -0.070 Cl
ATOM     31  C   LIG    1        3.554   1.513   2.472  0.00  0.00    +0.000 A 
ENDBRANCH  23  24
ENDBRANCH  22  23
ENDBRANCH   8  22
TORSDOF 6
