REMARK  Name = ZINCvU0000000D6H.0
REMARK                            x       y       z     vdW  Elec       q    Type
REMARK                         _______ _______ _______ _____ _____    ______ ____
ROOT
ATOM      1  C   LIG    1        2.326   1.462  -0.244  0.00  0.00    -0.110 A 
ATOM      2  C   LIG    1        1.064   2.057  -0.272  0.00  0.00    +0.080 A 
ATOM      3  C   LIG    1       -0.061   1.294  -0.035  0.00  0.00    +0.020 A 
ATOM      4  C   LIG    1        0.060  -0.059   0.230  0.00  0.00    +0.060 A 
ATOM      5  C   LIG    1        1.309  -0.655   0.259  0.00  0.00    +0.030 A 
ATOM      6  C   LIG    1        2.441   0.096   0.024  0.00  0.00    -0.020 A 
ENDROOT
BRANCH   1   8
ATOM      7  O   LIG    1        4.621   1.734  -0.581  0.00  0.00    -0.480 OA
ATOM      8  C   LIG    1        3.535   2.272  -0.497  0.00  0.00    +0.510 C 
BRANCH   8   9
ATOM      9  O   LIG    1        3.433   3.608  -0.636  0.00  0.00    -0.350 OA
BRANCH   9  10
ATOM     10  C   LIG    1        4.662   4.341  -0.883  0.00  0.00    +0.410 C 
BRANCH  10  11
ATOM     11  C   LIG    1        4.353   5.811  -1.009  0.00  0.00    +0.160 A 
ATOM     12  N   LIG    1        4.334   6.679  -0.037  0.00  0.00    -0.240 NA
ATOM     13  N   LIG    1        4.034   7.841  -0.502  0.00  0.00    -0.270 NA
ATOM     14  C   LIG    1        3.850   7.753  -1.802  0.00  0.00    +0.260 A 
ATOM     15  O   LIG    1        4.053   6.465  -2.147  0.00  0.00    -0.210 OA
BRANCH  14  16
ATOM     16  C   LIG    1        3.493   8.853  -2.709  0.00  0.00    -0.160 A 
ATOM     17  C   LIG    1        3.296  10.148  -2.337  0.00  0.00    +0.110 A 
ATOM     18  C   LIG    1        2.970  10.996  -3.373  0.00  0.00    +0.020 A 
ATOM     19  C   LIG    1        2.896  10.420  -4.577  0.00  0.00    -0.010 A 
ATOM     20  S   LIG    1        3.260   8.705  -4.446  0.00  0.00    +0.180 S 
ENDBRANCH  14  16
ENDBRANCH  10  11
ENDBRANCH   9  10
ENDBRANCH   8   9
ENDBRANCH   1   8
BRANCH   6  21
ATOM     21  C   LIG    1        3.800  -0.556   0.056  0.00  0.00    +0.170 C 
BRANCH  21  22
ATOM     22  S   LIG    1        4.307  -0.976  -1.630  0.00  0.00    +0.020 S 
BRANCH  22  23
ATOM     23  C   LIG    1        5.880  -1.700  -1.305  0.00  0.00    +0.270 A 
ATOM     24  N   LIG    1        6.415  -1.835  -0.117  0.00  0.00    -0.490 NA
ATOM     25  C   LIG    1        7.630  -2.433  -0.229  0.00  0.00    +0.060 A 
ATOM     26  C   LIG    1        8.605  -2.807   0.699  0.00  0.00    +0.060 A 
ATOM     27  C   LIG    1        9.765  -3.411   0.266  0.00  0.00    +0.010 A 
ATOM     28  C   LIG    1        9.972  -3.652  -1.083  0.00  0.00    +0.030 A 
ATOM     29  C   LIG    1        9.018  -3.289  -2.013  0.00  0.00    +0.010 A 
ATOM     30  C   LIG    1        7.846  -2.679  -1.596  0.00  0.00    +0.050 A 
ATOM     31  N   LIG    1        6.720  -2.211  -2.254  0.00  0.00    -0.590 N 
ATOM     32  H   LIG    1        6.560  -2.238  -3.210  0.00  0.00    +0.430 HD
ENDBRANCH  22  23
ENDBRANCH  21  22
ENDBRANCH   6  21
TORSDOF 8
