REMARK  Name = ZINCpk00000ebHtJ.0
REMARK                            x       y       z     vdW  Elec       q    Type
REMARK                         _______ _______ _______ _____ _____    ______ ____
ROOT
ATOM      1  C   LIG    1       -5.787   0.384  -5.353  0.00  0.00    -0.110 A 
ATOM      2  C   LIG    1       -6.589  -0.549  -4.692  0.00  0.00    +0.080 A 
ATOM      3  C   LIG    1       -6.366  -0.830  -3.360  0.00  0.00    +0.030 A 
ATOM      4  C   LIG    1       -5.351  -0.190  -2.674  0.00  0.00    +0.020 A 
ATOM      5  C   LIG    1       -4.546   0.740  -3.322  0.00  0.00    +0.130 A 
ATOM      6  C   LIG    1       -4.764   1.033  -4.659  0.00  0.00    +0.090 A 
ENDROOT
BRANCH   5   7
ATOM      7  N   LIG    1       -3.519   1.385  -2.623  0.00  0.00    -0.670 N 
ATOM      8  H   LIG    1       -3.627   1.588  -1.681  0.00  0.00    +0.410 HD
ATOM      9  C   LIG    1       -2.381   1.723  -3.259  0.00  0.00    +0.510 C 
ATOM     10  O   LIG    1       -2.205   1.385  -4.411  0.00  0.00    -0.490 OA
BRANCH   9  11
ATOM     11  C   LIG    1       -1.324   2.522  -2.540  0.00  0.00    +0.160 C 
ATOM     12  C   LIG    1       -1.868   3.923  -2.199  0.00  0.00    +0.020 C 
ATOM     13  C   LIG    1       -0.887   4.892  -2.902  0.00  0.00    +0.020 C 
ATOM     14  C   LIG    1        0.369   4.004  -3.091  0.00  0.00    +0.210 C 
ATOM     15  O   LIG    1       -0.182   2.703  -3.393  0.00  0.00    -0.350 OA
ENDBRANCH   9  11
ENDBRANCH   5   7
BRANCH   1  17
ATOM     16  O   LIG    1       -5.323   1.498  -7.352  0.00  0.00    -0.500 OA
ATOM     17  C   LIG    1       -6.023   0.686  -6.779  0.00  0.00    +0.510 C 
BRANCH  17  18
ATOM     18  O   LIG    1       -7.013   0.062  -7.446  0.00  0.00    -0.340 OA
BRANCH  18  19
ATOM     19  C   LIG    1       -7.188   0.409  -8.845  0.00  0.00    +0.210 C 
BRANCH  19  20
ATOM     20  C   LIG    1       -8.351  -0.395  -9.428  0.00  0.00    +0.360 C 
BRANCH  20  21
ATOM     21  N   LIG    1       -9.598   0.005  -8.772  0.00  0.00    -0.630 N 
ATOM     22  C   LIG    1      -10.493   1.083  -9.220  0.00  0.00    +0.240 C 
ATOM     23  C   LIG    1      -11.632   1.069  -8.182  0.00  0.00    +0.260 C 
ATOM     24  O   LIG    1      -11.264  -0.004  -7.268  0.00  0.00    -0.330 OA
ATOM     25  C   LIG    1      -10.113  -0.556  -7.669  0.00  0.00    +0.640 C 
ATOM     26  O   LIG    1       -9.581  -1.479  -7.085  0.00  0.00    -0.510 OA
ENDBRANCH  20  21
ENDBRANCH  19  20
ENDBRANCH  18  19
ENDBRANCH  17  18
ENDBRANCH   1  17
TORSDOF 7
