REMARK  Name = ZINCpk00000y6xOA.0
REMARK                            x       y       z     vdW  Elec       q    Type
REMARK                         _______ _______ _______ _____ _____    ______ ____
ROOT
ATOM      1  N   LIG    1       -0.042   0.336   3.212  0.00  0.00    -0.280 N 
ATOM      2  N   LIG    1        0.923   0.611   4.022  0.00  0.00    -0.240 NA
ATOM      3  C   LIG    1        1.199  -0.412   4.772  0.00  0.00    -0.010 A 
ATOM      4  C   LIG    1        0.328  -1.453   4.412  0.00  0.00    -0.120 A 
ATOM      5  C   LIG    1        0.355  -2.806   5.069  0.00  0.00    +0.110 C 
ATOM      6  C   LIG    1        1.682  -2.920   5.836  0.00  0.00    +0.150 C 
ATOM      7  O   LIG    1        1.895  -1.742   6.616  0.00  0.00    -0.370 OA
ATOM      8  C   LIG    1        1.633  -4.139   6.759  0.00  0.00    +0.070 C 
ATOM      9  C   LIG    1        2.233  -0.571   5.859  0.00  0.00    +0.260 C 
ATOM     10  C   LIG    1        2.221   0.658   6.770  0.00  0.00    +0.070 C 
ATOM     11  C   LIG    1       -0.465  -0.952   3.416  0.00  0.00    -0.030 A 
ENDROOT
BRANCH  11  12
ATOM     12  C   LIG    1       -1.547  -1.653   2.706  0.00  0.00    +0.600 C 
ATOM     13  N   LIG    1       -1.976  -1.197   1.513  0.00  0.00    -0.720 N 
ATOM     14  H   LIG    1       -1.634  -0.360   1.162  0.00  0.00    +0.410 HD
ATOM     15  O   LIG    1       -2.053  -2.645   3.196  0.00  0.00    -0.510 OA
BRANCH  13  16
ATOM     16  C   LIG    1       -2.960  -1.965   0.745  0.00  0.00    +0.370 C 
BRANCH  16  17
ATOM     17  C   LIG    1       -4.353  -1.748   1.340  0.00  0.00    +0.080 C 
ATOM     18  C   LIG    1       -4.823  -2.731   2.415  0.00  0.00    +0.090 C 
ATOM     19  C   LIG    1       -5.430  -2.783   1.011  0.00  0.00    +0.090 C 
BRANCH  17  20
ATOM     20  N   LIG    1       -4.774  -0.351   1.470  0.00  0.00    -0.120 N 
ATOM     21  N   LIG    1       -5.990   0.056   1.382  0.00  0.00    -0.290 NA
ATOM     22  C   LIG    1       -6.011   1.359   1.550  0.00  0.00    +0.170 A 
ATOM     23  C   LIG    1       -4.682   1.742   1.745  0.00  0.00    +0.170 A 
ATOM     24  N   LIG    1       -3.977   0.635   1.683  0.00  0.00    -0.290 NA
ENDBRANCH  17  20
ENDBRANCH  16  17
ENDBRANCH  13  16
ENDBRANCH  11  12
BRANCH   1  26
ATOM     25  C   LIG    1        0.036   1.010   0.862  0.00  0.00    +0.050 C 
ATOM     26  C   LIG    1       -0.606   1.263   2.228  0.00  0.00    +0.320 C 
ENDBRANCH   1  26
TORSDOF 5
