REMARK  Name = ZINCpe000000UpBN.0
REMARK                            x       y       z     vdW  Elec       q    Type
REMARK                         _______ _______ _______ _____ _____    ______ ____
ROOT
ATOM      1  C   LIG    1        1.562   6.982  -3.750  0.00  0.00    +0.260 C 
ATOM      2  C   LIG    1        1.336   7.938  -4.924  0.00  0.00    +0.030 C 
ATOM      3  C   LIG    1       -0.099   8.470  -4.873  0.00  0.00    +0.010 C 
ATOM      4  C   LIG    1       -0.331   9.163  -3.528  0.00  0.00    +0.020 C 
ATOM      5  C   LIG    1       -0.057   8.171  -2.395  0.00  0.00    +0.170 C 
ATOM      6  N   LIG    1        1.328   7.692  -2.486  0.00  0.00    -0.510 NA
ENDROOT
BRANCH   1  12
ATOM      7  C   LIG    1        3.386   5.179  -4.186  0.00  0.00    -0.290 A 
ATOM      8  C   LIG    1        4.761   5.130  -4.069  0.00  0.00    +0.280 A 
ATOM      9  N   LIG    1        5.168   6.325  -3.613  0.00  0.00    -0.460 N 
ATOM     10  H   LIG    1        6.086   6.580  -3.432  0.00  0.00    +0.450 HD
ATOM     11  N   LIG    1        4.044   7.142  -3.444  0.00  0.00    -0.260 NA
ATOM     12  C   LIG    1        2.979   6.471  -3.784  0.00  0.00    +0.140 A 
BRANCH   7  15
ATOM     13  C   LIG    1        1.861   1.738  -4.678  0.00  0.00    +0.290 C 
ATOM     14  N   LIG    1        2.650   2.848  -4.136  0.00  0.00    -0.620 N 
ATOM     15  C   LIG    1        2.508   4.088  -4.645  0.00  0.00    +0.600 C 
ATOM     16  O   LIG    1        1.655   4.306  -5.484  0.00  0.00    -0.520 OA
ATOM     17  C   LIG    1        3.594   2.610  -3.041  0.00  0.00    +0.280 C 
ENDBRANCH   7  15
ENDBRANCH   1  12
BRANCH   6  18
ATOM     18  C   LIG    1        1.669   6.845  -1.336  0.00  0.00    +0.200 C 
BRANCH  18  19
ATOM     19  C   LIG    1        0.837   5.562  -1.382  0.00  0.00    +0.170 C 
BRANCH  19  20
ATOM     20  O   LIG    1        1.201   4.799  -2.534  0.00  0.00    -0.540 OA
ATOM     21  H   LIG    1        2.131   4.537  -2.554  0.00  0.00    +0.360 HD
ENDBRANCH  19  20
BRANCH  19  22
ATOM     22  C   LIG    1        1.100   4.738  -0.120  0.00  0.00    +0.290 C 
BRANCH  22  23
ATOM     23  N   LIG    1        0.216   3.570  -0.106  0.00  0.00    -0.360 N 
ATOM     24  C   LIG    1        0.603   2.283   0.008  0.00  0.00    +0.220 A 
ATOM     25  C   LIG    1       -0.510   1.513  -0.021  0.00  0.00    -0.120 A 
ATOM     26  C   LIG    1       -1.615   2.359  -0.164  0.00  0.00    +0.230 A 
ATOM     27  N   LIG    1       -1.181   3.593  -0.209  0.00  0.00    -0.290 NA
ENDBRANCH  22  23
ENDBRANCH  19  22
ENDBRANCH  18  19
ENDBRANCH   6  18
TORSDOF 7
