REMARK  Name = ZINCrH00000auzPp.0
REMARK                            x       y       z     vdW  Elec       q    Type
REMARK                         _______ _______ _______ _____ _____    ______ ____
ROOT
ATOM      1  C   LIG    1        0.606  -0.499  -1.314  0.00  0.00    +0.020 C 
ATOM      2  C   LIG    1        0.002  -0.004   0.002  0.00  0.00    +0.240 C 
ENDROOT
BRANCH   2   3
ATOM      3  N   LIG    1        0.812  -0.488   1.123  0.00  0.00    -0.720 N 
ATOM      4  H   LIG    1        1.506   0.076   1.498  0.00  0.00    +0.390 HD
ATOM      5  C   LIG    1        0.591  -1.716   1.633  0.00  0.00    +0.590 C 
ATOM      6  O   LIG    1       -0.280  -2.422   1.163  0.00  0.00    -0.520 OA
BRANCH   5   7
ATOM      7  C   LIG    1        1.406  -2.202   2.761  0.00  0.00    -0.210 A 
ATOM      8  C   LIG    1        2.420  -1.542   3.397  0.00  0.00    +0.220 A 
ATOM      9  O   LIG    1        2.896  -2.330   4.367  0.00  0.00    -0.160 OA
ATOM     10  C   LIG    1        2.243  -3.498   4.398  0.00  0.00    +0.010 A 
ATOM     11  C   LIG    1        2.475  -4.660   5.335  0.00  0.00    +0.140 C 
ATOM     12  C   LIG    1        1.248  -5.577   5.285  0.00  0.00    +0.040 C 
ATOM     13  C   LIG    1        0.905  -5.895   3.826  0.00  0.00    +0.000 C 
ATOM     14  C   LIG    1        0.362  -4.632   3.145  0.00  0.00    +0.250 C 
ATOM     15  C   LIG    1        1.305  -3.496   3.434  0.00  0.00    -0.130 A 
BRANCH  14  16
ATOM     16  O   LIG    1       -0.934  -4.325   3.660  0.00  0.00    -0.550 OA
ATOM     17  H   LIG    1       -1.592  -5.017   3.508  0.00  0.00    +0.380 HD
ENDBRANCH  14  16
ENDBRANCH   5   7
ENDBRANCH   2   3
BRANCH   2  18
ATOM     18  C   LIG    1       -0.019   1.526   0.010  0.00  0.00    +0.110 C 
BRANCH  18  19
ATOM     19  C   LIG    1       -0.724   2.012   1.250  0.00  0.00    -0.170 A 
ATOM     20  C   LIG    1       -2.019   2.348   1.352  0.00  0.00    +0.250 A 
ATOM     21  N   LIG    1       -2.300   2.743   2.632  0.00  0.00    -0.590 N 
ATOM     22  H   LIG    1       -3.170   3.032   2.948  0.00  0.00    +0.420 HD
ATOM     23  C   LIG    1       -1.162   2.668   3.405  0.00  0.00    +0.110 A 
ATOM     24  C   LIG    1       -0.895   2.946   4.742  0.00  0.00    +0.020 A 
ATOM     25  C   LIG    1        0.379   2.768   5.240  0.00  0.00    +0.090 A 
ATOM     26  C   LIG    1        1.405   2.312   4.418  0.00  0.00    +0.050 A 
ATOM     27  C   LIG    1        1.159   2.031   3.091  0.00  0.00    +0.050 A 
ATOM     28  F   LIG    1        2.646   2.144   4.922  0.00  0.00    -0.130 F 
ATOM     29  F   LIG    1        0.632   3.039   6.539  0.00  0.00    -0.120 F 
ATOM     30  C   LIG    1       -0.127   2.201   2.575  0.00  0.00    -0.080 A 
ENDBRANCH  18  19
ENDBRANCH   2  18
TORSDOF 5
