REMARK  Name = ZINCrg000000pmgs.0
REMARK                            x       y       z     vdW  Elec       q    Type
REMARK                         _______ _______ _______ _____ _____    ______ ____
ROOT
ATOM      1  N   LIG    1       -5.240  -7.060   0.279  0.00  0.00    -0.670 N 
ATOM      2  H   LIG    1       -6.139  -6.705   0.363  0.00  0.00    +0.420 HD
ATOM      3  C   LIG    1       -4.178  -6.237   0.378  0.00  0.00    +0.510 C 
ATOM      4  O   LIG    1       -3.054  -6.693   0.360  0.00  0.00    -0.510 OA
ENDROOT
BRANCH   1   7
ATOM      5  C   LIG    1       -3.771 -10.429   0.400  0.00  0.00    -0.660 A 
ATOM      6  C   LIG    1       -3.958  -9.079   0.622  0.00  0.00    +0.140 A 
ATOM      7  C   LIG    1       -5.047  -8.428   0.056  0.00  0.00    +0.110 A 
ATOM      8  C   LIG    1       -5.947  -9.139  -0.727  0.00  0.00    +0.060 A 
ATOM      9  C   LIG    1       -5.750 -10.488  -0.950  0.00  0.00    +0.020 A 
ATOM     10  C   LIG    1       -4.665 -11.133  -0.385  0.00  0.00    +0.010 A 
ATOM     11  C   LIG    1       -4.457 -12.606  -0.626  0.00  0.00    +0.100 C 
BRANCH   5  12
ATOM     12  S   LIG    1       -2.390 -11.255   1.119  0.00  0.00    +2.700 S 
ATOM     13  O   LIG    1       -2.903 -12.425   1.742  0.00  0.00    -0.950 OA
ATOM     14  O   LIG    1       -1.648 -10.264   1.816  0.00  0.00    -0.950 OA
BRANCH  12  16
ATOM     15  C   LIG    1       -0.811 -10.797  -1.029  0.00  0.00    +0.290 C 
ATOM     16  N   LIG    1       -1.427 -11.772  -0.125  0.00  0.00    -1.120 NA
ATOM     17  H   LIG    1       -1.271 -12.721  -0.256  0.00  0.00    +0.420 HD
ENDBRANCH  12  16
ENDBRANCH   5  12
ENDBRANCH   1   7
BRANCH   3  18
ATOM     18  C   LIG    1       -4.386  -4.751   0.512  0.00  0.00    +0.330 C 
BRANCH  18  19
ATOM     19  N   LIG    1       -3.086  -4.081   0.601  0.00  0.00    -0.720 N 
ATOM     20  H   LIG    1       -2.269  -4.603   0.570  0.00  0.00    +0.420 HD
ATOM     21  C   LIG    1       -3.026  -2.741   0.727  0.00  0.00    +0.520 C 
ATOM     22  O   LIG    1       -4.048  -2.088   0.766  0.00  0.00    -0.510 OA
BRANCH  21  23
ATOM     23  C   LIG    1       -1.689  -2.052   0.819  0.00  0.00    +0.240 C 
BRANCH  23  24
ATOM     24  O   LIG    1       -1.886  -0.642   0.946  0.00  0.00    -0.290 OA
BRANCH  24  25
ATOM     25  C   LIG    1       -0.773   0.131   1.041  0.00  0.00    +0.130 A 
ATOM     26  C   LIG    1       -0.891   1.507   1.166  0.00  0.00    -0.020 A 
ATOM     27  C   LIG    1        0.242   2.291   1.263  0.00  0.00    +0.050 A 
ATOM     28  C   LIG    1        1.494   1.704   1.236  0.00  0.00    -0.030 A 
ATOM     29  C   LIG    1        1.615   0.333   1.111  0.00  0.00    +0.050 A 
ATOM     30  C   LIG    1        0.484  -0.455   1.014  0.00  0.00    -0.080 A 
ENDBRANCH  24  25
ENDBRANCH  23  24
ENDBRANCH  21  23
ENDBRANCH  18  19
ENDBRANCH   3  18
TORSDOF 8
