REMARK  Name = ZINCpe00000c96h1.0
REMARK                            x       y       z     vdW  Elec       q    Type
REMARK                         _______ _______ _______ _____ _____    ______ ____
ROOT
ATOM      1  O   LIG    1       -2.763   9.383  -7.799  0.00  0.00    -0.520 OA
ATOM      2  C   LIG    1       -2.837   8.195  -8.034  0.00  0.00    +0.510 C 
ATOM      3  N   LIG    1       -2.021   7.330  -7.400  0.00  0.00    -0.610 N 
ATOM      4  C   LIG    1       -1.036   7.810  -6.422  0.00  0.00    +0.300 C 
ATOM      5  C   LIG    1       -1.231   7.044  -5.109  0.00  0.00    +0.050 C 
ATOM      6  C   LIG    1       -1.162   5.540  -5.385  0.00  0.00    +0.130 C 
ATOM      7  C   LIG    1       -1.328   4.774  -4.070  0.00  0.00    +0.030 C 
ATOM      8  C   LIG    1       -1.193   3.273  -4.342  0.00  0.00    +0.260 C 
ATOM      9  C   LIG    1        0.160   3.003  -5.007  0.00  0.00    +0.010 C 
ATOM     10  C   LIG    1        0.265   3.837  -6.287  0.00  0.00    +0.230 C 
ATOM     11  C   LIG    1       -2.283   5.144  -6.348  0.00  0.00    -0.000 C 
ATOM     12  O   LIG    1        0.103   5.220  -5.968  0.00  0.00    -0.360 OA
ATOM     13  C   LIG    1       -2.100   5.888  -7.674  0.00  0.00    +0.280 C 
ENDROOT
BRANCH   8  14
ATOM     14  N   LIG    1       -1.273   2.537  -3.078  0.00  0.00    -0.290 N 
ATOM     15  C   LIG    1       -0.243   2.301  -2.231  0.00  0.00    +0.170 A 
ATOM     16  C   LIG    1       -0.759   1.593  -1.199  0.00  0.00    -0.040 A 
ATOM     17  N   LIG    1       -2.060   1.429  -1.463  0.00  0.00    -0.260 NA
ATOM     18  N   LIG    1       -2.334   2.004  -2.581  0.00  0.00    -0.080 NA
BRANCH  16  19
ATOM     19  C   LIG    1       -0.013   1.086   0.008  0.00  0.00    +0.270 C 
ATOM     20  C   LIG    1       -0.692   1.593   1.298  0.00  0.00    +0.030 C 
ATOM     21  C   LIG    1        0.525   1.919   2.206  0.00  0.00    +0.010 C 
ATOM     22  C   LIG    1        1.552   2.412   1.155  0.00  0.00    +0.200 C 
ATOM     23  O   LIG    1        1.328   1.590  -0.002  0.00  0.00    -0.370 OA
ENDBRANCH  16  19
ENDBRANCH   8  14
BRANCH   2  24
ATOM     24  C   LIG    1       -3.843   7.687  -9.035  0.00  0.00    +0.220 C 
BRANCH  24  25
ATOM     25  O   LIG    1       -4.584   8.788  -9.566  0.00  0.00    -0.550 OA
ATOM     26  H   LIG    1       -5.251   8.534 -10.218  0.00  0.00    +0.390 HD
ENDBRANCH  24  25
ENDBRANCH   2  24
TORSDOF 4
