REMARK  Name = ZINCpk0000058q11.0
REMARK                            x       y       z     vdW  Elec       q    Type
REMARK                         _______ _______ _______ _____ _____    ______ ____
ROOT
ATOM      1  C   LIG    1        0.002  -0.004   0.002  0.00  0.00    +0.230 C 
ATOM      2  C   LIG    1       -1.429  -0.533  -0.113  0.00  0.00    +0.040 C 
ENDROOT
BRANCH   1   4
ATOM      3  C   LIG    1        1.373  -1.690  -1.100  0.00  0.00    +0.560 C 
ATOM      4  N   LIG    1        0.790  -0.475  -1.139  0.00  0.00    -0.730 N 
ATOM      5  H   LIG    1        0.892   0.086  -1.924  0.00  0.00    +0.400 HD
ATOM      6  O   LIG    1        1.246  -2.394  -0.118  0.00  0.00    -0.530 OA
BRANCH   3  10
ATOM      7  C   LIG    1        3.657  -3.057  -4.410  0.00  0.00    -0.050 A 
ATOM      8  C   LIG    1        3.514  -3.861  -3.293  0.00  0.00    +0.000 A 
ATOM      9  C   LIG    1        2.774  -3.423  -2.215  0.00  0.00    +0.090 A 
ATOM     10  C   LIG    1        2.168  -2.166  -2.252  0.00  0.00    -0.150 A 
ATOM     11  C   LIG    1        2.312  -1.362  -3.384  0.00  0.00    +0.040 A 
ATOM     12  C   LIG    1        3.060  -1.810  -4.454  0.00  0.00    +0.000 A 
BRANCH   7  14
ATOM     13  C   LIG    1        3.558  -4.294  -6.557  0.00  0.00    +0.030 C 
ATOM     14  C   LIG    1        4.468  -3.542  -5.584  0.00  0.00    +0.070 C 
ENDBRANCH   7  14
ENDBRANCH   3  10
ENDBRANCH   1   4
BRANCH   1  15
ATOM     15  C   LIG    1       -0.019   1.526   0.010  0.00  0.00    +0.280 C 
BRANCH  15  16
ATOM     16  N   LIG    1        1.356   2.033   0.000  0.00  0.00    -0.730 N 
ATOM     17  H   LIG    1        2.102   1.413  -0.010  0.00  0.00    +0.400 HD
ATOM     18  C   LIG    1        1.584   3.361   0.005  0.00  0.00    +0.500 C 
ATOM     19  O   LIG    1        0.652   4.137   0.018  0.00  0.00    -0.520 OA
BRANCH  18  20
ATOM     20  C   LIG    1        2.998   3.883  -0.006  0.00  0.00    +0.230 C 
ATOM     21  C   LIG    1        3.576   3.805   1.408  0.00  0.00    +0.040 C 
ATOM     22  C   LIG    1        4.923   4.535   1.429  0.00  0.00    +0.050 C 
ATOM     23  C   LIG    1        4.662   6.029   1.221  0.00  0.00    +0.070 C 
ATOM     24  C   LIG    1        3.752   6.230   0.044  0.00  0.00    +0.520 C 
ATOM     25  O   LIG    1        3.700   7.332  -0.459  0.00  0.00    -0.550 OA
ATOM     26  N   LIG    1        2.999   5.262  -0.478  0.00  0.00    -0.590 N 
ATOM     27  C   LIG    1        2.117   5.605  -1.597  0.00  0.00    +0.290 C 
ENDBRANCH  18  20
ENDBRANCH  15  16
ENDBRANCH   1  15
TORSDOF 6
