REMARK  Name = ZINCqH0000003RlD.0
REMARK                            x       y       z     vdW  Elec       q    Type
REMARK                         _______ _______ _______ _____ _____    ______ ____
ROOT
ATOM      1  N   LIG    1        3.402  -2.028   0.500  0.00  0.00    -1.100 NA
ATOM      2  H   LIG    1        3.201  -2.750  -0.116  0.00  0.00    +0.420 HD
ENDROOT
BRANCH   1   3
ATOM      3  S   LIG    1        3.547  -2.337   2.120  0.00  0.00    +2.620 S 
ATOM      4  O   LIG    1        4.804  -1.776   2.473  0.00  0.00    -0.930 OA
ATOM      5  O   LIG    1        3.309  -3.733   2.233  0.00  0.00    -0.940 OA
BRANCH   3   6
ATOM      6  C   LIG    1        2.195  -1.397   2.882  0.00  0.00    -0.250 C 
BRANCH   6   7
ATOM      7  C   LIG    1        2.221  -1.600   4.375  0.00  0.00    +0.130 A 
ATOM      8  N   LIG    1        2.866  -0.876   5.237  0.00  0.00    -0.260 NA
ATOM      9  O   LIG    1        2.646  -1.377   6.541  0.00  0.00    -0.080 OA
ATOM     10  C   LIG    1        1.833  -2.451   6.475  0.00  0.00    +0.090 A 
ATOM     11  C   LIG    1        1.304  -3.309   7.431  0.00  0.00    +0.020 A 
ATOM     12  C   LIG    1        0.470  -4.335   7.044  0.00  0.00    +0.100 A 
ATOM     13  C   LIG    1        0.163  -4.529   5.705  0.00  0.00    +0.000 A 
ATOM     14  C   LIG    1        0.677  -3.699   4.748  0.00  0.00    +0.110 A 
ATOM     15  C   LIG    1        1.517  -2.648   5.121  0.00  0.00    -0.200 A 
ENDBRANCH   6   7
ENDBRANCH   3   6
ENDBRANCH   1   3
BRANCH   1  16
ATOM     16  C   LIG    1        3.580  -0.664  -0.004  0.00  0.00    +0.310 C 
BRANCH  16  22
ATOM     17  C   LIG    1        2.123   1.377  -0.069  0.00  0.00    +0.140 A 
ATOM     18  C   LIG    1        0.882   1.981  -0.206  0.00  0.00    -0.080 A 
ATOM     19  C   LIG    1       -0.241   1.208  -0.425  0.00  0.00    +0.060 A 
ATOM     20  C   LIG    1       -0.129  -0.168  -0.508  0.00  0.00    -0.030 A 
ATOM     21  C   LIG    1        1.107  -0.773  -0.372  0.00  0.00    +0.060 A 
ATOM     22  C   LIG    1        2.233  -0.004  -0.152  0.00  0.00    -0.150 A 
BRANCH  17  23
ATOM     23  O   LIG    1        3.230   2.136   0.147  0.00  0.00    -0.310 OA
BRANCH  23  25
ATOM     24  C   LIG    1        4.390   4.232   0.468  0.00  0.00    +0.070 C 
ATOM     25  C   LIG    1        3.042   3.550   0.222  0.00  0.00    +0.170 C 
ENDBRANCH  23  25
ENDBRANCH  17  23
ENDBRANCH  16  22
BRANCH  16  26
ATOM     26  C   LIG    1        4.277  -0.710  -1.365  0.00  0.00    +0.040 C 
ATOM     27  C   LIG    1        5.694  -1.262  -1.194  0.00  0.00    +0.020 C 
ENDBRANCH  16  26
ENDBRANCH   1  16
TORSDOF 8
