REMARK  Name = ZINCnE00000hdang.1
REMARK                            x       y       z     vdW  Elec       q    Type
REMARK                         _______ _______ _______ _____ _____    ______ ____
ROOT
ATOM      1  N   LIG    1        2.558  -1.126  -0.028  0.00  0.00    -0.650 NA
ATOM      2  C   LIG    1        1.991  -2.349  -0.029  0.00  0.00    +0.470 C 
ATOM      3  O   LIG    1        0.783  -2.458  -0.019  0.00  0.00    -0.580 OA
ENDROOT
BRANCH   1  10
ATOM      4  C   LIG    1       -1.988   4.989   0.048  0.00  0.00    +0.080 C 
ATOM      5  C   LIG    1       -0.837   4.016   0.032  0.00  0.00    -0.130 A 
ATOM      6  C   LIG    1        0.468   4.485   0.021  0.00  0.00    +0.010 A 
ATOM      7  C   LIG    1        1.525   3.610   0.007  0.00  0.00    -0.080 A 
ATOM      8  C   LIG    1        1.299   2.217   0.002  0.00  0.00    +0.140 A 
ATOM      9  N   LIG    1        2.201   1.216  -0.012  0.00  0.00    -0.560 NA
ATOM     10  C   LIG    1        1.760   0.006  -0.015  0.00  0.00    +0.410 A 
ATOM     11  S   LIG    1        0.002  -0.004   0.002  0.00  0.00    -0.030 S 
ATOM     12  C   LIG    1       -0.022   1.758   0.012  0.00  0.00    -0.230 A 
ATOM     13  C   LIG    1        2.935   4.140  -0.004  0.00  0.00    +0.080 C 
ATOM     14  C   LIG    1       -1.082   2.660   0.032  0.00  0.00    +0.050 A 
ENDBRANCH   1  10
BRANCH   2  15
ATOM     15  C   LIG    1        2.859  -3.581  -0.044  0.00  0.00    +0.120 C 
BRANCH  15  16
ATOM     16  S   LIG    1        1.809  -5.061  -0.042  0.00  0.00    -0.160 S 
BRANCH  16  17
ATOM     17  C   LIG    1        3.013  -6.417  -0.060  0.00  0.00    +0.190 C 
BRANCH  17  18
ATOM     18  C   LIG    1        2.285  -7.736  -0.060  0.00  0.00    +0.200 A 
ATOM     19  N   LIG    1        1.904  -8.404  -1.108  0.00  0.00    -0.370 NA
ATOM     20  O   LIG    1        1.344  -9.426  -0.773  0.00  0.00    +0.080 OA
ATOM     21  C   LIG    1        1.314  -9.510   0.561  0.00  0.00    +0.170 A 
ATOM     22  C   LIG    1        0.709 -10.624   1.376  0.00  0.00    +0.240 C 
ATOM     23  N   LIG    1        1.915  -8.441   1.024  0.00  0.00    -0.470 NA
ENDBRANCH  17  18
ENDBRANCH  16  17
ENDBRANCH  15  16
ENDBRANCH   2  15
TORSDOF 5
