REMARK  Name = ZINCrD000000CqhF.0
REMARK                            x       y       z     vdW  Elec       q    Type
REMARK                         _______ _______ _______ _____ _____    ______ ____
ROOT
ATOM      1  C   LIG    1       -0.978   1.658   1.391  0.00  0.00    +0.040 C 
ATOM      2  C   LIG    1       -0.161   1.054   0.225  0.00  0.00    +0.090 C 
ATOM      3  C   LIG    1       -0.860   1.555  -1.020  0.00  0.00    +0.520 C 
ATOM      4  N   LIG    1       -2.086   2.013  -0.710  0.00  0.00    -0.610 N 
ATOM      5  O   LIG    1       -0.384   1.546  -2.135  0.00  0.00    -0.520 OA
ATOM      6  C   LIG    1       -2.359   1.873   0.726  0.00  0.00    +0.300 C 
ENDROOT
BRANCH   1   8
ATOM      7  O   LIG    1       -2.155   0.284   2.900  0.00  0.00    -0.490 OA
ATOM      8  C   LIG    1       -1.075   0.689   2.540  0.00  0.00    +0.480 C 
BRANCH   8   9
ATOM      9  O   LIG    1        0.039   0.275   3.165  0.00  0.00    -0.350 OA
BRANCH   9  10
ATOM     10  C   LIG    1       -0.130  -0.659   4.264  0.00  0.00    +0.280 C 
BRANCH  10  11
ATOM     11  C   LIG    1        1.219  -1.009   4.838  0.00  0.00    -0.050 A 
ATOM     12  C   LIG    1        1.923  -2.088   4.340  0.00  0.00    +0.060 A 
ATOM     13  C   LIG    1        3.163  -2.406   4.864  0.00  0.00    +0.100 A 
ATOM     14  C   LIG    1        3.693  -1.649   5.892  0.00  0.00    -0.030 A 
ATOM     15  C   LIG    1        2.986  -0.573   6.394  0.00  0.00    +0.100 A 
ATOM     16  C   LIG    1        1.748  -0.253   5.867  0.00  0.00    +0.060 A 
BRANCH  14  17
ATOM     17  N   LIG    1        5.018  -1.992   6.456  0.00  0.00    +0.020 N 
ATOM     18  O   LIG    1        5.641  -2.941   6.014  0.00  0.00    -0.150 OA
ATOM     19  O   LIG    1        5.485  -1.325   7.362  0.00  0.00    -0.150 OA
ENDBRANCH  14  17
ENDBRANCH  10  11
ENDBRANCH   9  10
ENDBRANCH   8   9
ENDBRANCH   1   8
BRANCH   4  20
ATOM     20  C   LIG    1       -3.027   2.578  -1.679  0.00  0.00    +0.370 C 
BRANCH  20  21
ATOM     21  C   LIG    1       -3.800   1.464  -2.338  0.00  0.00    -0.110 A 
ATOM     22  C   LIG    1       -3.426   1.008  -3.587  0.00  0.00    +0.060 A 
ATOM     23  C   LIG    1       -4.135  -0.014  -4.191  0.00  0.00    +0.010 A 
ATOM     24  C   LIG    1       -5.218  -0.580  -3.546  0.00  0.00    +0.030 A 
ATOM     25  C   LIG    1       -5.593  -0.124  -2.296  0.00  0.00    +0.020 A 
ATOM     26  C   LIG    1       -4.880   0.894  -1.688  0.00  0.00    -0.020 A 
ATOM     27 CL   LIG    1       -5.346   1.461  -0.115  0.00  0.00    -0.070 Cl
ENDBRANCH  20  21
ENDBRANCH   4  20
TORSDOF 7
