REMARK  Name = ZINCrg00000SjSEj.0
REMARK                            x       y       z     vdW  Elec       q    Type
REMARK                         _______ _______ _______ _____ _____    ______ ____
ROOT
ATOM      1  N   LIG    1       -1.364  -7.285  -2.453  0.00  0.00    -0.520 N 
ATOM      2  C   LIG    1       -1.384  -6.746  -3.818  0.00  0.00    +0.330 C 
ATOM      3  C   LIG    1       -1.403  -5.220  -3.624  0.00  0.00    +0.320 C 
ATOM      4  N   LIG    1       -1.392  -5.034  -2.167  0.00  0.00    -0.450 N 
ATOM      5  C   LIG    1       -1.396  -4.063  -1.175  0.00  0.00    -0.150 A 
ATOM      6  C   LIG    1       -1.421  -2.657  -1.173  0.00  0.00    +0.600 A 
ATOM      7  N   LIG    1       -1.413  -1.998   0.005  0.00  0.00    -0.550 N 
ATOM      8  C   LIG    1       -1.393  -2.667   1.171  0.00  0.00    +0.710 A 
ATOM      9  N   LIG    1       -1.375  -4.012   1.214  0.00  0.00    -0.510 N 
ATOM     10  C   LIG    1       -1.353  -4.703   2.505  0.00  0.00    +0.340 C 
ATOM     11  O   LIG    1       -1.392  -2.041   2.213  0.00  0.00    -0.530 OA
ATOM     12  O   LIG    1       -1.445  -2.040  -2.224  0.00  0.00    -0.520 OA
ATOM     13  C   LIG    1       -1.375  -4.744   0.037  0.00  0.00    +0.360 A 
ATOM     14  N   LIG    1       -1.360  -6.047  -0.237  0.00  0.00    -0.510 NA
ATOM     15  C   LIG    1       -1.370  -6.240  -1.552  0.00  0.00    +0.520 A 
ENDROOT
BRANCH   1  20
ATOM     16  C   LIG    1       -1.276 -12.791  -1.095  0.00  0.00    +0.090 C 
ATOM     17  C   LIG    1       -1.299 -11.328  -1.456  0.00  0.00    -0.110 A 
ATOM     18  C   LIG    1       -1.317 -10.945  -2.784  0.00  0.00    +0.050 A 
ATOM     19  C   LIG    1       -1.344  -9.605  -3.119  0.00  0.00    -0.030 A 
ATOM     20  C   LIG    1       -1.342  -8.642  -2.118  0.00  0.00    +0.180 A 
ATOM     21  C   LIG    1       -1.324  -9.030  -0.784  0.00  0.00    +0.000 A 
ATOM     22  C   LIG    1       -1.303 -10.371  -0.457  0.00  0.00    -0.050 A 
ATOM     23  C   LIG    1       -1.284 -10.793   0.989  0.00  0.00    +0.090 C 
ENDBRANCH   1  20
BRANCH   7  24
ATOM     24  C   LIG    1       -1.433  -0.534   0.013  0.00  0.00    +0.330 C 
BRANCH  24  25
ATOM     25  C   LIG    1        0.002  -0.004   0.002  0.00  0.00    +0.020 C 
BRANCH  25  26
ATOM     26  C   LIG    1       -0.019   1.526   0.010  0.00  0.00    +0.180 C 
BRANCH  26  27
ATOM     27  O   LIG    1        1.322   2.020   0.000  0.00  0.00    -0.570 OA
ATOM     28  H   LIG    1        1.385   2.985   0.005  0.00  0.00    +0.380 HD
ENDBRANCH  26  27
ENDBRANCH  25  26
ENDBRANCH  24  25
ENDBRANCH   7  24
TORSDOF 5
