REMARK  Name = ZINCrH000004tecR.0
REMARK                            x       y       z     vdW  Elec       q    Type
REMARK                         _______ _______ _______ _____ _____    ______ ____
ROOT
ATOM      1  C   LIG    1        1.265  -0.440  -0.012  0.00  0.00    +0.210 A 
ATOM      2  N   LIG    1        2.035   0.622  -0.014  0.00  0.00    -0.460 NA
ATOM      3  C   LIG    1        1.198   1.675  -0.000  0.00  0.00    +0.170 A 
ATOM      4  N   LIG    1       -0.014   1.209   0.009  0.00  0.00    -0.350 NA
ATOM      5  O   LIG    1        0.002  -0.004   0.002  0.00  0.00    +0.090 OA
ENDROOT
BRANCH   3   6
ATOM      6  C   LIG    1        1.595   3.129   0.004  0.00  0.00    +0.290 C 
ATOM      7  C   LIG    1        1.351   3.731  -1.381  0.00  0.00    +0.170 C 
ATOM      8  N   LIG    1        1.672   5.166  -1.359  0.00  0.00    -0.530 NA
ATOM      9  C   LIG    1        1.476   5.748  -2.695  0.00  0.00    +0.170 C 
ATOM     10  C   LIG    1        1.924   7.210  -2.694  0.00  0.00    +0.020 C 
ATOM     11  C   LIG    1        1.101   7.986  -1.662  0.00  0.00    +0.010 C 
ATOM     12  C   LIG    1        1.292   7.341  -0.287  0.00  0.00    +0.040 C 
ATOM     13  C   LIG    1        0.871   5.870  -0.348  0.00  0.00    +0.100 C 
ATOM     14  C   LIG    1        1.104   5.234   1.026  0.00  0.00    +0.250 C 
ATOM     15  O   LIG    1        0.808   3.837   0.966  0.00  0.00    -0.370 OA
ENDBRANCH   3   6
BRANCH   1  16
ATOM     16  C   LIG    1        1.719  -1.877  -0.025  0.00  0.00    +0.040 C 
ATOM     17  C   LIG    1        2.104  -2.389  -1.423  0.00  0.00    +0.070 C 
ATOM     18  C   LIG    1        0.628  -2.797  -1.591  0.00  0.00    +0.030 C 
ATOM     19  C   LIG    1        0.561  -2.888  -0.057  0.00  0.00    +0.080 C 
BRANCH  16  24
ATOM     20  F   LIG    1        5.570  -2.985   3.922  0.00  0.00    -0.130 F 
ATOM     21  C   LIG    1        4.645  -2.720   2.974  0.00  0.00    +0.140 A 
ATOM     22  C   LIG    1        3.979  -1.507   2.976  0.00  0.00    -0.010 A 
ATOM     23  C   LIG    1        3.033  -1.235   2.006  0.00  0.00    +0.090 A 
ATOM     24  C   LIG    1        2.751  -2.174   1.032  0.00  0.00    -0.110 A 
ATOM     25  C   LIG    1        3.412  -3.391   1.031  0.00  0.00    +0.140 A 
ATOM     26  F   LIG    1        3.133  -4.311   0.082  0.00  0.00    -0.120 F 
ATOM     27  C   LIG    1        4.363  -3.662   1.999  0.00  0.00    -0.040 A 
ENDBRANCH  16  24
ENDBRANCH   1  16
TORSDOF 3
