REMARK  Name = ZINCrH00000tj0yW.0
REMARK                            x       y       z     vdW  Elec       q    Type
REMARK                         _______ _______ _______ _____ _____    ______ ____
ROOT
ATOM      1  N   LIG    1       -5.455  -7.762  -2.659  0.00  0.00    -0.720 N 
ATOM      2  H   LIG    1       -4.680  -8.158  -3.087  0.00  0.00    +0.400 HD
ATOM      3  C   LIG    1       -5.350  -6.562  -2.054  0.00  0.00    +0.560 C 
ATOM      4  O   LIG    1       -6.321  -6.065  -1.518  0.00  0.00    -0.530 OA
ENDROOT
BRANCH   3   5
ATOM      5  C   LIG    1       -4.055  -5.849  -2.044  0.00  0.00    -0.120 A 
ATOM      6  C   LIG    1       -2.938  -6.418  -2.660  0.00  0.00    +0.030 A 
ATOM      7  C   LIG    1       -1.730  -5.751  -2.649  0.00  0.00    +0.040 A 
ATOM      8  C   LIG    1       -1.620  -4.520  -2.030  0.00  0.00    +0.010 A 
ATOM      9  C   LIG    1       -2.726  -3.946  -1.414  0.00  0.00    +0.140 A 
ATOM     10  C   LIG    1       -3.942  -4.610  -1.415  0.00  0.00    +0.090 A 
BRANCH   9  11
ATOM     11  N   LIG    1       -2.610  -2.699  -0.788  0.00  0.00    -0.670 N 
ATOM     12  H   LIG    1       -1.779  -2.450  -0.354  0.00  0.00    +0.410 HD
ATOM     13  C   LIG    1       -3.652  -1.845  -0.788  0.00  0.00    +0.540 C 
ATOM     14  O   LIG    1       -4.657  -2.115  -1.411  0.00  0.00    -0.510 OA
BRANCH  13  15
ATOM     15  C   LIG    1       -3.569  -0.555  -0.014  0.00  0.00    -0.070 C 
ATOM     16  C   LIG    1       -3.513   0.748  -0.816  0.00  0.00    +0.060 C 
ATOM     17  C   LIG    1       -4.786   0.372  -0.054  0.00  0.00    +0.000 C 
ATOM     18  C   LIG    1       -5.110   1.167   1.213  0.00  0.00    +0.060 C 
ENDBRANCH  13  15
ENDBRANCH   9  11
ENDBRANCH   3   5
BRANCH   1  19
ATOM     19  C   LIG    1       -6.738  -8.468  -2.669  0.00  0.00    +0.320 C 
BRANCH  19  23
ATOM     20  C   LIG    1       -6.310 -12.175  -4.748  0.00  0.00    -0.080 A 
ATOM     21  C   LIG    1       -6.089 -12.117  -3.385  0.00  0.00    +0.030 A 
ATOM     22  C   LIG    1       -6.227 -10.918  -2.712  0.00  0.00    +0.030 A 
ATOM     23  C   LIG    1       -6.587  -9.775  -3.402  0.00  0.00    -0.100 A 
ATOM     24  C   LIG    1       -6.813  -9.834  -4.765  0.00  0.00    +0.030 A 
ATOM     25  C   LIG    1       -6.669 -11.033  -5.438  0.00  0.00    +0.030 A 
BRANCH  20  26
ATOM     26  C   LIG    1       -6.159 -13.483  -5.481  0.00  0.00    +0.220 C 
BRANCH  26  27
ATOM     27  O   LIG    1       -7.411 -14.171  -5.490  0.00  0.00    -0.380 OA
BRANCH  27  29
ATOM     28  C   LIG    1       -8.764 -16.074  -6.113  0.00  0.00    +0.040 C 
ATOM     29  C   LIG    1       -7.377 -15.430  -6.165  0.00  0.00    +0.160 C 
ENDBRANCH  27  29
ENDBRANCH  26  27
ENDBRANCH  20  26
ENDBRANCH  19  23
ENDBRANCH   1  19
TORSDOF 8
