REMARK  Name = ZINCpk00000kOFlp.0
REMARK                            x       y       z     vdW  Elec       q    Type
REMARK                         _______ _______ _______ _____ _____    ______ ____
ROOT
ATOM      1  C   LIG    1       -0.528   2.350  -1.210  0.00  0.00    +0.600 C 
ATOM      2  N   LIG    1        0.776   2.208  -1.516  0.00  0.00    -0.590 N 
ATOM      3  C   LIG    1        1.195   1.340  -2.625  0.00  0.00    +0.270 C 
ATOM      4  C   LIG    1        2.045   2.165  -3.599  0.00  0.00    +0.300 C 
ATOM      5  N   LIG    1        3.075   2.881  -2.833  0.00  0.00    -1.000 NA
ATOM      6  C   LIG    1        2.657   3.749  -1.724  0.00  0.00    +0.300 C 
ATOM      7  C   LIG    1        1.806   2.925  -0.750  0.00  0.00    +0.160 C 
ATOM      8  C   LIG    1        2.695   1.918  -0.018  0.00  0.00    +0.040 C 
ATOM      9  C   LIG    1        1.137   3.856   0.263  0.00  0.00    +0.070 C 
ATOM     10  O   LIG    1       -0.858   2.998  -0.234  0.00  0.00    -0.510 OA
ENDROOT
BRANCH   1  13
ATOM     11  C   LIG    1       -2.946   3.795  -2.357  0.00  0.00    +0.160 C 
ATOM     12  C   LIG    1       -2.640   2.336  -2.581  0.00  0.00    +0.140 A 
ATOM     13  C   LIG    1       -1.552   1.722  -2.053  0.00  0.00    -0.300 A 
ATOM     14  S   LIG    1       -1.583   0.038  -2.569  0.00  0.00    +0.180 S 
ATOM     15  C   LIG    1       -3.038   0.316  -3.421  0.00  0.00    +0.070 A 
ATOM     16  N   LIG    1       -3.403   1.552  -3.300  0.00  0.00    -0.470 NA
BRANCH  15  17
ATOM     17  C   LIG    1       -3.787  -0.729  -4.208  0.00  0.00    +0.060 C 
ATOM     18  C   LIG    1       -3.898  -0.323  -5.699  0.00  0.00    +0.040 C 
ATOM     19  C   LIG    1       -5.337  -0.713  -6.090  0.00  0.00    +0.200 C 
ATOM     20  O   LIG    1       -5.942  -1.323  -4.938  0.00  0.00    -0.370 OA
ATOM     21  C   LIG    1       -5.274  -0.786  -3.776  0.00  0.00    +0.240 C 
ENDBRANCH  15  17
ENDBRANCH   1  13
BRANCH   5  22
ATOM     22  S   LIG    1        4.678   2.713  -3.214  0.00  0.00    +2.610 S 
ATOM     23  O   LIG    1        4.760   1.435  -3.830  0.00  0.00    -0.950 OA
ATOM     24  O   LIG    1        5.357   2.984  -1.996  0.00  0.00    -0.950 OA
ATOM     25  C   LIG    1        4.995   4.025  -4.426  0.00  0.00    -0.280 C 
ENDBRANCH   5  22
TORSDOF 3
