REMARK  Name = ZINCrD00000739Fv.0
REMARK                            x       y       z     vdW  Elec       q    Type
REMARK                         _______ _______ _______ _____ _____    ______ ____
ROOT
ATOM      1  C   LIG    1       -0.255   5.433   0.308  0.00  0.00    +0.010 C 
ATOM      2  C   LIG    1        0.426   6.061  -0.911  0.00  0.00    +0.030 C 
ATOM      3  C   LIG    1        1.842   5.493  -1.046  0.00  0.00    +0.050 C 
ATOM      4  C   LIG    1        1.765   3.969  -1.166  0.00  0.00    +0.190 C 
ATOM      5  N   LIG    1        1.107   3.416   0.025  0.00  0.00    -0.490 N 
ATOM      6  C   LIG    1       -0.271   3.911   0.148  0.00  0.00    +0.230 C 
ENDROOT
BRANCH   5   7
ATOM      7  C   LIG    1        1.137   2.026   0.010  0.00  0.00    +0.350 A 
ATOM      8  N   LIG    1        0.549   1.368  -0.977  0.00  0.00    -0.510 NA
ATOM      9  C   LIG    1        0.555   0.049  -1.029  0.00  0.00    +0.310 A 
ATOM     10  C   LIG    1        1.179  -0.695  -0.049  0.00  0.00    -0.030 A 
ATOM     11  C   LIG    1        1.808  -0.043   1.004  0.00  0.00    +0.130 A 
ATOM     12  C   LIG    1        1.785   1.340   1.032  0.00  0.00    -0.210 A 
BRANCH  12  13
ATOM     13  C   LIG    1        2.453   2.092   2.153  0.00  0.00    +0.530 C 
ATOM     14  F   LIG    1        1.521   2.933   2.771  0.00  0.00    -0.170 F 
ATOM     15  F   LIG    1        3.504   2.860   1.639  0.00  0.00    -0.170 F 
ATOM     16  F   LIG    1        2.955   1.183   3.091  0.00  0.00    -0.180 F 
ENDBRANCH  12  13
ENDBRANCH   5   7
BRANCH   1  19
ATOM     17  N   LIG    1       -1.900   7.262   0.561  0.00  0.00    -0.720 N 
ATOM     18  H   LIG    1       -1.157   7.883   0.599  0.00  0.00    +0.400 HD
ATOM     19  C   LIG    1       -1.669   5.942   0.414  0.00  0.00    +0.530 C 
ATOM     20  O   LIG    1       -2.599   5.165   0.367  0.00  0.00    -0.540 OA
BRANCH  17  26
ATOM     21  C   LIG    1       -3.282   9.089   1.418  0.00  0.00    +0.150 C 
ATOM     22  C   LIG    1       -4.718   9.606   1.526  0.00  0.00    +0.010 C 
ATOM     23  C   LIG    1       -5.293   9.811   0.123  0.00  0.00    +0.010 C 
ATOM     24  C   LIG    1       -5.286   8.480  -0.631  0.00  0.00    +0.020 C 
ATOM     25  C   LIG    1       -3.850   7.962  -0.739  0.00  0.00    +0.010 C 
ATOM     26  C   LIG    1       -3.275   7.757   0.664  0.00  0.00    +0.250 C 
BRANCH  21  28
ATOM     27  C   LIG    1       -2.084  10.048   3.259  0.00  0.00    +0.200 C 
ATOM     28  O   LIG    1       -2.745   8.897   2.728  0.00  0.00    -0.380 OA
ENDBRANCH  21  28
ENDBRANCH  17  26
ENDBRANCH   1  19
TORSDOF 5
