REMARK  Name = ZINCpk00000KfLpJ.0
REMARK                            x       y       z     vdW  Elec       q    Type
REMARK                         _______ _______ _______ _____ _____    ______ ____
ROOT
ATOM      1  C   LIG    1       -0.415   6.930  -1.198  0.00  0.00    +0.520 C 
ATOM      2  N   LIG    1       -1.315   7.573  -1.968  0.00  0.00    -0.730 N 
ATOM      3  H   LIG    1       -1.621   7.170  -2.795  0.00  0.00    +0.400 HD
ATOM      4  O   LIG    1       -0.032   7.434  -0.163  0.00  0.00    -0.520 OA
ENDROOT
BRANCH   1   5
ATOM      5  C   LIG    1        0.115   5.584  -1.622  0.00  0.00    +0.110 C 
ATOM      6  C   LIG    1       -1.045   4.594  -1.742  0.00  0.00    +0.070 C 
BRANCH   5   9
ATOM      7  C   LIG    1        3.058   4.545  -0.513  0.00  0.00    +0.260 C 
ATOM      8  C   LIG    1        1.794   3.903  -1.114  0.00  0.00    +0.190 C 
ATOM      9  N   LIG    1        1.073   5.098  -0.621  0.00  0.00    -0.450 NA
ATOM     10  C   LIG    1        2.323   5.890  -0.655  0.00  0.00    +0.190 C 
BRANCH   7  14
ATOM     11  C   LIG    1        6.021   3.692  -4.465  0.00  0.00    +0.110 C 
ATOM     12  C   LIG    1        5.538   4.058  -3.084  0.00  0.00    -0.240 A 
ATOM     13  C   LIG    1        4.255   4.032  -2.657  0.00  0.00    +0.220 A 
ATOM     14  N   LIG    1        4.242   4.427  -1.367  0.00  0.00    -0.360 N 
ATOM     15  N   LIG    1        5.562   4.705  -0.989  0.00  0.00    -0.290 NA
ATOM     16  C   LIG    1        6.338   4.484  -2.019  0.00  0.00    +0.230 A 
ENDBRANCH   7  14
ENDBRANCH   5   9
ENDBRANCH   1   5
BRANCH   2  17
ATOM     17  C   LIG    1       -1.830   8.881  -1.555  0.00  0.00    +0.330 C 
BRANCH  17  18
ATOM     18  C   LIG    1       -2.814   9.380  -2.582  0.00  0.00    -0.100 A 
ATOM     19  C   LIG    1       -2.373  10.151  -3.641  0.00  0.00    +0.050 A 
ATOM     20  C   LIG    1       -3.271  10.607  -4.589  0.00  0.00    +0.040 A 
ATOM     21  C   LIG    1       -4.617  10.301  -4.473  0.00  0.00    +0.040 A 
ATOM     22  O   LIG    1       -5.689  10.625  -5.253  0.00  0.00    -0.310 OA
ATOM     23  C   LIG    1       -6.848  10.389  -4.430  0.00  0.00    +0.440 C 
ATOM     24  O   LIG    1       -6.413   9.369  -3.512  0.00  0.00    -0.310 OA
ATOM     25  C   LIG    1       -5.062   9.528  -3.402  0.00  0.00    +0.030 A 
ATOM     26  C   LIG    1       -4.156   9.070  -2.460  0.00  0.00    +0.060 A 
ENDBRANCH  17  18
ENDBRANCH   2  17
TORSDOF 5
