REMARK  Name = ZINCqH00000081DC.0
REMARK                            x       y       z     vdW  Elec       q    Type
REMARK                         _______ _______ _______ _____ _____    ______ ____
ROOT
ATOM      1  C   LIG    1       -1.424  -2.870   1.738  0.00  0.00    +0.530 C 
ATOM      2  N   LIG    1       -1.006  -2.248   0.618  0.00  0.00    -0.610 N 
ATOM      3  C   LIG    1       -0.982  -2.957  -0.668  0.00  0.00    +0.280 C 
ATOM      4  C   LIG    1        0.421  -2.838  -1.272  0.00  0.00    +0.030 C 
ATOM      5  C   LIG    1        0.809  -1.360  -1.362  0.00  0.00    +0.000 C 
ATOM      6  C   LIG    1        0.834  -0.751   0.042  0.00  0.00    +0.180 C 
ATOM      7  C   LIG    1       -0.564  -0.847   0.661  0.00  0.00    +0.300 C 
ATOM      8  O   LIG    1       -1.873  -3.995   1.675  0.00  0.00    -0.520 OA
ENDROOT
BRANCH   1   9
ATOM      9  C   LIG    1       -1.334  -2.168   3.068  0.00  0.00    +0.060 C 
BRANCH   9  10
ATOM     10  C   LIG    1       -1.279  -3.191   4.173  0.00  0.00    -0.080 A 
ATOM     11  C   LIG    1       -2.321  -4.083   4.342  0.00  0.00    +0.040 A 
ATOM     12  C   LIG    1       -2.269  -5.025   5.352  0.00  0.00    +0.000 A 
ATOM     13  C   LIG    1       -1.179  -5.068   6.201  0.00  0.00    +0.010 A 
ATOM     14  C   LIG    1       -0.139  -4.172   6.036  0.00  0.00    +0.000 A 
ATOM     15  C   LIG    1       -0.189  -3.234   5.022  0.00  0.00    +0.020 A 
ENDBRANCH   9  10
BRANCH   9  16
ATOM     16  C   LIG    1       -2.563  -1.277   3.259  0.00  0.00    +0.100 C 
BRANCH  16  18
ATOM     17  C   LIG    1       -3.907   0.666   4.834  0.00  0.00    +0.130 C 
ATOM     18  S   LIG    1       -2.379  -0.310   4.783  0.00  0.00    -0.230 S 
ENDBRANCH  16  18
ENDBRANCH   9  16
ENDBRANCH   1   9
BRANCH   6  19
ATOM     19  O   LIG    1        1.227   0.620  -0.040  0.00  0.00    -0.290 OA
BRANCH  19  20
ATOM     20  C   LIG    1        2.555   0.887   0.047  0.00  0.00    +0.300 A 
ATOM     21  N   LIG    1        3.414  -0.106   0.200  0.00  0.00    -0.510 NA
ATOM     22  C   LIG    1        4.713   0.109   0.288  0.00  0.00    +0.300 A 
ATOM     23  C   LIG    1        5.226   1.389   0.224  0.00  0.00    -0.030 A 
ATOM     24  C   LIG    1        4.358   2.461   0.064  0.00  0.00    +0.090 A 
ATOM     25  C   LIG    1        3.000   2.203  -0.032  0.00  0.00    +0.030 A 
ATOM     26  F   LIG    1        2.120   3.215  -0.194  0.00  0.00    -0.120 F 
ENDBRANCH  19  20
ENDBRANCH   6  19
TORSDOF 6
