REMARK  Name = ZINCrg000000mRIU.0
REMARK                            x       y       z     vdW  Elec       q    Type
REMARK                         _______ _______ _______ _____ _____    ______ ____
ROOT
ATOM      1  S   LIG    1        0.141   1.272   0.160  0.00  0.00    +2.690 S 
ATOM      2  O   LIG    1       -0.573   1.942   1.190  0.00  0.00    -0.950 OA
ATOM      3  O   LIG    1       -0.339   1.159  -1.172  0.00  0.00    -0.960 OA
ENDROOT
BRANCH   1  10
ATOM      4  C   LIG    1        0.929  -4.047   4.328  0.00  0.00    +0.120 C 
ATOM      5  C   LIG    1        1.129  -4.891   3.096  0.00  0.00    +0.530 C 
ATOM      6  N   LIG    1        1.075  -4.323   1.875  0.00  0.00    -0.550 N 
ATOM      7  C   LIG    1        0.842  -2.966   1.631  0.00  0.00    +0.200 A 
ATOM      8  C   LIG    1        0.621  -1.929   2.539  0.00  0.00    -0.030 A 
ATOM      9  C   LIG    1        0.409  -0.644   2.088  0.00  0.00    +0.160 A 
ATOM     10  C   LIG    1        0.413  -0.372   0.732  0.00  0.00    -0.700 A 
ATOM     11  C   LIG    1        0.626  -1.395  -0.173  0.00  0.00    +0.170 A 
ATOM     12  C   LIG    1        0.844  -2.683   0.274  0.00  0.00    -0.150 A 
ATOM     13  C   LIG    1        1.103  -3.966  -0.484  0.00  0.00    +0.110 C 
ATOM     14  C   LIG    1        1.252  -5.038   0.608  0.00  0.00    +0.230 C 
ATOM     15  C   LIG    1        2.643  -5.672   0.546  0.00  0.00    +0.060 C 
ATOM     16  O   LIG    1        1.337  -6.081   3.203  0.00  0.00    -0.510 OA
ENDBRANCH   1  10
BRANCH   1  17
ATOM     17  N   LIG    1        1.621   2.008   0.062  0.00  0.00    -0.990 NA
ATOM     18  C   LIG    1        2.342   2.087  -1.217  0.00  0.00    +0.300 C 
ATOM     19  C   LIG    1        2.756   3.543  -1.454  0.00  0.00    +0.170 C 
ATOM     20  N   LIG    1        3.505   4.032  -0.288  0.00  0.00    -0.530 NA
ATOM     21  C   LIG    1        2.668   4.037   0.919  0.00  0.00    +0.200 C 
ATOM     22  C   LIG    1        2.247   2.606   1.252  0.00  0.00    +0.230 C 
ATOM     23  C   LIG    1        1.244   2.623   2.407  0.00  0.00    +0.060 C 
BRANCH  20  24
ATOM     24  C   LIG    1        4.067   5.364  -0.544  0.00  0.00    +0.190 C 
BRANCH  24  25
ATOM     25  C   LIG    1        2.931   6.377  -0.697  0.00  0.00    +0.160 C 
ATOM     26  C   LIG    1        3.509   7.739  -1.087  0.00  0.00    +0.010 C 
BRANCH  25  27
ATOM     27  O   LIG    1        2.228   6.495   0.541  0.00  0.00    -0.560 OA
ATOM     28  H   LIG    1        2.778   6.793   1.279  0.00  0.00    +0.370 HD
ENDBRANCH  25  27
ENDBRANCH  24  25
ENDBRANCH  20  24
ENDBRANCH   1  17
TORSDOF 5
