REMARK  Name = ZINCc70000002u1U.0
REMARK                            x       y       z     vdW  Elec       q    Type
REMARK                         _______ _______ _______ _____ _____    ______ ____
ROOT
ATOM      1  C   LIG    1       -1.354   1.233   3.620  0.00  0.00    +0.280 C 
ENDROOT
BRANCH   1   2
ATOM      2  C   LIG    1       -1.904   0.241   4.612  0.00  0.00    +0.440 C 
ATOM      3  O   LIG    1       -1.214  -0.147   5.525  0.00  0.00    -0.500 OA
BRANCH   2   4
ATOM      4  O   LIG    1       -3.161  -0.212   4.483  0.00  0.00    -0.350 OA
BRANCH   4   6
ATOM      5  C   LIG    1       -5.069  -1.564   5.164  0.00  0.00    +0.070 C 
ATOM      6  C   LIG    1       -3.624  -1.166   5.474  0.00  0.00    +0.200 C 
ENDBRANCH   4   6
ENDBRANCH   2   4
ENDBRANCH   1   2
BRANCH   1   7
ATOM      7  C   LIG    1       -1.268   0.580   2.240  0.00  0.00    -0.060 C 
ATOM      8  C   LIG    1       -2.664   0.136   1.797  0.00  0.00    +0.080 C 
BRANCH   7   9
ATOM      9  C   LIG    1       -0.718   1.572   1.248  0.00  0.00    +0.370 C 
ATOM     10  O   LIG    1       -0.843   2.756   1.447  0.00  0.00    -0.440 OA
ATOM     11  C   LIG    1       -0.013   1.086   0.008  0.00  0.00    +0.080 C 
ENDBRANCH   7   9
ENDBRANCH   1   7
BRANCH   1  12
ATOM     12  O   LIG    1       -0.051   1.647   4.034  0.00  0.00    -0.520 OA
ATOM     13  H   LIG    1        0.589   0.925   4.100  0.00  0.00    +0.380 HD
ENDBRANCH   1  12
TORSDOF 6
