REMARK  Name = ZINCqH0000007Qrt.1
REMARK                            x       y       z     vdW  Elec       q    Type
REMARK                         _______ _______ _______ _____ _____    ______ ____
ROOT
ATOM      1  C   LIG    1        2.443   0.662   0.066  0.00  0.00    +0.020 C 
ATOM      2  C   LIG    1        2.806   0.149  -1.329  0.00  0.00    +0.090 C 
ENDROOT
BRANCH   1   5
ATOM      3  N   LIG    1       -0.011   0.966   0.007  0.00  0.00    -0.650 N 
ATOM      4  H   LIG    1       -0.101   0.000   0.020  0.00  0.00    +0.420 HD
ATOM      5  C   LIG    1        1.213   1.529  -0.022  0.00  0.00    +0.540 C 
ATOM      6  O   LIG    1        1.325   2.733  -0.120  0.00  0.00    -0.510 OA
BRANCH   3  12
ATOM      7  C   LIG    1       -2.288   1.378   0.719  0.00  0.00    +0.110 A 
ATOM      8  C   LIG    1       -3.414   2.185   0.726  0.00  0.00    -0.060 A 
ATOM      9  C   LIG    1       -3.415   3.377   0.025  0.00  0.00    +0.040 A 
ATOM     10  C   LIG    1       -2.292   3.769  -0.680  0.00  0.00    -0.010 A 
ATOM     11  C   LIG    1       -1.163   2.972  -0.687  0.00  0.00    +0.070 A 
ATOM     12  C   LIG    1       -1.155   1.776   0.014  0.00  0.00    +0.110 A 
BRANCH   7  14
ATOM     13  C   LIG    1       -3.485  -0.140   2.104  0.00  0.00    +0.250 C 
ATOM     14  O   LIG    1       -2.288   0.203   1.404  0.00  0.00    -0.320 OA
ENDBRANCH   7  14
ENDBRANCH   3  12
ENDBRANCH   1   5
BRANCH   1  15
ATOM     15  S   LIG    1        3.819   1.634   0.728  0.00  0.00    +0.090 S 
BRANCH  15  16
ATOM     16  C   LIG    1        5.045   0.375   0.864  0.00  0.00    +0.250 A 
ATOM     17  N   LIG    1        4.891  -0.890   0.542  0.00  0.00    -0.530 NA
ATOM     18  C   LIG    1        6.031  -1.556   0.776  0.00  0.00    +0.270 A 
ATOM     19  N   LIG    1        6.924  -0.718   1.251  0.00  0.00    -0.280 NA
ATOM     20  N   LIG    1        6.309   0.543   1.312  0.00  0.00    -0.460 N 
ATOM     21  H   LIG    1        6.712   1.371   1.617  0.00  0.00    +0.450 HD
BRANCH  18  22
ATOM     22  C   LIG    1        6.249  -3.005   0.539  0.00  0.00    -0.050 A 
ATOM     23  C   LIG    1        5.217  -3.794   0.036  0.00  0.00    +0.090 A 
ATOM     24  C   LIG    1        5.426  -5.139  -0.189  0.00  0.00    +0.000 A 
ATOM     25  C   LIG    1        6.654  -5.709   0.095  0.00  0.00    +0.070 A 
ATOM     26  C   LIG    1        7.682  -4.934   0.600  0.00  0.00    -0.020 A 
ATOM     27  C   LIG    1        7.487  -3.583   0.824  0.00  0.00    +0.130 A 
ATOM     28  F   LIG    1        8.490  -2.826   1.318  0.00  0.00    -0.120 F 
ENDBRANCH  18  22
ENDBRANCH  15  16
ENDBRANCH   1  15
TORSDOF 6
