REMARK  Name = ZINCqH0000007Qrt.0
REMARK                            x       y       z     vdW  Elec       q    Type
REMARK                         _______ _______ _______ _____ _____    ______ ____
ROOT
ATOM      1  C   LIG    1        4.957  -2.734   0.154  0.00  0.00    +0.000 C 
ATOM      2  C   LIG    1        5.414  -2.772   1.614  0.00  0.00    +0.090 C 
ENDROOT
BRANCH   1   5
ATOM      3  N   LIG    1        3.622  -0.661  -0.037  0.00  0.00    -0.650 N 
ATOM      4  H   LIG    1        4.454  -0.167  -0.107  0.00  0.00    +0.420 HD
ATOM      5  C   LIG    1        3.642  -2.005   0.057  0.00  0.00    +0.540 C 
ATOM      6  O   LIG    1        2.601  -2.628   0.064  0.00  0.00    -0.500 OA
BRANCH   3  12
ATOM      7  C   LIG    1        2.302   1.276   0.571  0.00  0.00    +0.110 A 
ATOM      8  C   LIG    1        1.091   1.948   0.572  0.00  0.00    -0.060 A 
ATOM      9  C   LIG    1       -0.018   1.376  -0.025  0.00  0.00    +0.040 A 
ATOM     10  C   LIG    1        0.078   0.134  -0.624  0.00  0.00    -0.010 A 
ATOM     11  C   LIG    1        1.283  -0.543  -0.629  0.00  0.00    +0.070 A 
ATOM     12  C   LIG    1        2.399   0.023  -0.032  0.00  0.00    +0.110 A 
BRANCH   7  14
ATOM     13  C   LIG    1        3.219   3.122   1.756  0.00  0.00    +0.250 C 
ATOM     14  O   LIG    1        3.393   1.836   1.157  0.00  0.00    -0.320 OA
ENDBRANCH   7  14
ENDBRANCH   3  12
ENDBRANCH   1   5
BRANCH   1  15
ATOM     15  S   LIG    1        4.756  -4.429  -0.461  0.00  0.00    +0.110 S 
BRANCH  15  16
ATOM     16  C   LIG    1        6.398  -5.066  -0.412  0.00  0.00    +0.200 A 
ATOM     17  N   LIG    1        7.461  -4.404  -0.018  0.00  0.00    -0.310 NA
ATOM     18  N   LIG    1        8.554  -5.278  -0.133  0.00  0.00    -0.470 N 
ATOM     19  H   LIG    1        9.479  -5.084   0.084  0.00  0.00    +0.440 HD
ATOM     20  C   LIG    1        8.062  -6.442  -0.613  0.00  0.00    +0.340 A 
ATOM     21  N   LIG    1        6.762  -6.298  -0.775  0.00  0.00    -0.490 NA
BRANCH  20  22
ATOM     22  C   LIG    1        8.845  -7.663  -0.905  0.00  0.00    -0.080 A 
ATOM     23  C   LIG    1       10.224  -7.679  -0.692  0.00  0.00    +0.060 A 
ATOM     24  C   LIG    1       10.947  -8.822  -0.961  0.00  0.00    +0.010 A 
ATOM     25  C   LIG    1       10.312  -9.949  -1.451  0.00  0.00    +0.080 A 
ATOM     26  C   LIG    1        8.946  -9.941  -1.670  0.00  0.00    -0.010 A 
ATOM     27  C   LIG    1        8.208  -8.804  -1.400  0.00  0.00    +0.160 A 
ATOM     28  F   LIG    1        6.874  -8.796  -1.614  0.00  0.00    -0.110 F 
ENDBRANCH  20  22
ENDBRANCH  15  16
ENDBRANCH   1  15
TORSDOF 6
