REMARK  Name = ZINCvU0000000Fpq.0
REMARK                            x       y       z     vdW  Elec       q    Type
REMARK                         _______ _______ _______ _____ _____    ______ ____
ROOT
ATOM      1  C   LIG    1       -1.947   1.664   2.843  0.00  0.00    +0.130 A 
ATOM      2  C   LIG    1       -2.458   1.651   1.552  0.00  0.00    +0.080 A 
ATOM      3  C   LIG    1       -1.622   1.396   0.482  0.00  0.00    +0.020 A 
ATOM      4  C   LIG    1       -0.280   1.143   0.697  0.00  0.00    +0.010 A 
ATOM      5  C   LIG    1        0.233   1.155   1.981  0.00  0.00    -0.670 A 
ATOM      6  C   LIG    1        0.628   0.859  -0.472  0.00  0.00    +0.110 C 
ATOM      7  C   LIG    1       -0.597   1.415   3.054  0.00  0.00    +0.100 A 
ENDROOT
BRANCH   1   9
ATOM      8  C   LIG    1       -4.068   1.506   3.905  0.00  0.00    +0.550 C 
ATOM      9  N   LIG    1       -2.789   1.929   3.927  0.00  0.00    -0.670 N 
ATOM     10  H   LIG    1       -2.452   2.416   4.695  0.00  0.00    +0.420 HD
ATOM     11  O   LIG    1       -4.467   0.820   2.983  0.00  0.00    -0.520 OA
BRANCH   8  13
ATOM     12  C   LIG    1       -6.259   1.451   4.969  0.00  0.00    +0.140 C 
ATOM     13  C   LIG    1       -4.979   1.873   4.991  0.00  0.00    -0.080 C 
BRANCH  12  18
ATOM     14  C   LIG    1       -9.357   1.736   7.072  0.00  0.00    +0.130 A 
ATOM     15  C   LIG    1       -8.895   2.519   8.121  0.00  0.00    -0.060 A 
ATOM     16  C   LIG    1       -7.582   2.952   8.143  0.00  0.00    +0.050 A 
ATOM     17  C   LIG    1       -6.720   2.609   7.122  0.00  0.00    -0.010 A 
ATOM     18  C   LIG    1       -7.175   1.820   6.061  0.00  0.00    -0.040 A 
ATOM     19  C   LIG    1       -8.504   1.388   6.038  0.00  0.00    +0.020 A 
BRANCH  14  21
ATOM     20  C   LIG    1      -11.475   1.715   8.151  0.00  0.00    +0.250 C 
ATOM     21  O   LIG    1      -10.649   1.314   7.056  0.00  0.00    -0.320 OA
ENDBRANCH  14  21
ENDBRANCH  12  18
ENDBRANCH   8  13
ENDBRANCH   1   9
BRANCH   5  22
ATOM     22  S   LIG    1        1.945   0.838   2.249  0.00  0.00    +2.690 S 
ATOM     23  O   LIG    1        2.259  -0.329   1.502  0.00  0.00    -0.940 OA
ATOM     24  O   LIG    1        2.159   0.946   3.649  0.00  0.00    -0.940 OA
BRANCH  22  25
ATOM     25  N   LIG    1        2.788   2.081   1.550  0.00  0.00    -1.060 N 
ATOM     26  H   LIG    1        3.348   1.912   0.776  0.00  0.00    +0.430 HD
BRANCH  25  27
ATOM     27  C   LIG    1        2.693   3.371   2.075  0.00  0.00    +0.170 A 
ATOM     28  C   LIG    1        1.451   3.899   2.403  0.00  0.00    -0.020 A 
ATOM     29  C   LIG    1        1.359   5.174   2.927  0.00  0.00    +0.070 A 
ATOM     30  C   LIG    1        2.502   5.929   3.115  0.00  0.00    +0.020 A 
ATOM     31  C   LIG    1        3.741   5.409   2.784  0.00  0.00    -0.010 A 
ATOM     32 CL   LIG    1        5.173   6.361   3.022  0.00  0.00    -0.060 Cl
ATOM     33  C   LIG    1        3.840   4.132   2.265  0.00  0.00    +0.020 A 
ENDBRANCH  25  27
ENDBRANCH  22  25
ENDBRANCH   5  22
TORSDOF 7
