REMARK  Name = ZINCqH0000004GjE.0
REMARK                            x       y       z     vdW  Elec       q    Type
REMARK                         _______ _______ _______ _____ _____    ______ ____
ROOT
ATOM      1  N   LIG    1        1.143   1.901   0.001  0.00  0.00    -0.720 N 
ATOM      2  H   LIG    1        1.130   2.871   0.007  0.00  0.00    +0.400 HD
ATOM      3  C   LIG    1       -0.014   1.211   0.009  0.00  0.00    +0.550 C 
ATOM      4  O   LIG    1        0.002  -0.004   0.002  0.00  0.00    -0.490 OA
ENDROOT
BRANCH   3   5
ATOM      5  C   LIG    1       -1.304   1.933   0.019  0.00  0.00    -0.130 A 
ATOM      6  C   LIG    1       -1.327   3.328   0.032  0.00  0.00    +0.170 A 
ATOM      7  C   LIG    1       -2.534   3.996   0.036  0.00  0.00    -0.680 A 
ATOM      8  C   LIG    1       -3.721   3.285   0.037  0.00  0.00    +0.170 A 
ATOM      9  C   LIG    1       -3.707   1.902   0.030  0.00  0.00    +0.030 A 
ATOM     10  C   LIG    1       -2.506   1.221   0.021  0.00  0.00    +0.010 A 
ATOM     11 BR   LIG    1       -2.489  -0.670   0.011  0.00  0.00    +0.010 Br
BRANCH   7  12
ATOM     12  S   LIG    1       -2.564   5.758   0.045  0.00  0.00    +2.700 S 
ATOM     13  O   LIG    1       -3.823   6.140  -0.491  0.00  0.00    -0.950 OA
ATOM     14  O   LIG    1       -1.324   6.183  -0.503  0.00  0.00    -0.950 OA
BRANCH  12  15
ATOM     15  N   LIG    1       -2.565   6.239   1.630  0.00  0.00    -1.250 NA
ATOM     16  H   LIG    1       -2.973   5.677   2.307  0.00  0.00    +0.420 HD
ATOM     17  H   LIG    1       -2.159   7.083   1.880  0.00  0.00    +0.420 HD
ENDBRANCH  12  15
ENDBRANCH   7  12
ENDBRANCH   3   5
BRANCH   1  18
ATOM     18  C   LIG    1        2.422   1.186  -0.015  0.00  0.00    +0.290 C 
BRANCH  18  22
ATOM     19  C   LIG    1        5.430   3.686  -1.733  0.00  0.00    -0.080 A 
ATOM     20  C   LIG    1        5.399   2.337  -2.032  0.00  0.00    +0.010 A 
ATOM     21  C   LIG    1        4.425   1.528  -1.476  0.00  0.00    +0.020 A 
ATOM     22  C   LIG    1        3.483   2.068  -0.621  0.00  0.00    -0.100 A 
ATOM     23  C   LIG    1        3.511   3.418  -0.325  0.00  0.00    +0.010 A 
ATOM     24  C   LIG    1        4.488   4.226  -0.878  0.00  0.00    +0.010 A 
BRANCH  19  26
ATOM     25  C   LIG    1        5.986   5.135  -3.667  0.00  0.00    +0.030 C 
ATOM     26  C   LIG    1        6.491   4.567  -2.339  0.00  0.00    +0.050 C 
ENDBRANCH  19  26
ENDBRANCH  18  22
BRANCH  18  27
ATOM     27  C   LIG    1        2.819   0.820   1.417  0.00  0.00    -0.030 C 
ATOM     28  C   LIG    1        4.155   0.073   1.400  0.00  0.00    +0.030 C 
ATOM     29  C   LIG    1        1.742  -0.076   2.032  0.00  0.00    +0.030 C 
ENDBRANCH  18  27
ENDBRANCH   1  18
TORSDOF 7
