REMARK  Name = ZINCrg00000SjSEC.0
REMARK                            x       y       z     vdW  Elec       q    Type
REMARK                         _______ _______ _______ _____ _____    ______ ____
ROOT
ATOM      1  C   LIG    1       -3.317   1.398   1.342  0.00  0.00    +0.540 C 
ATOM      2  N   LIG    1       -2.108   1.557   0.768  0.00  0.00    -0.610 N 
ATOM      3  C   LIG    1       -0.768   1.437   1.399  0.00  0.00    +0.250 C 
ATOM      4  C   LIG    1        0.076   0.678   0.350  0.00  0.00    +0.030 C 
ATOM      5  C   LIG    1       -0.605   0.981  -1.001  0.00  0.00    +0.030 C 
ATOM      6  C   LIG    1       -0.198   2.857   1.526  0.00  0.00    +0.040 C 
ATOM      7  C   LIG    1        0.005   3.439   0.124  0.00  0.00    -0.010 C 
ATOM      8  C   LIG    1       -1.304   3.349  -0.666  0.00  0.00    +0.030 C 
ATOM      9  C   LIG    1       -1.800   1.895  -0.643  0.00  0.00    +0.230 C 
ATOM     10  O   LIG    1       -3.398   1.162   2.529  0.00  0.00    -0.510 OA
ENDROOT
BRANCH   1  11
ATOM     11  C   LIG    1       -4.567   1.512   0.509  0.00  0.00    +0.170 C 
ATOM     12  C   LIG    1       -4.668   2.925  -0.069  0.00  0.00    +0.040 C 
BRANCH  11  13
ATOM     13  O   LIG    1       -5.710   1.250   1.326  0.00  0.00    -0.350 OA
BRANCH  13  14
ATOM     14  C   LIG    1       -6.810   0.673   0.620  0.00  0.00    +0.210 C 
BRANCH  14  16
ATOM     15  C   LIG    1       -9.172   0.774   1.229  0.00  0.00    +0.030 C 
ATOM     16  C   LIG    1       -7.953   0.441   1.574  0.00  0.00    -0.030 C 
ENDBRANCH  14  16
ENDBRANCH  13  14
ENDBRANCH  11  13
ENDBRANCH   1  11
BRANCH   7  17
ATOM     17  C   LIG    1        1.094   2.647  -0.603  0.00  0.00    +0.260 C 
BRANCH  17  18
ATOM     18  N   LIG    1        1.296   3.209  -1.941  0.00  0.00    -0.720 N 
ATOM     19  H   LIG    1        0.769   3.970  -2.232  0.00  0.00    +0.400 HD
ATOM     20  C   LIG    1        2.212   2.668  -2.768  0.00  0.00    +0.540 C 
ATOM     21  O   LIG    1        2.871   1.717  -2.404  0.00  0.00    -0.510 OA
BRANCH  20  22
ATOM     22  C   LIG    1        2.420   3.246  -4.144  0.00  0.00    -0.440 C 
ATOM     23  C   LIG    1        3.880   3.043  -4.596  0.00  0.00    +0.100 C 
ATOM     24  C   LIG    1        3.900   2.834  -6.120  0.00  0.00    +0.080 C 
ATOM     25  C   LIG    1        2.796   1.794  -6.440  0.00  0.00    -0.300 C 
ATOM     26  S   LIG    1        1.411   2.340  -5.372  0.00  0.00    +2.390 S 
ATOM     27  O   LIG    1        0.599   3.262  -6.087  0.00  0.00    -0.920 OA
ATOM     28  O   LIG    1        0.819   1.207  -4.751  0.00  0.00    -0.920 OA
ENDBRANCH  20  22
ENDBRANCH  17  18
ENDBRANCH   7  17
TORSDOF 7
