REMARK  Name = ZINCpk00000ebOD8.0
REMARK                            x       y       z     vdW  Elec       q    Type
REMARK                         _______ _______ _______ _____ _____    ______ ____
ROOT
ATOM      1  N   LIG    1       -1.183   5.954   0.042  0.00  0.00    -0.680 N 
ATOM      2  H   LIG    1       -0.235   6.158   0.034  0.00  0.00    +0.420 HD
ENDROOT
BRANCH   1   3
ATOM      3  C   LIG    1       -1.607   4.636   0.040  0.00  0.00    +0.490 A 
ATOM      4  N   LIG    1       -2.895   4.351   0.051  0.00  0.00    -0.530 NA
ATOM      5  C   LIG    1       -3.327   3.086   0.048  0.00  0.00    +0.290 A 
ATOM      6  C   LIG    1       -2.466   2.049   0.035  0.00  0.00    +0.100 A 
ATOM      7  N   LIG    1       -1.117   2.284   0.019  0.00  0.00    -0.350 N 
ATOM      8  C   LIG    1       -0.018   1.503   0.010  0.00  0.00    +0.200 A 
ATOM      9  N   LIG    1        1.029   2.291   0.004  0.00  0.00    -0.250 NA
ATOM     10  N   LIG    1        0.656   3.524   0.014  0.00  0.00    -0.250 NA
ATOM     11  C   LIG    1       -0.662   3.581   0.026  0.00  0.00    +0.110 A 
BRANCH   8  12
ATOM     12  C   LIG    1        0.002  -0.004   0.002  0.00  0.00    +0.040 C 
ATOM     13  C   LIG    1        1.355  -0.693   0.189  0.00  0.00    +0.080 C 
ATOM     14  C   LIG    1        0.679  -0.695  -1.183  0.00  0.00    +0.050 C 
ENDBRANCH   8  12
ENDBRANCH   1   3
BRANCH   1  19
ATOM     15  C   LIG    1       -2.547   7.387   1.506  0.00  0.00    +0.150 C 
ATOM     16  C   LIG    1       -2.152   8.862   1.724  0.00  0.00    +0.020 C 
ATOM     17  C   LIG    1       -1.049   9.120   0.668  0.00  0.00    -0.020 C 
ATOM     18  C   LIG    1       -1.553   8.316  -0.556  0.00  0.00    +0.050 C 
ATOM     19  C   LIG    1       -2.167   7.040   0.057  0.00  0.00    +0.270 C 
BRANCH  15  20
ATOM     20  O   LIG    1       -3.954   7.224   1.696  0.00  0.00    -0.550 OA
ATOM     21  H   LIG    1       -4.257   7.428   2.591  0.00  0.00    +0.380 HD
ENDBRANCH  15  20
BRANCH  17  22
ATOM     22  C   LIG    1       -0.950  10.610   0.335  0.00  0.00    +0.330 C 
BRANCH  22  23
ATOM     23  N   LIG    1       -0.360  11.326   1.468  0.00  0.00    -0.370 N 
ATOM     24  C   LIG    1        0.733  12.118   1.425  0.00  0.00    +0.220 A 
ATOM     25  C   LIG    1        0.948  12.591   2.674  0.00  0.00    -0.120 A 
ATOM     26  C   LIG    1       -0.041  12.064   3.511  0.00  0.00    +0.220 A 
ATOM     27  N   LIG    1       -0.826  11.306   2.789  0.00  0.00    -0.290 NA
ENDBRANCH  22  23
ENDBRANCH  17  22
ENDBRANCH   1  19
TORSDOF 6
