REMARK  Name = ZINCnE000004R9Rb.0
REMARK                            x       y       z     vdW  Elec       q    Type
REMARK                         _______ _______ _______ _____ _____    ______ ____
ROOT
ATOM      1  C   LIG    1        0.092  -2.708   0.084  0.00  0.00    +0.560 C 
ATOM      2  N   LIG    1        1.249  -2.023  -0.015  0.00  0.00    -0.640 N 
ATOM      3  H   LIG    1        2.091  -2.501  -0.080  0.00  0.00    +0.420 HD
ATOM      4  O   LIG    1       -0.968  -2.112   0.084  0.00  0.00    -0.550 OA
ENDROOT
BRANCH   1   8
ATOM      5  C   LIG    1        0.150  -6.942   0.396  0.00  0.00    +0.240 A 
ATOM      6  C   LIG    1       -1.065  -6.262   0.396  0.00  0.00    -0.080 A 
ATOM      7  C   LIG    1       -1.087  -4.890   0.295  0.00  0.00    +0.120 A 
ATOM      8  C   LIG    1        0.112  -4.178   0.193  0.00  0.00    -0.190 A 
ATOM      9  C   LIG    1        1.331  -4.865   0.187  0.00  0.00    +0.110 A 
ATOM     10  C   LIG    1        1.346  -6.236   0.294  0.00  0.00    -0.080 A 
BRANCH   5  11
ATOM     11  N   LIG    1        0.169  -8.328   0.498  0.00  0.00    -0.630 N 
ATOM     12  C   LIG    1       -1.089  -9.072   0.606  0.00  0.00    +0.270 C 
BRANCH  11  13
ATOM     13  C   LIG    1        1.446  -9.046   0.498  0.00  0.00    +0.270 C 
BRANCH  13  15
ATOM     14  C   LIG    1        3.285  -9.938   1.935  0.00  0.00    +0.020 C 
ATOM     15  C   LIG    1        1.951  -9.189   1.935  0.00  0.00    -0.020 C 
ENDBRANCH  13  15
ENDBRANCH  11  13
ENDBRANCH   5  11
ENDBRANCH   1   8
BRANCH   2  16
ATOM     16  C   LIG    1        1.236  -0.633  -0.023  0.00  0.00    +0.180 A 
ATOM     17  C   LIG    1        0.198   0.052  -0.641  0.00  0.00    -0.010 A 
ATOM     18  C   LIG    1        0.187   1.432  -0.648  0.00  0.00    +0.000 A 
ATOM     19  C   LIG    1        1.208   2.146  -0.041  0.00  0.00    -0.050 A 
ATOM     20  C   LIG    1        2.247   1.485   0.577  0.00  0.00    +0.060 A 
ATOM     21  C   LIG    1        2.273   0.087   0.593  0.00  0.00    -0.170 A 
BRANCH  21  22
ATOM     22  C   LIG    1        3.379  -0.625   1.252  0.00  0.00    +0.530 C 
ATOM     23  O   LIG    1        3.446  -1.845   1.187  0.00  0.00    -0.690 OA
ATOM     24  O   LIG    1        4.232   0.002   1.865  0.00  0.00    -0.680 OA
ENDBRANCH  21  22
ENDBRANCH   2  16
TORSDOF 6
