REMARK  Name = ZINCrD000000AdaQ.0
REMARK                            x       y       z     vdW  Elec       q    Type
REMARK                         _______ _______ _______ _____ _____    ______ ____
ROOT
ATOM      1  O   LIG    1       -7.172   5.181   0.096  0.00  0.00    -0.530 OA
ATOM      2  C   LIG    1       -7.315   3.977   0.091  0.00  0.00    +0.520 C 
ATOM      3  N   LIG    1       -8.554   3.446   0.100  0.00  0.00    -0.530 N 
ATOM      4  H   LIG    1       -8.669   2.483   0.097  0.00  0.00    +0.430 HD
ENDROOT
BRANCH   3   5
ATOM      5  N   LIG    1       -9.676   4.285   0.115  0.00  0.00    -0.520 N 
ATOM      6  H   LIG    1       -9.561   5.248   0.119  0.00  0.00    +0.430 HD
ATOM      7  C   LIG    1      -10.914   3.754   0.124  0.00  0.00    +0.520 C 
ATOM      8  O   LIG    1      -11.058   2.550   0.119  0.00  0.00    -0.530 OA
BRANCH   7   9
ATOM      9  C   LIG    1      -12.121   4.657   0.140  0.00  0.00    -0.060 C 
ATOM     10  C   LIG    1      -12.086   5.533   1.393  0.00  0.00    +0.040 C 
ATOM     11  C   LIG    1      -13.311   6.450   1.409  0.00  0.00    +0.000 C 
ATOM     12  C   LIG    1      -13.299   7.339   0.164  0.00  0.00    +0.020 C 
ATOM     13  C   LIG    1      -13.334   6.462  -1.089  0.00  0.00    +0.000 C 
ATOM     14  C   LIG    1      -14.607   5.613  -1.081  0.00  0.00    +0.020 C 
ATOM     15  C   LIG    1      -14.619   4.723   0.164  0.00  0.00    -0.010 C 
ATOM     16  C   LIG    1      -14.583   5.600   1.417  0.00  0.00    +0.020 C 
ATOM     17  C   LIG    1      -12.109   5.546  -1.105  0.00  0.00    +0.040 C 
ATOM     18  C   LIG    1      -13.393   3.807   0.147  0.00  0.00    +0.050 C 
ENDBRANCH   7   9
ENDBRANCH   3   5
BRANCH   2  19
ATOM     19  C   LIG    1       -6.109   3.075   0.075  0.00  0.00    +0.090 C 
BRANCH  19  20
ATOM     20  C   LIG    1       -4.836   3.924   0.068  0.00  0.00    +0.080 C 
BRANCH  20  21
ATOM     21  C   LIG    1       -3.611   3.008   0.052  0.00  0.00    +0.200 C 
BRANCH  21  22
ATOM     22  O   LIG    1       -2.423   3.801   0.045  0.00  0.00    -0.310 OA
BRANCH  22  23
ATOM     23  C   LIG    1       -1.237   3.137   0.030  0.00  0.00    +0.120 A 
ATOM     24  C   LIG    1       -1.218   1.750   0.017  0.00  0.00    -0.040 A 
ATOM     25  C   LIG    1       -0.013   1.076   0.008  0.00  0.00    +0.030 A 
ATOM     26  C   LIG    1        1.177   1.784   0.000  0.00  0.00    +0.060 A 
ATOM     27  C   LIG    1        1.160   3.168   0.008  0.00  0.00    +0.030 A 
ATOM     28  F   LIG    1        2.356   1.124  -0.015  0.00  0.00    -0.140 F 
ATOM     29  C   LIG    1       -0.044   3.845   0.023  0.00  0.00    +0.020 A 
ENDBRANCH  22  23
ENDBRANCH  21  22
ENDBRANCH  20  21
ENDBRANCH  19  20
ENDBRANCH   2  19
TORSDOF 7
