REMARK  Name = ZINCvU0000000Gwl.0
REMARK                            x       y       z     vdW  Elec       q    Type
REMARK                         _______ _______ _______ _____ _____    ______ ____
ROOT
ATOM      1  O   LIG    1       -5.425   2.363   1.958  0.00  0.00    -0.500 OA
ATOM      2  C   LIG    1       -6.345   2.122   1.206  0.00  0.00    +0.530 C 
ATOM      3  N   LIG    1       -7.552   2.683   1.416  0.00  0.00    -0.620 N 
ATOM      4  C   LIG    1       -8.752   2.477   0.585  0.00  0.00    +0.250 C 
ATOM      5  C   LIG    1       -9.944   2.782   1.526  0.00  0.00    +0.040 C 
ATOM      6  C   LIG    1       -9.384   3.961   2.365  0.00  0.00    +0.050 C 
ATOM      7  C   LIG    1       -7.892   3.598   2.516  0.00  0.00    +0.270 C 
ENDROOT
BRANCH   7   8
ATOM      8  C   LIG    1       -7.052   4.845   2.424  0.00  0.00    -0.080 A 
ATOM      9  C   LIG    1       -6.795   5.413   1.191  0.00  0.00    +0.030 A 
ATOM     10  C   LIG    1       -6.024   6.558   1.099  0.00  0.00    +0.020 A 
ATOM     11  C   LIG    1       -5.509   7.134   2.248  0.00  0.00    +0.070 A 
ATOM     12  O   LIG    1       -4.746   8.262   2.171  0.00  0.00    -0.320 OA
ATOM     13  C   LIG    1       -5.330   9.449   2.713  0.00  0.00    +0.220 C 
ATOM     14  C   LIG    1       -5.098   9.528   4.213  0.00  0.00    -0.020 C 
ATOM     15  C   LIG    1       -5.802   8.411   4.968  0.00  0.00    +0.220 C 
ATOM     16  O   LIG    1       -5.257   7.139   4.614  0.00  0.00    -0.320 OA
ATOM     17  C   LIG    1       -5.768   6.564   3.486  0.00  0.00    +0.070 A 
ATOM     18  C   LIG    1       -6.544   5.421   3.576  0.00  0.00    +0.030 A 
ENDBRANCH   7   8
BRANCH   2  19
ATOM     19  C   LIG    1       -6.139   1.194   0.037  0.00  0.00    +0.160 C 
BRANCH  19  20
ATOM     20  C   LIG    1       -4.713   0.707   0.028  0.00  0.00    +0.090 A 
ATOM     21  C   LIG    1       -4.408  -0.595   0.020  0.00  0.00    -0.060 A 
ATOM     22  S   LIG    1       -2.652  -0.750   0.011  0.00  0.00    +0.090 S 
ATOM     23  C   LIG    1       -2.502   1.006   0.019  0.00  0.00    +0.120 A 
ATOM     24  N   LIG    1       -3.693   1.534   0.033  0.00  0.00    -0.430 NA
BRANCH  23  25
ATOM     25  C   LIG    1       -1.230   1.758   0.017  0.00  0.00    -0.040 A 
ATOM     26  C   LIG    1       -0.013   1.076   0.008  0.00  0.00    +0.070 A 
ATOM     27  C   LIG    1        1.172   1.783   0.000  0.00  0.00    -0.010 A 
ATOM     28  C   LIG    1        1.154   3.168   0.008  0.00  0.00    +0.120 A 
ATOM     29  C   LIG    1       -0.052   3.851   0.023  0.00  0.00    -0.010 A 
ATOM     30  F   LIG    1        2.317   3.856   0.000  0.00  0.00    -0.130 F 
ATOM     31  C   LIG    1       -1.242   3.154   0.030  0.00  0.00    +0.110 A 
ENDBRANCH  23  25
ENDBRANCH  19  20
ENDBRANCH   2  19
TORSDOF 4
