REMARK  Name = ZINCvU00000004tN.0
REMARK                            x       y       z     vdW  Elec       q    Type
REMARK                         _______ _______ _______ _____ _____    ______ ____
ROOT
ATOM      1  C   LIG    1        2.414   3.957   0.001  0.00  0.00    +0.560 C 
ATOM      2  N   LIG    1        2.382   5.305   0.008  0.00  0.00    -0.720 N 
ATOM      3  H   LIG    1        1.531   5.770   0.019  0.00  0.00    +0.400 HD
ATOM      4  O   LIG    1        3.481   3.374  -0.012  0.00  0.00    -0.510 OA
ENDROOT
BRANCH   1  10
ATOM      5  C   LIG    1        1.182   1.786   0.000  0.00  0.00    -0.050 A 
ATOM      6  C   LIG    1       -0.013   1.076   0.008  0.00  0.00    -0.010 A 
ATOM      7  C   LIG    1       -1.217   1.749   0.017  0.00  0.00    +0.060 A 
ATOM      8  C   LIG    1       -1.247   3.134   0.031  0.00  0.00    +0.000 A 
ATOM      9  C   LIG    1       -0.073   3.857   0.024  0.00  0.00    +0.070 A 
ATOM     10  C   LIG    1        1.155   3.191   0.008  0.00  0.00    -0.130 A 
BRANCH   5  11
ATOM     11  S   LIG    1        2.722   0.930  -0.018  0.00  0.00    +0.050 S 
BRANCH  11  12
ATOM     12  C   LIG    1        2.220  -0.813  -0.022  0.00  0.00    +0.160 C 
BRANCH  12  17
ATOM     13  C   LIG    1        6.149  -3.615   1.315  0.00  0.00    +0.210 C 
ATOM     14  C   LIG    1        5.110  -2.875   0.513  0.00  0.00    +0.170 A 
ATOM     15  N   LIG    1        5.033  -2.822  -0.783  0.00  0.00    -0.380 NA
ATOM     16  O   LIG    1        4.084  -2.145  -1.120  0.00  0.00    +0.090 OA
ATOM     17  C   LIG    1        3.446  -1.688  -0.038  0.00  0.00    +0.200 A 
ATOM     18  N   LIG    1        4.095  -2.143   1.007  0.00  0.00    -0.460 NA
ENDBRANCH  12  17
ENDBRANCH  11  12
ENDBRANCH   5  11
ENDBRANCH   1  10
BRANCH   2  19
ATOM     19  C   LIG    1        3.634   6.066   0.001  0.00  0.00    +0.280 C 
ATOM     20  C   LIG    1        4.122   6.232  -1.440  0.00  0.00    +0.040 C 
BRANCH  19  21
ATOM     21  C   LIG    1        3.399   7.424   0.611  0.00  0.00    -0.090 A 
ATOM     22  C   LIG    1        2.235   8.116   0.326  0.00  0.00    +0.010 A 
ATOM     23  C   LIG    1        2.013   9.357   0.886  0.00  0.00    +0.020 A 
ATOM     24  C   LIG    1        2.968   9.919   1.731  0.00  0.00    -0.040 A 
ATOM     25  C   LIG    1        4.141   9.221   2.010  0.00  0.00    +0.030 A 
ATOM     26  C   LIG    1        4.350   7.977   1.449  0.00  0.00    +0.030 A 
BRANCH  24  27
ATOM     27  C   LIG    1        2.737  11.257   2.330  0.00  0.00    -0.050 A 
ATOM     28  C   LIG    1        3.689  11.816   3.180  0.00  0.00    +0.020 A 
ATOM     29  C   LIG    1        3.472  13.062   3.731  0.00  0.00    +0.010 A 
ATOM     30  C   LIG    1        2.306  13.752   3.450  0.00  0.00    +0.000 A 
ATOM     31  C   LIG    1        1.354  13.199   2.612  0.00  0.00    +0.010 A 
ATOM     32  C   LIG    1        1.564  11.955   2.051  0.00  0.00    +0.020 A 
ENDBRANCH  24  27
ENDBRANCH  19  21
ENDBRANCH   2  19
TORSDOF 7
