REMARK  Name = ZINCkj000005jUtL.0
REMARK                            x       y       z     vdW  Elec       q    Type
REMARK                         _______ _______ _______ _____ _____    ______ ____
ROOT
ATOM      1  C   LIG    1       -0.715   3.464   1.102  0.00  0.00    +0.080 C 
ATOM      2  C   LIG    1        0.759   3.818   0.890  0.00  0.00    +0.050 C 
ATOM      3  C   LIG    1       -1.246   4.206   2.330  0.00  0.00    +0.070 C 
ENDROOT
BRANCH   1   7
ATOM      4  C   LIG    1       -3.749   5.347  -1.204  0.00  0.00    +0.020 C 
ATOM      5  C   LIG    1       -2.287   5.688  -1.500  0.00  0.00    +0.200 C 
ATOM      6  C   LIG    1       -1.421   5.313  -0.294  0.00  0.00    +0.180 C 
ATOM      7  N   LIG    1       -1.489   3.860  -0.082  0.00  0.00    -0.540 NA
ATOM      8  C   LIG    1       -1.030   3.137  -1.277  0.00  0.00    +0.150 C 
ATOM      9  C   LIG    1       -1.900   3.534  -2.473  0.00  0.00    +0.160 C 
ATOM     10  C   LIG    1       -1.378   2.846  -3.736  0.00  0.00    +0.060 C 
ATOM     11  O   LIG    1       -1.847   4.953  -2.644  0.00  0.00    -0.370 OA
ENDBRANCH   1   7
BRANCH   1  12
ATOM     12  C   LIG    1       -0.851   1.956   1.319  0.00  0.00    +0.280 C 
BRANCH  12  13
ATOM     13  N   LIG    1       -2.273   1.598   1.395  0.00  0.00    -0.510 N 
ATOM     14  H   LIG    1       -2.684   2.023   2.213  0.00  0.00    +0.420 HD
ATOM     15  H   LIG    1       -2.748   1.931   0.570  0.00  0.00    +0.440 HD
BRANCH  13  16
ATOM     16  C   LIG    1       -2.407   0.138   1.482  0.00  0.00    +0.370 C 
BRANCH  16  17
ATOM     17  C   LIG    1       -3.867  -0.229   1.560  0.00  0.00    -0.130 A 
ATOM     18  C   LIG    1       -4.665  -0.570   0.530  0.00  0.00    +0.230 A 
ATOM     19  N   LIG    1       -5.888  -0.824   1.020  0.00  0.00    -0.490 NA
ATOM     20  C   LIG    1       -5.880  -0.646   2.312  0.00  0.00    +0.460 A 
ATOM     21  N   LIG    1       -4.638  -0.274   2.690  0.00  0.00    -0.460 N 
ATOM     22  C   LIG    1       -4.198   0.026   4.055  0.00  0.00    +0.340 C 
ENDBRANCH  16  17
ENDBRANCH  13  16
ENDBRANCH  12  13
ENDBRANCH   1  12
TORSDOF 5
