REMARK  Name = ZINCqH0000001cJh.0
REMARK                            x       y       z     vdW  Elec       q    Type
REMARK                         _______ _______ _______ _____ _____    ______ ____
ROOT
ATOM      1  C   LIG    1       -0.284   3.519   0.007  0.00  0.00    +0.130 A 
ATOM      2  C   LIG    1       -1.548   2.968  -0.136  0.00  0.00    +0.030 A 
ATOM      3  C   LIG    1       -1.690   1.597  -0.303  0.00  0.00    +0.150 A 
ATOM      4  C   LIG    1       -0.567   0.780  -0.316  0.00  0.00    +0.050 A 
ATOM      5  C   LIG    1        0.692   1.331  -0.174  0.00  0.00    +0.040 A 
ATOM      6  C   LIG    1        0.838   2.697  -0.012  0.00  0.00    +0.060 A 
ATOM      7  F   LIG    1        2.070   3.232   0.127  0.00  0.00    -0.140 F 
ENDROOT
BRANCH   1   9
ATOM      8  C   LIG    1       -0.975   5.748  -0.460  0.00  0.00    +0.520 C 
ATOM      9  N   LIG    1       -0.136   4.902   0.170  0.00  0.00    -0.670 N 
ATOM     10  H   LIG    1        0.569   5.251   0.737  0.00  0.00    +0.420 HD
ATOM     11  O   LIG    1       -1.907   5.312  -1.102  0.00  0.00    -0.510 OA
BRANCH   8  12
ATOM     12  C   LIG    1       -0.754   7.236  -0.367  0.00  0.00    +0.060 C 
BRANCH  12  14
ATOM     13  C   LIG    1       -1.689   9.473  -0.971  0.00  0.00    +0.030 C 
ATOM     14  C   LIG    1       -1.838   7.963  -1.166  0.00  0.00    +0.000 C 
ATOM     15  C   LIG    1       -1.691   7.624  -2.651  0.00  0.00    +0.010 C 
ENDBRANCH  12  14
ENDBRANCH   8  12
ENDBRANCH   1   9
BRANCH   3  16
ATOM     16  N   LIG    1       -2.965   1.038  -0.453  0.00  0.00    -0.670 N 
ATOM     17  H   LIG    1       -3.653   1.523  -0.934  0.00  0.00    +0.410 HD
ATOM     18  C   LIG    1       -3.235  -0.173   0.072  0.00  0.00    +0.570 C 
ATOM     19  O   LIG    1       -2.350  -0.817   0.603  0.00  0.00    -0.510 OA
BRANCH  18  20
ATOM     20  C   LIG    1       -4.604  -0.719   0.002  0.00  0.00    -0.130 A 
ATOM     21  C   LIG    1       -5.622   0.019  -0.607  0.00  0.00    +0.070 A 
ATOM     22  C   LIG    1       -6.900  -0.492  -0.672  0.00  0.00    +0.040 A 
ATOM     23  C   LIG    1       -7.181  -1.740  -0.133  0.00  0.00    +0.070 A 
ATOM     24  O   LIG    1       -8.342  -2.454  -0.071  0.00  0.00    -0.300 OA
ATOM     25  C   LIG    1       -8.125  -3.454   0.941  0.00  0.00    +0.440 C 
ATOM     26  O   LIG    1       -6.700  -3.660   0.921  0.00  0.00    -0.300 OA
ATOM     27  C   LIG    1       -6.169  -2.482   0.477  0.00  0.00    +0.030 A 
ATOM     28  C   LIG    1       -4.885  -1.978   0.540  0.00  0.00    +0.110 A 
ENDBRANCH  18  20
ENDBRANCH   3  16
TORSDOF 5
