REMARK  Name = ZINCpk00000eaEpT.0
REMARK                            x       y       z     vdW  Elec       q    Type
REMARK                         _______ _______ _______ _____ _____    ______ ____
ROOT
ATOM      1  N   LIG    1       -2.442  -0.118   0.024  0.00  0.00    -0.700 N 
ATOM      2  H   LIG    1       -2.462   0.851   0.029  0.00  0.00    +0.420 HD
ATOM      3  C   LIG    1       -1.261  -0.768   0.009  0.00  0.00    +0.600 C 
ATOM      4  O   LIG    1       -1.236  -1.984   0.003  0.00  0.00    -0.520 OA
ENDROOT
BRANCH   3   5
ATOM      5  C   LIG    1        0.002  -0.004   0.002  0.00  0.00    +0.060 A 
ATOM      6  N   LIG    1       -0.016   1.307   0.009  0.00  0.00    -0.190 NA
ATOM      7  N   LIG    1        1.032   2.041   0.003  0.00  0.00    -0.460 N 
ATOM      8  H   LIG    1        0.917   3.004   0.009  0.00  0.00    +0.440 HD
ATOM      9  C   LIG    1        2.287   1.548  -0.011  0.00  0.00    +0.520 A 
ATOM     10  C   LIG    1        2.466   0.090  -0.021  0.00  0.00    -0.140 A 
ATOM     11  C   LIG    1        3.718  -0.518  -0.037  0.00  0.00    +0.090 A 
ATOM     12  C   LIG    1        3.800  -1.894  -0.045  0.00  0.00    +0.030 A 
ATOM     13  C   LIG    1        2.652  -2.674  -0.038  0.00  0.00    +0.050 A 
ATOM     14  C   LIG    1        1.402  -2.091  -0.023  0.00  0.00    +0.070 A 
ATOM     15  O   LIG    1        3.249   2.294  -0.017  0.00  0.00    -0.500 OA
ATOM     16  C   LIG    1        1.296  -0.705  -0.014  0.00  0.00    -0.030 A 
ENDBRANCH   3   5
BRANCH   1  18
ATOM     17  C   LIG    1       -4.080  -1.241  -1.404  0.00  0.00    +0.060 C 
ATOM     18  C   LIG    1       -3.695  -0.877   0.031  0.00  0.00    +0.350 C 
BRANCH  18  19
ATOM     19  C   LIG    1       -4.786  -0.038   0.646  0.00  0.00    +0.120 A 
ATOM     20  N   LIG    1       -5.026   1.223   0.397  0.00  0.00    -0.230 NA
ATOM     21  N   LIG    1       -6.031   1.632   1.088  0.00  0.00    -0.280 NA
ATOM     22  C   LIG    1       -6.486   0.639   1.834  0.00  0.00    +0.200 A 
ATOM     23  C   LIG    1       -7.539   0.528   2.763  0.00  0.00    +0.080 A 
ATOM     24  C   LIG    1       -7.758  -0.664   3.381  0.00  0.00    +0.070 A 
ATOM     25  C   LIG    1       -6.934  -1.763   3.086  0.00  0.00    +0.030 A 
ATOM     26  C   LIG    1       -5.928  -1.643   2.194  0.00  0.00    +0.230 A 
ATOM     27  N   LIG    1       -5.698  -0.454   1.567  0.00  0.00    -0.380 N 
ENDBRANCH  18  19
ENDBRANCH   1  18
TORSDOF 3
