REMARK  Name = ZINCpk00000FaepT.0
REMARK                            x       y       z     vdW  Elec       q    Type
REMARK                         _______ _______ _______ _____ _____    ______ ____
ROOT
ATOM      1  C   LIG    1       -1.200  -0.912   0.008  0.00  0.00    +0.260 C 
ATOM      2  C   LIG    1       -0.755  -2.392   0.051  0.00  0.00    +0.090 C 
ATOM      3  C   LIG    1       -1.764  -3.085  -0.899  0.00  0.00    +0.220 C 
ATOM      4  N   LIG    1       -1.956  -2.084  -1.979  0.00  0.00    -0.440 N 
ATOM      5  C   LIG    1       -1.987  -0.767  -1.308  0.00  0.00    +0.260 C 
ENDROOT
BRANCH   4   6
ATOM      6  C   LIG    1       -3.134  -2.318  -2.668  0.00  0.00    +0.500 A 
ATOM      7  N   LIG    1       -4.088  -1.399  -2.648  0.00  0.00    -0.530 NA
ATOM      8  C   LIG    1       -5.225  -1.590  -3.295  0.00  0.00    +0.380 A 
ATOM      9  C   LIG    1       -5.412  -2.769  -3.999  0.00  0.00    -0.040 A 
ATOM     10  C   LIG    1       -4.394  -3.710  -3.999  0.00  0.00    +0.120 A 
ATOM     11  N   LIG    1       -3.279  -3.453  -3.336  0.00  0.00    -0.480 NA
BRANCH  10  12
ATOM     12  C   LIG    1       -4.553  -5.006  -4.750  0.00  0.00    +0.530 C 
ATOM     13  F   LIG    1       -5.904  -5.366  -4.779  0.00  0.00    -0.160 F 
ATOM     14  F   LIG    1       -3.817  -6.010  -4.111  0.00  0.00    -0.160 F 
ATOM     15  F   LIG    1       -4.084  -4.847  -6.059  0.00  0.00    -0.160 F 
ENDBRANCH  10  12
ENDBRANCH   4   6
BRANCH   1  16
ATOM     16  C   LIG    1        0.002  -0.004   0.002  0.00  0.00    +0.160 A 
ATOM     17  N   LIG    1        1.247  -0.376  -0.012  0.00  0.00    -0.370 NA
ATOM     18  O   LIG    1        1.975   0.594  -0.014  0.00  0.00    +0.080 OA
ATOM     19  C   LIG    1        1.242   1.711  -0.001  0.00  0.00    +0.170 A 
ATOM     20  C   LIG    1        1.761   3.126   0.001  0.00  0.00    +0.250 C 
ATOM     21  N   LIG    1       -0.016   1.341   0.009  0.00  0.00    -0.430 NA
ENDBRANCH   1  16
BRANCH   1  24
ATOM     22  C   LIG    1       -3.473   0.944   2.466  0.00  0.00    +0.090 C 
ATOM     23  C   LIG    1       -2.586   0.629   1.289  0.00  0.00    +0.500 C 
ATOM     24  N   LIG    1       -2.062  -0.606   1.152  0.00  0.00    -0.730 N 
ATOM     25  H   LIG    1       -2.256  -1.291   1.811  0.00  0.00    +0.400 HD
ATOM     26  O   LIG    1       -2.344   1.485   0.466  0.00  0.00    -0.490 OA
ENDBRANCH   1  24
TORSDOF 4
