REMARK  Name = ZINCrH000004okTF.0
REMARK                            x       y       z     vdW  Elec       q    Type
REMARK                         _______ _______ _______ _____ _____    ______ ____
ROOT
ATOM      1  C   LIG    1        4.868   2.017  -0.242  0.00  0.00    +0.250 C 
ATOM      2  C   LIG    1        6.262   2.629  -0.210  0.00  0.00    +0.090 C 
ATOM      3  C   LIG    1        6.201   4.082   0.181  0.00  0.00    -0.070 A 
ATOM      4  C   LIG    1        7.294   4.880  -0.134  0.00  0.00    +0.010 A 
ATOM      5  C   LIG    1        7.313   6.214   0.217  0.00  0.00    +0.020 A 
ATOM      6  C   LIG    1        6.237   6.764   0.888  0.00  0.00    +0.010 A 
ATOM      7  C   LIG    1        5.148   5.975   1.198  0.00  0.00    +0.020 A 
ATOM      8  C   LIG    1        5.126   4.633   0.842  0.00  0.00    -0.100 A 
ATOM      9  C   LIG    1        3.901   3.830   1.201  0.00  0.00    +0.350 C 
ATOM     10  N   LIG    1        4.169   2.402   0.995  0.00  0.00    -0.600 N 
ATOM     11  C   LIG    1        3.795   1.481   1.905  0.00  0.00    +0.600 C 
ATOM     12  O   LIG    1        4.125   0.318   1.764  0.00  0.00    -0.480 OA
ENDROOT
BRANCH  11  13
ATOM     13  C   LIG    1        2.989   1.880   3.063  0.00  0.00    -0.080 A 
ATOM     14  C   LIG    1        2.579   1.060   4.075  0.00  0.00    +0.050 A 
ATOM     15  C   LIG    1        1.833   1.854   4.960  0.00  0.00    -0.060 A 
ATOM     16  C   LIG    1        1.828   3.110   4.461  0.00  0.00    +0.200 A 
ATOM     17  O   LIG    1        2.523   3.120   3.316  0.00  0.00    -0.160 OA
ENDBRANCH  11  13
BRANCH   1  20
ATOM     18  N   LIG    1        6.187  -0.073  -0.335  0.00  0.00    -0.730 N 
ATOM     19  H   LIG    1        6.990   0.469  -0.295  0.00  0.00    +0.400 HD
ATOM     20  C   LIG    1        4.975   0.516  -0.321  0.00  0.00    +0.540 C 
ATOM     21  O   LIG    1        3.971  -0.162  -0.371  0.00  0.00    -0.510 OA
BRANCH  18  23
ATOM     22  C   LIG    1        6.183  -2.126   0.995  0.00  0.00    +0.030 C 
ATOM     23  C   LIG    1        6.292  -1.532  -0.411  0.00  0.00    +0.320 C 
BRANCH  23  24
ATOM     24  C   LIG    1        7.620  -1.910  -1.014  0.00  0.00    -0.190 A 
ATOM     25  C   LIG    1        7.815  -2.902  -1.885  0.00  0.00    +0.020 A 
ATOM     26  C   LIG    1        9.124  -3.060  -2.305  0.00  0.00    +0.010 A 
ATOM     27  C   LIG    1        9.994  -2.203  -1.768  0.00  0.00    -0.040 A 
ATOM     28  S   LIG    1        9.152  -1.116  -0.672  0.00  0.00    +0.090 S 
ENDBRANCH  23  24
ENDBRANCH  18  23
ENDBRANCH   1  20
TORSDOF 4
