REMARK  Name = ZINCqH0000034n9I.0
REMARK                            x       y       z     vdW  Elec       q    Type
REMARK                         _______ _______ _______ _____ _____    ______ ____
ROOT
ATOM      1  C   LIG    1       -7.023   4.171  -2.164  0.00  0.00    +0.310 C 
ATOM      2  C   LIG    1       -7.711   3.526  -3.386  0.00  0.00    +0.060 C 
ATOM      3  C   LIG    1       -6.924   2.201  -3.565  0.00  0.00    +0.040 C 
ATOM      4  C   LIG    1       -5.490   2.635  -3.171  0.00  0.00    +0.260 C 
ATOM      5  N   LIG    1       -5.676   3.591  -2.064  0.00  0.00    -0.600 N 
ATOM      6  C   LIG    1       -4.764   3.881  -1.115  0.00  0.00    +0.540 C 
ATOM      7  O   LIG    1       -5.027   4.687  -0.248  0.00  0.00    -0.530 OA
ENDROOT
BRANCH   1  16
ATOM      8  N   LIG    1       -7.675   6.586  -1.701  0.00  0.00    -0.480 N 
ATOM      9  C   LIG    1       -7.290   7.830  -2.160  0.00  0.00    +0.050 A 
ATOM     10  C   LIG    1       -7.682   9.130  -1.871  0.00  0.00    +0.010 A 
ATOM     11  C   LIG    1       -7.081  10.185  -2.526  0.00  0.00    +0.030 A 
ATOM     12  C   LIG    1       -6.089   9.955  -3.468  0.00  0.00    +0.000 A 
ATOM     13  C   LIG    1       -5.691   8.682  -3.764  0.00  0.00    +0.070 A 
ATOM     14  C   LIG    1       -6.286   7.598  -3.114  0.00  0.00    +0.050 A 
ATOM     15  N   LIG    1       -6.109   6.253  -3.184  0.00  0.00    -0.480 NA
ATOM     16  C   LIG    1       -6.926   5.662  -2.361  0.00  0.00    +0.280 A 
BRANCH   8  18
ATOM     17  C   LIG    1       -8.057   6.288   0.696  0.00  0.00    +0.030 C 
ATOM     18  C   LIG    1       -8.701   6.312  -0.692  0.00  0.00    +0.290 C 
ENDBRANCH   8  18
ENDBRANCH   1  16
BRANCH   6  19
ATOM     19  C   LIG    1       -3.418   3.203  -1.131  0.00  0.00    +0.070 C 
BRANCH  19  20
ATOM     20  C   LIG    1       -2.580   3.707   0.045  0.00  0.00    +0.130 C 
BRANCH  20  21
ATOM     21  C   LIG    1       -1.234   3.029   0.029  0.00  0.00    +0.130 A 
ATOM     22  C   LIG    1       -0.084   3.795   0.022  0.00  0.00    -0.030 A 
ATOM     23  C   LIG    1        1.150   3.161   0.008  0.00  0.00    +0.070 A 
ATOM     24  C   LIG    1        1.180   1.775   0.000  0.00  0.00    -0.040 A 
ATOM     25  C   LIG    1       -0.013   1.076   0.008  0.00  0.00    +0.260 A 
ATOM     26  N   LIG    1       -1.167   1.712   0.017  0.00  0.00    -0.480 NA
ENDBRANCH  20  21
ENDBRANCH  19  20
ENDBRANCH   6  19
TORSDOF 5
