REMARK  Name = ZINCpe000000URoB.1
REMARK                            x       y       z     vdW  Elec       q    Type
REMARK                         _______ _______ _______ _____ _____    ______ ____
ROOT
ATOM      1  C   LIG    1        0.630   9.535  -1.395  0.00  0.00    +0.190 C 
ATOM      2  C   LIG    1       -0.912   9.514  -1.381  0.00  0.00    +0.100 C 
ATOM      3  C   LIG    1       -1.247   8.039  -1.391  0.00  0.00    +0.530 C 
ATOM      4  N   LIG    1       -0.111   7.330  -1.400  0.00  0.00    -0.570 N 
ATOM      5  O   LIG    1       -2.366   7.572  -1.389  0.00  0.00    -0.470 OA
ATOM      6  C   LIG    1        1.005   8.069  -1.407  0.00  0.00    +0.490 C 
ATOM      7  O   LIG    1        2.136   7.634  -1.421  0.00  0.00    -0.470 OA
ENDROOT
BRANCH   1  11
ATOM      8  C   LIG    1        2.554  10.447  -5.103  0.00  0.00    -0.010 C 
ATOM      9  C   LIG    1        3.079  11.073  -3.808  0.00  0.00    +0.060 C 
ATOM     10  C   LIG    1        2.598  10.243  -2.615  0.00  0.00    +0.190 C 
ATOM     11  N   LIG    1        1.130  10.206  -2.603  0.00  0.00    -0.500 NA
ATOM     12  C   LIG    1        0.605   9.566  -3.816  0.00  0.00    +0.170 C 
ATOM     13  C   LIG    1        1.026  10.375  -5.045  0.00  0.00    +0.060 C 
BRANCH   8  17
ATOM     14  C   LIG    1        3.034  11.753  -8.670  0.00  0.00    +0.290 C 
ATOM     15  N   LIG    1        2.625  10.931  -7.528  0.00  0.00    -0.740 N 
ATOM     16  H   LIG    1        2.101  10.128  -7.672  0.00  0.00    +0.400 HD
ATOM     17  C   LIG    1        2.976  11.292  -6.278  0.00  0.00    +0.520 C 
ATOM     18  O   LIG    1        3.631  12.297  -6.098  0.00  0.00    -0.530 OA
ENDBRANCH   8  17
ENDBRANCH   1  11
BRANCH   4  19
ATOM     19  C   LIG    1       -0.091   5.865  -1.409  0.00  0.00    +0.290 C 
BRANCH  19  20
ATOM     20  C   LIG    1       -0.070   5.347   0.031  0.00  0.00    +0.070 C 
BRANCH  20  21
ATOM     21  C   LIG    1       -0.050   3.840   0.023  0.00  0.00    -0.090 A 
ATOM     22  C   LIG    1        1.156   3.165   0.008  0.00  0.00    +0.010 A 
ATOM     23  C   LIG    1        1.175   1.783   0.000  0.00  0.00    +0.000 A 
ATOM     24  C   LIG    1       -0.013   1.076   0.008  0.00  0.00    +0.000 A 
ATOM     25  C   LIG    1       -1.219   1.751   0.017  0.00  0.00    +0.000 A 
ATOM     26  C   LIG    1       -1.238   3.133   0.030  0.00  0.00    +0.010 A 
ENDBRANCH  20  21
ENDBRANCH  19  20
ENDBRANCH   4  19
TORSDOF 5
