REMARK  Name = ZINCvU000000043C.0
REMARK                            x       y       z     vdW  Elec       q    Type
REMARK                         _______ _______ _______ _____ _____    ______ ____
ROOT
ATOM      1  C   LIG    1        1.126   2.123   0.210  0.00  0.00    -0.110 C 
ATOM      2  C   LIG    1       -0.001   1.503  -0.235  0.00  0.00    +0.170 C 
ENDROOT
BRANCH   1   3
ATOM      3  C   LIG    1        1.082   3.553   0.593  0.00  0.00    -0.060 A 
ATOM      4  C   LIG    1        0.822   4.528  -0.371  0.00  0.00    +0.070 A 
ATOM      5  C   LIG    1        0.777   5.858  -0.008  0.00  0.00    -0.010 A 
ATOM      6  C   LIG    1        1.000   6.228   1.308  0.00  0.00    +0.110 A 
ATOM      7  C   LIG    1        1.265   5.264   2.268  0.00  0.00    -0.010 A 
ATOM      8  F   LIG    1        0.960   7.532   1.657  0.00  0.00    -0.140 F 
ATOM      9  C   LIG    1        1.307   3.930   1.917  0.00  0.00    +0.070 A 
ENDBRANCH   1   3
BRANCH   2  10
ATOM     10  C   LIG    1        0.087   0.169  -0.844  0.00  0.00    -0.070 A 
ATOM     11  C   LIG    1        1.048  -0.094  -1.827  0.00  0.00    +0.070 A 
ATOM     12  C   LIG    1        1.127  -1.349  -2.390  0.00  0.00    +0.020 A 
ATOM     13  C   LIG    1        0.251  -2.347  -1.992  0.00  0.00    -0.020 A 
ATOM     14  C   LIG    1       -0.706  -2.093  -1.024  0.00  0.00    +0.020 A 
ATOM     15 CL   LIG    1        0.355  -3.923  -2.712  0.00  0.00    -0.070 Cl
ATOM     16  C   LIG    1       -0.794  -0.844  -0.448  0.00  0.00    +0.060 A 
ENDBRANCH   2  10
BRANCH   1  18
ATOM     17  O   LIG    1        2.396   0.172   0.123  0.00  0.00    -0.490 OA
ATOM     18  C   LIG    1        2.386   1.373   0.312  0.00  0.00    +0.500 C 
BRANCH  18  19
ATOM     19  O   LIG    1        3.531   2.017   0.615  0.00  0.00    -0.320 OA
BRANCH  19  20
ATOM     20  C   LIG    1        4.737   1.213   0.699  0.00  0.00    +0.270 C 
BRANCH  20  21
ATOM     21  C   LIG    1        5.908   2.098   1.045  0.00  0.00    +0.530 C 
ATOM     22  N   LIG    1        7.139   1.565   1.176  0.00  0.00    -0.550 N 
ATOM     23  C   LIG    1        8.350   2.321   1.509  0.00  0.00    +0.290 C 
ATOM     24  C   LIG    1        9.479   1.279   1.542  0.00  0.00    +0.110 C 
ATOM     25  C   LIG    1        8.798  -0.031   1.215  0.00  0.00    -0.130 A 
ATOM     26  C   LIG    1        9.304  -1.311   1.100  0.00  0.00    +0.060 A 
ATOM     27  C   LIG    1        8.462  -2.367   0.801  0.00  0.00    -0.010 A 
ATOM     28  C   LIG    1        7.114  -2.136   0.602  0.00  0.00    +0.050 A 
ATOM     29  C   LIG    1        6.605  -0.859   0.710  0.00  0.00    -0.030 A 
ATOM     30  C   LIG    1        7.447   0.210   1.021  0.00  0.00    +0.130 A 
ATOM     31  O   LIG    1        5.741   3.288   1.205  0.00  0.00    -0.490 OA
ENDBRANCH  20  21
ENDBRANCH  19  20
ENDBRANCH  18  19
ENDBRANCH   1  18
TORSDOF 6
