REMARK  Name = ZINCvU0000000B3a.0
REMARK                            x       y       z     vdW  Elec       q    Type
REMARK                         _______ _______ _______ _____ _____    ______ ____
ROOT
ATOM      1  C   LIG    1       -9.044  -2.166   0.035  0.00  0.00    +0.240 A 
ATOM      2  N   LIG    1       -7.774  -2.498   0.027  0.00  0.00    -0.260 NA
ATOM      3  N   LIG    1       -7.042  -1.442   0.024  0.00  0.00    -0.280 NA
ATOM      4  C   LIG    1       -7.800  -0.367   0.038  0.00  0.00    +0.150 A 
ATOM      5  N   LIG    1       -9.101  -0.789   0.042  0.00  0.00    -0.410 N 
ENDROOT
BRANCH   1  11
ATOM      6  C   LIG    1      -10.886  -6.761   0.663  0.00  0.00    +0.090 C 
ATOM      7  C   LIG    1      -11.086  -5.303   0.336  0.00  0.00    -0.080 A 
ATOM      8  C   LIG    1      -12.351  -4.831   0.034  0.00  0.00    +0.030 A 
ATOM      9  C   LIG    1      -12.543  -3.494  -0.268  0.00  0.00    +0.020 A 
ATOM     10  C   LIG    1      -11.474  -2.623  -0.270  0.00  0.00    +0.020 A 
ATOM     11  C   LIG    1      -10.195  -3.093   0.035  0.00  0.00    -0.020 A 
ATOM     12  C   LIG    1      -10.007  -4.444   0.334  0.00  0.00    +0.070 A 
ENDBRANCH   1  11
BRANCH   5  13
ATOM     13  C   LIG    1      -10.252   0.011   0.051  0.00  0.00    +0.100 A 
ATOM     14  C   LIG    1      -11.111  -0.018   1.141  0.00  0.00    +0.030 A 
ATOM     15  C   LIG    1      -12.242   0.775   1.149  0.00  0.00    +0.040 A 
ATOM     16  C   LIG    1      -12.523   1.590   0.069  0.00  0.00    +0.040 A 
ATOM     17  C   LIG    1      -11.672   1.618  -1.020  0.00  0.00    +0.040 A 
ATOM     18  C   LIG    1      -10.537   0.831  -1.032  0.00  0.00    +0.030 A 
ENDBRANCH   5  13
BRANCH   4  19
ATOM     19  S   LIG    1       -7.243   1.304   0.044  0.00  0.00    +0.080 S 
BRANCH  19  20
ATOM     20  C   LIG    1       -5.452   1.039   0.034  0.00  0.00    +0.110 C 
BRANCH  20  21
ATOM     21  C   LIG    1       -4.747   2.371   0.037  0.00  0.00    +0.450 C 
ATOM     22  O   LIG    1       -5.392   3.399   0.045  0.00  0.00    -0.420 OA
BRANCH  21  23
ATOM     23  C   LIG    1       -3.330   2.423   0.031  0.00  0.00    -0.070 A 
ATOM     24  C   LIG    1       -2.585   3.562   0.044  0.00  0.00    +0.090 A 
ATOM     25  C   LIG    1       -1.225   3.163   0.029  0.00  0.00    -0.150 A 
ATOM     26  C   LIG    1       -0.012   3.861   0.021  0.00  0.00    +0.080 A 
ATOM     27  C   LIG    1        1.167   3.171   0.007  0.00  0.00    +0.000 A 
ATOM     28  C   LIG    1        1.171   1.783   0.001  0.00  0.00    +0.070 A 
ATOM     29  C   LIG    1       -0.013   1.076   0.008  0.00  0.00    +0.030 A 
ATOM     30  C   LIG    1       -1.224   1.756   0.017  0.00  0.00    +0.080 A 
ATOM     31  O   LIG    1       -2.510   1.349   0.022  0.00  0.00    -0.170 OA
ENDBRANCH  21  23
ENDBRANCH  20  21
ENDBRANCH  19  20
ENDBRANCH   4  19
TORSDOF 6
