REMARK  Name = ZINCrg00001Jdv4j.0
REMARK                            x       y       z     vdW  Elec       q    Type
REMARK                         _______ _______ _______ _____ _____    ______ ____
ROOT
ATOM      1  C   LIG    1       -2.518   5.000   1.429  0.00  0.00    +0.170 C 
ATOM      2  C   LIG    1       -1.667   4.727   0.169  0.00  0.00    +0.050 C 
ATOM      3  C   LIG    1       -0.760   3.568   0.589  0.00  0.00    -0.110 C 
ATOM      4  C   LIG    1       -0.795   3.602   2.120  0.00  0.00    +0.220 C 
ATOM      5  C   LIG    1        0.664   3.715   0.039  0.00  0.00    +0.060 C 
ATOM      6  C   LIG    1        1.168   2.254   0.003  0.00  0.00    +0.270 C 
ATOM      7  N   LIG    1       -0.017   1.381   0.010  0.00  0.00    -0.580 N 
ATOM      8  C   LIG    1       -1.230   2.224   0.019  0.00  0.00    +0.300 C 
ATOM      9  O   LIG    1       -2.149   4.019   2.414  0.00  0.00    -0.360 OA
ENDROOT
BRANCH   7  10
ATOM     10  C   LIG    1        0.002  -0.004   0.002  0.00  0.00    +0.520 A 
ATOM     11  N   LIG    1       -1.124  -0.689   0.009  0.00  0.00    -0.560 NA
ATOM     12  C   LIG    1       -1.121  -2.026   0.001  0.00  0.00    +0.300 A 
ATOM     13  C   LIG    1        0.019  -2.738  -0.013  0.00  0.00    +0.080 A 
ATOM     14  N   LIG    1        1.237  -2.105  -0.020  0.00  0.00    -0.330 N 
ATOM     15  C   LIG    1        2.512  -2.546  -0.034  0.00  0.00    +0.230 A 
ATOM     16  C   LIG    1        3.323  -1.430  -0.052  0.00  0.00    -0.010 A 
ATOM     17  N   LIG    1        2.531  -0.344  -0.035  0.00  0.00    -0.410 NA
ATOM     18  C   LIG    1        1.273  -0.731  -0.020  0.00  0.00    +0.140 A 
BRANCH  16  19
ATOM     19  C   LIG    1        4.798  -1.430  -0.074  0.00  0.00    +0.560 C 
ATOM     20  O   LIG    1        5.406  -2.482  -0.088  0.00  0.00    -0.500 OA
BRANCH  19  21
ATOM     21  O   LIG    1        5.471  -0.263  -0.076  0.00  0.00    -0.340 OA
ATOM     22  C   LIG    1        6.921  -0.338  -0.098  0.00  0.00    +0.290 C 
ENDBRANCH  19  21
ENDBRANCH  16  19
ENDBRANCH   7  10
BRANCH   1  23
ATOM     23  C   LIG    1       -4.005   4.870   1.091  0.00  0.00    +0.120 C 
BRANCH  23  24
ATOM     24  C   LIG    1       -4.829   5.258   2.292  0.00  0.00    +0.460 C 
ATOM     25  O   LIG    1       -4.283   5.602   3.313  0.00  0.00    -0.490 OA
BRANCH  24  27
ATOM     26  C   LIG    1       -6.898   5.606   3.421  0.00  0.00    +0.260 C 
ATOM     27  O   LIG    1       -6.169   5.220   2.227  0.00  0.00    -0.360 OA
ENDBRANCH  24  27
ENDBRANCH  23  24
ENDBRANCH   1  23
TORSDOF 6
