REMARK  Name = ZINCkj000005hxMT.0
REMARK                            x       y       z     vdW  Elec       q    Type
REMARK                         _______ _______ _______ _____ _____    ______ ____
ROOT
ATOM      1  S   LIG    1       -1.688   4.077  -1.909  0.00  0.00    +2.700 S 
ATOM      2  O   LIG    1       -1.010   3.879  -3.142  0.00  0.00    -0.930 OA
ATOM      3  O   LIG    1       -1.603   5.282  -1.161  0.00  0.00    -0.950 OA
ENDROOT
BRANCH   1   4
ATOM      4  C   LIG    1       -3.399   3.812  -2.234  0.00  0.00    -0.720 A 
ATOM      5  C   LIG    1       -4.354   4.475  -1.486  0.00  0.00    +0.140 A 
ATOM      6  C   LIG    1       -5.697   4.269  -1.738  0.00  0.00    -0.080 A 
ATOM      7  C   LIG    1       -6.086   3.396  -2.744  0.00  0.00    +0.190 A 
ATOM      8  C   LIG    1       -5.126   2.732  -3.493  0.00  0.00    -0.130 A 
ATOM      9  C   LIG    1       -5.545   1.784  -4.587  0.00  0.00    +0.120 C 
ATOM     10  C   LIG    1       -3.785   2.946  -3.240  0.00  0.00    +0.170 A 
BRANCH   7  11
ATOM     11  O   LIG    1       -7.406   3.192  -2.994  0.00  0.00    -0.300 OA
ATOM     12  C   LIG    1       -8.339   3.909  -2.184  0.00  0.00    +0.250 C 
ENDBRANCH   7  11
ENDBRANCH   1   4
BRANCH   1  17
ATOM     13  C   LIG    1       -1.099   2.949   0.566  0.00  0.00    +0.240 C 
ATOM     14  C   LIG    1       -0.559   1.595   1.073  0.00  0.00    +0.040 C 
ATOM     15  C   LIG    1        0.160   1.019  -0.175  0.00  0.00    +0.070 C 
ATOM     16  C   LIG    1       -0.755   1.519  -1.321  0.00  0.00    +0.290 C 
ATOM     17  N   LIG    1       -1.187   2.864  -0.899  0.00  0.00    -1.000 NA
BRANCH  13  18
ATOM     18  C   LIG    1       -2.486   3.215   1.155  0.00  0.00    +0.230 C 
BRANCH  18  20
ATOM     19  C   LIG    1       -3.711   3.562   3.188  0.00  0.00    +0.330 C 
ATOM     20  N   LIG    1       -2.370   3.422   2.605  0.00  0.00    -0.500 N 
ATOM     21  H   LIG    1       -1.837   4.259   2.784  0.00  0.00    +0.440 HD
ATOM     22  H   LIG    1       -1.904   2.630   3.022  0.00  0.00    +0.430 HD
ENDBRANCH  18  20
ENDBRANCH  13  18
ENDBRANCH   1  17
TORSDOF 5
