REMARK  Name = ZINCrH00000ajYOZ.0
REMARK                            x       y       z     vdW  Elec       q    Type
REMARK                         _______ _______ _______ _____ _____    ______ ____
ROOT
ATOM      1  C   LIG    1        5.797  -2.438  -1.091  0.00  0.00    +0.020 C 
ATOM      2  C   LIG    1        4.957  -2.734   0.154  0.00  0.00    +0.190 C 
ENDROOT
BRANCH   2   3
ATOM      3  N   LIG    1        4.711  -4.180   0.245  0.00  0.00    -0.510 NA
ATOM      4  C   LIG    1        4.118  -4.692  -0.997  0.00  0.00    +0.230 C 
ATOM      5  C   LIG    1        3.994  -6.187  -0.935  0.00  0.00    -0.020 C 
ATOM      6  C   LIG    1        4.652  -6.926  -0.069  0.00  0.00    -0.080 C 
ATOM      7  C   LIG    1        5.588  -6.342   0.951  0.00  0.00    +0.100 C 
ATOM      8  C   LIG    1        5.952  -4.908   0.556  0.00  0.00    +0.170 C 
BRANCH   6   9
ATOM      9  C   LIG    1        4.462  -8.392  -0.100  0.00  0.00    -0.100 A 
ATOM     10  C   LIG    1        4.872  -9.139  -1.210  0.00  0.00    +0.060 A 
ATOM     11  C   LIG    1        4.672 -10.509  -1.189  0.00  0.00    -0.030 A 
ATOM     12  C   LIG    1        4.079 -11.089  -0.083  0.00  0.00    +0.250 A 
ATOM     13  N   LIG    1        3.702 -10.360   0.949  0.00  0.00    -0.480 NA
ATOM     14  C   LIG    1        3.877  -9.055   0.979  0.00  0.00    +0.270 A 
ENDBRANCH   6   9
ENDBRANCH   2   3
BRANCH   2  15
ATOM     15  C   LIG    1        3.642  -2.005   0.057  0.00  0.00    +0.520 C 
ATOM     16  N   LIG    1        3.622  -0.661  -0.037  0.00  0.00    -0.670 N 
ATOM     17  H   LIG    1        4.454  -0.167  -0.107  0.00  0.00    +0.410 HD
ATOM     18  O   LIG    1        2.601  -2.628   0.064  0.00  0.00    -0.500 OA
BRANCH  16  19
ATOM     19  C   LIG    1        2.399   0.023  -0.032  0.00  0.00    +0.130 A 
ATOM     20  C   LIG    1        1.283  -0.543  -0.629  0.00  0.00    +0.060 A 
ATOM     21  C   LIG    1        0.078   0.134  -0.624  0.00  0.00    +0.010 A 
ATOM     22  C   LIG    1       -0.018   1.376  -0.025  0.00  0.00    +0.030 A 
ATOM     23  C   LIG    1        1.091   1.948   0.572  0.00  0.00    -0.030 A 
ATOM     24  C   LIG    1        2.302   1.276   0.571  0.00  0.00    +0.080 A 
BRANCH  24  25
ATOM     25  O   LIG    1        3.393   1.836   1.158  0.00  0.00    -0.320 OA
BRANCH  25  26
ATOM     26  C   LIG    1        3.219   3.122   1.756  0.00  0.00    +0.590 C 
ATOM     27  F   LIG    1        2.251   3.041   2.763  0.00  0.00    -0.200 F 
ATOM     28  F   LIG    1        2.803   4.037   0.783  0.00  0.00    -0.200 F 
ENDBRANCH  25  26
ENDBRANCH  24  25
ENDBRANCH  16  19
ENDBRANCH   2  15
TORSDOF 6
