REMARK  Name = ZINCrH000004uGkU.0
REMARK                            x       y       z     vdW  Elec       q    Type
REMARK                         _______ _______ _______ _____ _____    ______ ____
ROOT
ATOM      1  C   LIG    1        3.207   6.179  -2.752  0.00  0.00    +0.130 C 
ATOM      2  C   LIG    1        1.780   6.580  -3.168  0.00  0.00    +0.040 C 
ATOM      3  C   LIG    1        1.862   8.092  -3.483  0.00  0.00    +0.040 C 
ATOM      4  C   LIG    1        3.368   8.304  -3.776  0.00  0.00    +0.190 C 
ATOM      5  N   LIG    1        4.038   7.401  -2.801  0.00  0.00    -0.490 NA
ENDROOT
BRANCH   1   7
ATOM      6  O   LIG    1        3.821   6.176  -0.473  0.00  0.00    -0.510 OA
ATOM      7  C   LIG    1        3.195   5.622  -1.351  0.00  0.00    +0.520 C 
ATOM      8  N   LIG    1        2.489   4.508  -1.075  0.00  0.00    -0.730 N 
ATOM      9  H   LIG    1        1.989   4.064  -1.778  0.00  0.00    +0.400 HD
BRANCH   8  10
ATOM     10  C   LIG    1        2.478   3.966   0.286  0.00  0.00    +0.400 C 
BRANCH  10  11
ATOM     11  C   LIG    1        1.621   2.727   0.327  0.00  0.00    -0.040 A 
ATOM     12  C   LIG    1        2.046   1.469   0.113  0.00  0.00    -0.030 A 
ATOM     13  C   LIG    1        0.918   0.627   0.248  0.00  0.00    -0.070 A 
ATOM     14  C   LIG    1       -0.129   1.421   0.533  0.00  0.00    +0.180 A 
ATOM     15  O   LIG    1        0.303   2.692   0.584  0.00  0.00    -0.170 OA
ENDBRANCH  10  11
ENDBRANCH   8  10
ENDBRANCH   1   7
BRANCH   5  16
ATOM     16  C   LIG    1        5.410   7.089  -3.223  0.00  0.00    +0.280 C 
BRANCH  16  17
ATOM     17  C   LIG    1        6.155   8.369  -3.498  0.00  0.00    +0.100 A 
ATOM     18  C   LIG    1        6.927   8.964  -2.587  0.00  0.00    -0.090 A 
ATOM     19  S   LIG    1        7.605  10.420  -3.312  0.00  0.00    +0.130 S 
ATOM     20  C   LIG    1        6.783  10.088  -4.774  0.00  0.00    +0.290 A 
ATOM     21  N   LIG    1        6.101   8.990  -4.662  0.00  0.00    -0.530 NA
BRANCH  20  22
ATOM     22  N   LIG    1        6.842  10.874  -5.915  0.00  0.00    -0.630 N 
ATOM     23  H   LIG    1        6.425  10.569  -6.736  0.00  0.00    +0.420 HD
BRANCH  22  24
ATOM     24  C   LIG    1        7.502  12.105  -5.881  0.00  0.00    +0.160 A 
ATOM     25  C   LIG    1        7.439  12.898  -4.742  0.00  0.00    -0.030 A 
ATOM     26  C   LIG    1        8.097  14.112  -4.711  0.00  0.00    +0.050 A 
ATOM     27  C   LIG    1        8.809  14.544  -5.815  0.00  0.00    -0.010 A 
ATOM     28  C   LIG    1        8.869  13.759  -6.952  0.00  0.00    +0.040 A 
ATOM     29  C   LIG    1        8.218  12.542  -6.989  0.00  0.00    -0.010 A 
ENDBRANCH  22  24
ENDBRANCH  20  22
ENDBRANCH  16  17
ENDBRANCH   5  16
TORSDOF 7
