REMARK  Name = ZINCpk00000eaunW.0
REMARK                            x       y       z     vdW  Elec       q    Type
REMARK                         _______ _______ _______ _____ _____    ______ ____
ROOT
ATOM      1  N   LIG    1        0.120  -2.018  -1.173  0.00  0.00    -0.740 N 
ATOM      2  H   LIG    1        0.061  -2.508  -0.338  0.00  0.00    +0.400 HD
ATOM      3  C   LIG    1        0.102  -0.670  -1.165  0.00  0.00    +0.710 C 
ATOM      4  N   LIG    1        0.002  -0.004   0.002  0.00  0.00    -0.730 N 
ATOM      5  H   LIG    1       -0.057  -0.494   0.837  0.00  0.00    +0.400 HD
ATOM      6  O   LIG    1        0.175  -0.056  -2.212  0.00  0.00    -0.560 OA
ENDROOT
BRANCH   1  12
ATOM      7  C   LIG    1        0.626  -6.589  -5.656  0.00  0.00    +0.160 A 
ATOM      8  C   LIG    1       -0.424  -6.935  -4.818  0.00  0.00    -0.110 A 
ATOM      9  C   LIG    1       -0.736  -6.134  -3.738  0.00  0.00    +0.090 A 
ATOM     10  C   LIG    1       -0.006  -4.985  -3.484  0.00  0.00    -0.200 A 
ATOM     11  C   LIG    1       -0.376  -4.140  -2.291  0.00  0.00    +0.090 C 
ATOM     12  C   LIG    1        0.229  -2.742  -2.442  0.00  0.00    +0.240 C 
ATOM     13  C   LIG    1        1.706  -2.894  -2.825  0.00  0.00    +0.240 C 
ATOM     14  O   LIG    1        1.776  -3.510  -4.112  0.00  0.00    -0.300 OA
ATOM     15  C   LIG    1        1.041  -4.633  -4.319  0.00  0.00    +0.170 A 
ATOM     16  C   LIG    1        1.357  -5.440  -5.407  0.00  0.00    -0.040 A 
BRANCH   7  18
ATOM     17  C   LIG    1        0.139  -8.546  -6.915  0.00  0.00    +0.250 C 
ATOM     18  O   LIG    1        0.936  -7.377  -6.720  0.00  0.00    -0.310 OA
ENDBRANCH   7  18
ENDBRANCH   1  12
BRANCH   4  19
ATOM     19  C   LIG    1       -0.018   1.461   0.010  0.00  0.00    +0.370 C 
ATOM     20  C   LIG    1       -0.707   1.962   1.286  0.00  0.00    +0.050 C 
ATOM     21  C   LIG    1       -0.470   3.469   1.429  0.00  0.00    +0.060 C 
ATOM     22  C   LIG    1        1.008   3.725   1.747  0.00  0.00    +0.310 C 
ATOM     23  N   LIG    1        1.831   2.996   0.781  0.00  0.00    -0.380 N 
ATOM     24  N   LIG    1        3.182   3.183   0.478  0.00  0.00    -0.310 NA
ATOM     25  C   LIG    1        3.483   2.305  -0.445  0.00  0.00    +0.410 A 
ATOM     26  N   LIG    1        2.397   1.584  -0.731  0.00  0.00    -0.510 NA
ATOM     27  C   LIG    1        1.396   1.989  -0.001  0.00  0.00    +0.260 A 
ENDBRANCH   4  19
TORSDOF 3
