REMARK  Name = ZINCvU00000007Q9.0
REMARK                            x       y       z     vdW  Elec       q    Type
REMARK                         _______ _______ _______ _____ _____    ______ ____
ROOT
ATOM      1  O   LIG    1        9.039  -2.045   0.619  0.00  0.00    -0.460 OA
ATOM      2  C   LIG    1        8.551  -1.651   1.657  0.00  0.00    +0.510 C 
ATOM      3  N   LIG    1        9.323  -1.513   2.753  0.00  0.00    -0.630 N 
ATOM      4  H   LIG    1        8.933  -1.198   3.584  0.00  0.00    +0.430 HD
ENDROOT
BRANCH   3   5
ATOM      5  C   LIG    1       10.673  -1.821   2.694  0.00  0.00    +0.330 A 
ATOM      6  N   LIG    1       11.283  -2.251   1.645  0.00  0.00    -0.460 NA
ATOM      7  C   LIG    1       12.604  -2.503   1.743  0.00  0.00    +0.080 A 
ATOM      8  C   LIG    1       13.489  -2.971   0.748  0.00  0.00    +0.110 A 
ATOM      9  C   LIG    1       14.813  -3.179   1.036  0.00  0.00    -0.030 A 
ATOM     10  C   LIG    1       15.307  -2.930   2.312  0.00  0.00    +0.140 A 
ATOM     11  C   LIG    1       14.459  -2.471   3.301  0.00  0.00    +0.040 A 
ATOM     12  C   LIG    1       13.111  -2.256   3.022  0.00  0.00    -0.140 A 
ATOM     13  S   LIG    1       11.792  -1.688   4.043  0.00  0.00    +0.080 S 
BRANCH  10  14
ATOM     14  O   LIG    1       16.622  -3.140   2.587  0.00  0.00    -0.250 OA
BRANCH  14  15
ATOM     15  C   LIG    1       17.422  -3.580   1.580  0.00  0.00    +0.080 A 
ATOM     16  C   LIG    1       17.591  -4.942   1.372  0.00  0.00    +0.010 A 
ATOM     17  C   LIG    1       18.401  -5.387   0.346  0.00  0.00    +0.020 A 
ATOM     18  C   LIG    1       19.050  -4.477  -0.469  0.00  0.00    +0.020 A 
ATOM     19  C   LIG    1       18.887  -3.120  -0.261  0.00  0.00    +0.020 A 
ATOM     20  C   LIG    1       18.075  -2.670   0.762  0.00  0.00    +0.010 A 
ENDBRANCH  14  15
ENDBRANCH  10  14
ENDBRANCH   3   5
BRANCH   2  21
ATOM     21  C   LIG    1        7.083  -1.316   1.721  0.00  0.00    +0.080 C 
BRANCH  21  22
ATOM     22  C   LIG    1        6.445  -1.559   0.352  0.00  0.00    +0.230 C 
BRANCH  22  23
ATOM     23  C   LIG    1        4.977  -1.224   0.416  0.00  0.00    +0.160 A 
ATOM     24  N   LIG    1        4.442  -0.061   0.174  0.00  0.00    -0.270 NA
ATOM     25  N   LIG    1        3.166  -0.134   0.323  0.00  0.00    -0.270 NA
ATOM     26  C   LIG    1        2.840  -1.358   0.669  0.00  0.00    +0.230 A 
ATOM     27  O   LIG    1        3.982  -2.071   0.740  0.00  0.00    -0.220 OA
BRANCH  26  28
ATOM     28  C   LIG    1        1.476  -1.860   0.936  0.00  0.00    -0.040 A 
ATOM     29  C   LIG    1        1.222  -3.134   1.289  0.00  0.00    -0.050 A 
ATOM     30  S   LIG    1       -0.453  -3.368   1.519  0.00  0.00    +0.220 S 
ATOM     31  C   LIG    1       -0.795  -1.690   1.124  0.00  0.00    -0.050 A 
ATOM     32  C   LIG    1        0.340  -1.052   0.845  0.00  0.00    +0.060 A 
ENDBRANCH  26  28
ENDBRANCH  22  23
ENDBRANCH  21  22
ENDBRANCH   2  21
TORSDOF 7
