REMARK  Name = ZINCqH0000005hw2.0
REMARK                            x       y       z     vdW  Elec       q    Type
REMARK                         _______ _______ _______ _____ _____    ______ ____
ROOT
ATOM      1  C   LIG    1       -2.181  -4.213  -0.283  0.00  0.00    -0.100 A 
ATOM      2  C   LIG    1       -0.951  -4.844  -0.290  0.00  0.00    +0.020 A 
ATOM      3  C   LIG    1        0.212  -4.101  -0.198  0.00  0.00    +0.030 A 
ATOM      4  C   LIG    1        0.147  -2.724  -0.105  0.00  0.00    +0.020 A 
ATOM      5  C   LIG    1       -1.087  -2.088  -0.091  0.00  0.00    +0.140 A 
ATOM      6  C   LIG    1       -2.252  -2.837  -0.184  0.00  0.00    +0.000 A 
ENDROOT
BRANCH   5   7
ATOM      7  N   LIG    1       -1.156  -0.694   0.009  0.00  0.00    -0.680 N 
ATOM      8  H   LIG    1       -1.867  -0.210  -0.439  0.00  0.00    +0.410 HD
ATOM      9  C   LIG    1       -0.234  -0.024   0.729  0.00  0.00    +0.510 C 
ATOM     10  O   LIG    1        0.598  -0.634   1.367  0.00  0.00    -0.520 OA
BRANCH   9  11
ATOM     11  C   LIG    1       -0.237   1.483   0.741  0.00  0.00    +0.070 C 
BRANCH  11  12
ATOM     12  C   LIG    1        0.903   1.988   1.628  0.00  0.00    +0.090 C 
BRANCH  12  13
ATOM     13  C   LIG    1        0.900   3.495   1.640  0.00  0.00    -0.090 A 
ATOM     14  C   LIG    1        1.636   4.195   0.702  0.00  0.00    +0.000 A 
ATOM     15  C   LIG    1        1.629   5.578   0.710  0.00  0.00    +0.000 A 
ATOM     16  C   LIG    1        0.895   6.260   1.663  0.00  0.00    +0.000 A 
ATOM     17  C   LIG    1        0.164   5.560   2.604  0.00  0.00    +0.000 A 
ATOM     18  C   LIG    1        0.166   4.177   2.592  0.00  0.00    +0.000 A 
ENDBRANCH  12  13
ENDBRANCH  11  12
ENDBRANCH   9  11
ENDBRANCH   5   7
BRANCH   1  19
ATOM     19  C   LIG    1       -3.445  -5.027  -0.384  0.00  0.00    +0.360 C 
BRANCH  19  21
ATOM     20  C   LIG    1       -4.683  -4.206  -2.442  0.00  0.00    +0.290 C 
ATOM     21  N   LIG    1       -3.811  -5.189  -1.793  0.00  0.00    -0.580 N 
ATOM     22  C   LIG    1       -3.345  -6.242  -2.494  0.00  0.00    +0.480 C 
ATOM     23  O   LIG    1       -2.623  -7.056  -1.957  0.00  0.00    -0.470 OA
BRANCH  22  24
ATOM     24  C   LIG    1       -3.721  -6.409  -3.943  0.00  0.00    +0.450 C 
ATOM     25  F   LIG    1       -3.280  -5.298  -4.670  0.00  0.00    -0.170 F 
ATOM     26  F   LIG    1       -5.111  -6.517  -4.055  0.00  0.00    -0.170 F 
ATOM     27  F   LIG    1       -3.121  -7.566  -4.451  0.00  0.00    -0.150 F 
ENDBRANCH  22  24
ENDBRANCH  19  21
ENDBRANCH   1  19
TORSDOF 7
