REMARK  Name = ZINCqH0000004XKz.0
REMARK                            x       y       z     vdW  Elec       q    Type
REMARK                         _______ _______ _______ _____ _____    ______ ____
ROOT
ATOM      1  C   LIG    1        0.841   2.506   6.853  0.00  0.00    -0.110 A 
ATOM      2  C   LIG    1        0.351   3.644   7.465  0.00  0.00    +0.040 A 
ATOM      3  C   LIG    1        1.134   4.331   8.374  0.00  0.00    +0.010 A 
ATOM      4  C   LIG    1        2.407   3.880   8.670  0.00  0.00    +0.040 A 
ATOM      5  C   LIG    1        2.896   2.741   8.058  0.00  0.00    -0.120 A 
ATOM      6  C   LIG    1        2.111   2.051   7.153  0.00  0.00    +0.040 A 
ENDROOT
BRANCH   1   7
ATOM      7  C   LIG    1       -0.013   1.756   5.863  0.00  0.00    +0.340 C 
BRANCH   7  11
ATOM      8  C   LIG    1        0.730   3.345   2.025  0.00  0.00    +0.290 C 
ATOM      9  N   LIG    1       -0.222   2.250   2.225  0.00  0.00    -0.620 N 
ATOM     10  C   LIG    1       -0.438   1.764   3.464  0.00  0.00    +0.710 C 
ATOM     11  N   LIG    1        0.222   2.285   4.517  0.00  0.00    -0.740 N 
ATOM     12  H   LIG    1        0.852   3.010   4.384  0.00  0.00    +0.400 HD
ATOM     13  O   LIG    1       -1.228   0.855   3.630  0.00  0.00    -0.590 OA
BRANCH   9  14
ATOM     14  C   LIG    1       -0.939   1.683   1.080  0.00  0.00    +0.260 C 
ATOM     15  C   LIG    1       -0.013   1.086   0.008  0.00  0.00    +0.000 C 
ATOM     16  C   LIG    1       -0.959   1.695  -1.040  0.00  0.00    +0.020 C 
ATOM     17  C   LIG    1       -1.349   2.730   0.028  0.00  0.00    +0.010 C 
ENDBRANCH   9  14
ENDBRANCH   7  11
ENDBRANCH   1   7
BRANCH   5  18
ATOM     18  C   LIG    1        4.283   2.249   8.381  0.00  0.00    +0.360 C 
BRANCH  18  19
ATOM     19  N   LIG    1        4.220   1.318   9.510  0.00  0.00    -0.490 N 
ATOM     20  C   LIG    1        4.420   1.625  10.820  0.00  0.00    +0.470 A 
ATOM     21  N   LIG    1        4.284   0.559  11.555  0.00  0.00    -0.490 NA
ATOM     22  C   LIG    1        3.998  -0.507  10.764  0.00  0.00    +0.040 A 
ATOM     23  C   LIG    1        3.764  -1.860  11.020  0.00  0.00    +0.070 A 
ATOM     24  C   LIG    1        3.495  -2.712   9.985  0.00  0.00    +0.000 A 
ATOM     25  C   LIG    1        3.450  -2.247   8.679  0.00  0.00    +0.030 A 
ATOM     26  C   LIG    1        3.678  -0.915   8.404  0.00  0.00    +0.010 A 
ATOM     27  C   LIG    1        3.953  -0.035   9.441  0.00  0.00    +0.050 A 
ENDBRANCH  18  19
ENDBRANCH   5  18
TORSDOF 5
