REMARK  Name = ZINCrg000000nTYx.0
REMARK                            x       y       z     vdW  Elec       q    Type
REMARK                         _______ _______ _______ _____ _____    ______ ____
ROOT
ATOM      1  C   LIG    1        2.327   7.972  -2.428  0.00  0.00    +0.510 C 
ATOM      2  N   LIG    1        1.741   8.754  -1.500  0.00  0.00    -0.600 N 
ATOM      3  C   LIG    1        1.280  10.098  -1.860  0.00  0.00    +0.310 C 
ATOM      4  O   LIG    1        2.709   6.860  -2.131  0.00  0.00    -0.520 OA
ENDROOT
BRANCH   1   5
ATOM      5  C   LIG    1        2.508   8.479  -3.836  0.00  0.00    +0.340 C 
BRANCH   5   9
ATOM      6  N   LIG    1        4.394   5.801  -6.571  0.00  0.00    -0.600 N 
ATOM      7  C   LIG    1        2.982   6.150  -6.722  0.00  0.00    +0.290 C 
ATOM      8  C   LIG    1        2.359   6.463  -5.365  0.00  0.00    +0.290 C 
ATOM      9  N   LIG    1        3.165   7.450  -4.645  0.00  0.00    -0.590 N 
ATOM     10  C   LIG    1        4.510   7.414  -4.725  0.00  0.00    +0.520 C 
ATOM     11  O   LIG    1        5.187   8.159  -4.047  0.00  0.00    -0.470 OA
ATOM     12  C   LIG    1        5.157   6.442  -5.663  0.00  0.00    +0.520 C 
ATOM     13  O   LIG    1        6.351   6.235  -5.606  0.00  0.00    -0.480 OA
BRANCH   6  15
ATOM     14  C   LIG    1        5.537   5.373  -8.690  0.00  0.00    +0.020 C 
ATOM     15  C   LIG    1        4.982   4.752  -7.407  0.00  0.00    +0.290 C 
ENDBRANCH   6  15
ENDBRANCH   5   9
ENDBRANCH   1   5
BRANCH   2  16
ATOM     16  C   LIG    1        1.565   8.261  -0.132  0.00  0.00    +0.330 C 
BRANCH  16  17
ATOM     17  C   LIG    1        2.774   8.623   0.692  0.00  0.00    +0.500 C 
ATOM     18  N   LIG    1        2.835   8.269   1.991  0.00  0.00    -0.690 N 
ATOM     19  H   LIG    1        2.071   7.847   2.414  0.00  0.00    +0.410 HD
ATOM     20  O   LIG    1        3.692   9.233   0.185  0.00  0.00    -0.500 OA
BRANCH  18  21
ATOM     21  C   LIG    1        4.000   8.512   2.728  0.00  0.00    +0.150 A 
ATOM     22  C   LIG    1        5.011   7.560   2.766  0.00  0.00    -0.020 A 
ATOM     23  C   LIG    1        6.162   7.804   3.492  0.00  0.00    +0.050 A 
ATOM     24  C   LIG    1        6.303   8.991   4.188  0.00  0.00    +0.060 A 
ATOM     25  C   LIG    1        5.296   9.938   4.157  0.00  0.00    +0.050 A 
ATOM     26 CL   LIG    1        4.832   6.067   1.898  0.00  0.00    -0.040 Cl
ATOM     27  C   LIG    1        4.145   9.702   3.429  0.00  0.00    -0.020 A 
ATOM     28 CL   LIG    1        2.882  10.893   3.391  0.00  0.00    -0.050 Cl
ENDBRANCH  18  21
ENDBRANCH  16  17
ENDBRANCH   2  16
TORSDOF 6
