REMARK  Name = ZINCqH0000008CNJ.0
REMARK                            x       y       z     vdW  Elec       q    Type
REMARK                         _______ _______ _______ _____ _____    ______ ____
ROOT
ATOM      1  C   LIG    1       -8.851   1.208   3.536  0.00  0.00    +0.080 C 
ATOM      2  C   LIG    1       -8.214   1.748   2.253  0.00  0.00    +0.030 C 
ATOM      3  C   LIG    1       -7.651   0.591   1.443  0.00  0.00    +0.030 C 
ATOM      4  C   LIG    1       -7.223   0.929   0.035  0.00  0.00    +0.300 C 
ATOM      5  N   LIG    1       -6.050   1.818   0.040  0.00  0.00    -0.570 N 
ATOM      6  C   LIG    1       -6.265   3.203   0.049  0.00  0.00    +0.150 A 
ATOM      7  C   LIG    1       -6.024   3.943  -1.102  0.00  0.00    +0.000 A 
ATOM      8  C   LIG    1       -6.283   5.301  -1.111  0.00  0.00    +0.040 A 
ATOM      9  C   LIG    1       -6.784   5.932   0.013  0.00  0.00    +0.030 A 
ATOM     10  C   LIG    1       -7.010   5.205   1.171  0.00  0.00    +0.080 A 
ATOM     11  C   LIG    1       -6.726   3.853   1.184  0.00  0.00    -0.100 A 
ATOM     12  C   LIG    1       -4.801   1.313   0.032  0.00  0.00    +0.530 C 
ATOM     13  O   LIG    1       -4.632   0.112   0.024  0.00  0.00    -0.480 OA
ATOM     14  S   LIG    1       -6.889   2.913   2.683  0.00  0.00    -0.150 S 
ENDROOT
BRANCH  12  15
ATOM     15  C   LIG    1       -3.613   2.240   0.031  0.00  0.00    +0.240 C 
BRANCH  15  16
ATOM     16  O   LIG    1       -2.409   1.472   0.021  0.00  0.00    -0.250 OA
BRANCH  16  17
ATOM     17  C   LIG    1       -1.239   2.159   0.020  0.00  0.00    +0.190 A 
ATOM     18  C   LIG    1       -1.247   3.546   0.033  0.00  0.00    -0.070 A 
ATOM     19  C   LIG    1       -0.056   4.245   0.024  0.00  0.00    +0.100 A 
ATOM     20  C   LIG    1        1.154   3.569   0.010  0.00  0.00    -0.080 A 
ATOM     21  C   LIG    1        1.180   2.190   0.003  0.00  0.00    +0.110 A 
ATOM     22 CL   LIG    1        2.643   4.461   0.001  0.00  0.00    -0.060 Cl
ATOM     23  C   LIG    1       -0.018   1.471   0.010  0.00  0.00    -0.160 A 
BRANCH  23  24
ATOM     24  C   LIG    1        0.002  -0.004   0.002  0.00  0.00    +0.560 C 
ATOM     25  O   LIG    1       -1.042  -0.626   0.009  0.00  0.00    -0.500 OA
ATOM     26  N   LIG    1        1.178  -0.662  -0.013  0.00  0.00    -0.850 N 
ATOM     27  H   LIG    1        1.191  -1.632  -0.018  0.00  0.00    +0.410 HD
ATOM     28  H   LIG    1        2.012  -0.166  -0.018  0.00  0.00    +0.400 HD
ENDBRANCH  23  24
ENDBRANCH  16  17
ENDBRANCH  15  16
ENDBRANCH  12  15
TORSDOF 4
