REMARK  Name = ZINCrg000000oTsS.0
REMARK                            x       y       z     vdW  Elec       q    Type
REMARK                         _______ _______ _______ _____ _____    ______ ____
ROOT
ATOM      1  N   LIG    1       -0.011   0.966   0.007  0.00  0.00    -0.500 N 
ATOM      2  H   LIG    1        0.002  -0.004   0.002  0.00  0.00    +0.440 HD
ATOM      3  C   LIG    1       -1.187   1.624   0.017  0.00  0.00    +0.600 C 
ATOM      4  O   LIG    1       -1.204   2.840   0.023  0.00  0.00    -0.520 OA
ENDROOT
BRANCH   3   5
ATOM      5  C   LIG    1       -2.456   0.868   0.018  0.00  0.00    +0.060 A 
ATOM      6  N   LIG    1       -2.447  -0.443   0.011  0.00  0.00    -0.190 NA
ATOM      7  N   LIG    1       -3.499  -1.170   0.013  0.00  0.00    -0.360 N 
ATOM      8  C   LIG    1       -4.752  -0.668   0.022  0.00  0.00    +0.520 A 
ATOM      9  C   LIG    1       -4.921   0.791   0.031  0.00  0.00    -0.140 A 
ATOM     10  C   LIG    1       -6.168   1.408   0.041  0.00  0.00    +0.090 A 
ATOM     11  C   LIG    1       -6.241   2.785   0.049  0.00  0.00    +0.030 A 
ATOM     12  C   LIG    1       -5.087   3.557   0.047  0.00  0.00    +0.060 A 
ATOM     13  C   LIG    1       -3.841   2.965   0.037  0.00  0.00    +0.070 A 
ATOM     14  O   LIG    1       -5.719  -1.407   0.022  0.00  0.00    -0.490 OA
ATOM     15  C   LIG    1       -3.336  -2.626   0.004  0.00  0.00    +0.360 C 
ATOM     16  C   LIG    1       -3.745   1.578   0.035  0.00  0.00    -0.030 A 
ENDBRANCH   3   5
BRANCH   1  18
ATOM     17  C   LIG    1        2.369   1.025  -0.015  0.00  0.00    +0.570 C 
ATOM     18  N   LIG    1        1.193   1.683  -0.000  0.00  0.00    -0.520 N 
ATOM     19  H   LIG    1        1.179   2.653   0.005  0.00  0.00    +0.430 HD
ATOM     20  O   LIG    1        2.385  -0.191  -0.022  0.00  0.00    -0.530 OA
BRANCH  17  25
ATOM     21  C   LIG    1        6.045   1.820  -0.046  0.00  0.00    +0.210 A 
ATOM     22  C   LIG    1        6.017   3.209  -0.039  0.00  0.00    -0.040 A 
ATOM     23  C   LIG    1        4.809   3.881  -0.024  0.00  0.00    +0.060 A 
ATOM     24  C   LIG    1        3.623   3.178  -0.021  0.00  0.00    -0.020 A 
ATOM     25  C   LIG    1        3.639   1.782  -0.023  0.00  0.00    -0.080 A 
ATOM     26  C   LIG    1        4.857   1.103  -0.038  0.00  0.00    +0.010 A 
BRANCH  21  28
ATOM     27  C   LIG    1        7.296  -0.320  -0.070  0.00  0.00    +0.280 C 
ATOM     28  N   LIG    1        7.268   1.145  -0.062  0.00  0.00    -0.640 N 
ATOM     29  C   LIG    1        8.522   1.902  -0.071  0.00  0.00    +0.280 C 
ENDBRANCH  21  28
ENDBRANCH  17  25
ENDBRANCH   1  18
TORSDOF 4
