REMARK  Name = ZINCqH0000003QJO.0
REMARK                            x       y       z     vdW  Elec       q    Type
REMARK                         _______ _______ _______ _____ _____    ______ ____
ROOT
ATOM      1  C   LIG    1        3.548  -2.052   0.080  0.00  0.00    +0.170 C 
ATOM      2  C   LIG    1        3.475  -2.460   1.554  0.00  0.00    +0.010 C 
ATOM      3  C   LIG    1        3.375  -3.985   1.653  0.00  0.00    +0.310 C 
ATOM      4  N   LIG    1        4.498  -4.581   0.917  0.00  0.00    -0.620 N 
ATOM      5  C   LIG    1        4.715  -4.187  -0.482  0.00  0.00    +0.290 C 
ATOM      6  C   LIG    1        5.315  -5.472   1.514  0.00  0.00    +0.710 C 
ATOM      7  N   LIG    1        6.401  -5.933   0.862  0.00  0.00    -0.620 N 
ATOM      8  H   LIG    1        6.553  -5.684  -0.063  0.00  0.00    +0.430 HD
ATOM      9  O   LIG    1        5.071  -5.860   2.640  0.00  0.00    -0.550 OA
ATOM     10  C   LIG    1        4.799  -2.660  -0.557  0.00  0.00    +0.040 C 
ENDROOT
BRANCH   7  11
ATOM     11  C   LIG    1        7.301  -6.761   1.514  0.00  0.00    +0.440 A 
ATOM     12  N   LIG    1        8.388  -7.271   0.992  0.00  0.00    -0.500 NA
ATOM     13  C   LIG    1        9.004  -8.020   1.925  0.00  0.00    +0.000 A 
ATOM     14  C   LIG    1        8.269  -7.963   3.046  0.00  0.00    -0.060 A 
ATOM     15  C   LIG    1        8.576  -8.651   4.352  0.00  0.00    +0.190 C 
ATOM     16  C   LIG    1       10.289  -8.786   1.744  0.00  0.00    +0.170 C 
ATOM     17  O   LIG    1        7.207  -7.170   2.789  0.00  0.00    -0.180 OA
ENDBRANCH   7  11
BRANCH   1  18
ATOM     18  O   LIG    1        3.608  -0.627  -0.017  0.00  0.00    -0.300 OA
BRANCH  18  24
ATOM     19  C   LIG    1        2.417   1.438   0.029  0.00  0.00    +0.100 A 
ATOM     20  C   LIG    1        1.212   2.118   0.079  0.00  0.00    -0.040 A 
ATOM     21  C   LIG    1        0.022   1.415   0.133  0.00  0.00    +0.010 A 
ATOM     22  C   LIG    1        0.033   0.033   0.136  0.00  0.00    +0.010 A 
ATOM     23  C   LIG    1        1.232  -0.653   0.086  0.00  0.00    -0.040 A 
ATOM     24  C   LIG    1        2.428   0.046   0.033  0.00  0.00    +0.100 A 
BRANCH  19  25
ATOM     25  O   LIG    1        3.588   2.128  -0.024  0.00  0.00    -0.310 OA
BRANCH  25  27
ATOM     26  C   LIG    1        4.908   4.151  -0.087  0.00  0.00    +0.070 C 
ATOM     27  C   LIG    1        3.501   3.554  -0.024  0.00  0.00    +0.170 C 
ENDBRANCH  25  27
ENDBRANCH  19  25
ENDBRANCH  18  24
ENDBRANCH   1  18
TORSDOF 5
