REMARK  Name = ZINC560000002wEH.0
REMARK                            x       y       z     vdW  Elec       q    Type
REMARK                         _______ _______ _______ _____ _____    ______ ____
ROOT
ATOM      1  C   LIG    1       -0.013   1.086   0.008  0.00  0.00    +0.310 C 
ATOM      2  N   LIG    1       -0.698   1.558   1.213  0.00  0.00    -0.590 N 
ATOM      3  C   LIG    1        0.063   1.806   2.440  0.00  0.00    +0.310 C 
ENDROOT
BRANCH   2   4
ATOM      4  C   LIG    1       -2.037   1.766   1.194  0.00  0.00    +0.410 C 
ATOM      5  N   LIG    1       -3.160   1.940   1.177  0.00  0.00    -0.450 NA
ENDBRANCH   2   4
TORSDOF 1
