REMARK  Name = ZINCrH000004qH5P.0
REMARK                            x       y       z     vdW  Elec       q    Type
REMARK                         _______ _______ _______ _____ _____    ______ ____
ROOT
ATOM      1  C   LIG    1       -3.805   3.562   0.062  0.00  0.00    +0.580 C 
ATOM      2  N   LIG    1       -3.819   2.218   0.160  0.00  0.00    -0.610 N 
ATOM      3  C   LIG    1       -2.641   1.362   0.365  0.00  0.00    +0.260 C 
ATOM      4  C   LIG    1       -3.136  -0.100   0.387  0.00  0.00    +0.040 C 
ATOM      5  C   LIG    1       -4.487  -0.021  -0.373  0.00  0.00    +0.240 C 
ATOM      6  C   LIG    1       -5.018   1.363   0.085  0.00  0.00    +0.260 C 
ATOM      7  O   LIG    1       -4.851   4.176  -0.015  0.00  0.00    -0.510 OA
ENDROOT
BRANCH   1  17
ATOM      8  C   LIG    1       -3.060   5.484   4.853  0.00  0.00    +0.100 C 
ATOM      9  C   LIG    1       -2.268   5.534   3.572  0.00  0.00    -0.080 A 
ATOM     10  C   LIG    1       -1.058   6.213   3.537  0.00  0.00    +0.050 A 
ATOM     11  C   LIG    1       -0.317   6.270   2.374  0.00  0.00    +0.060 A 
ATOM     12  C   LIG    1       -0.788   5.641   1.222  0.00  0.00    +0.150 A 
ATOM     13  N   LIG    1       -0.059   5.689   0.052  0.00  0.00    -0.630 N 
ATOM     14  H   LIG    1        0.786   6.166   0.038  0.00  0.00    +0.420 HD
ATOM     15  C   LIG    1       -0.496   5.089  -1.069  0.00  0.00    +0.540 A 
ATOM     16  C   LIG    1       -1.763   4.362  -1.088  0.00  0.00    +0.020 A 
ATOM     17  C   LIG    1       -2.514   4.292   0.050  0.00  0.00    -0.030 A 
ATOM     18  O   LIG    1        0.175   5.152  -2.084  0.00  0.00    -0.510 OA
ATOM     19  C   LIG    1       -2.015   4.956   1.264  0.00  0.00    -0.080 A 
ATOM     20  F   LIG    1        0.860   6.932   2.352  0.00  0.00    -0.130 F 
ATOM     21  C   LIG    1       -2.745   4.907   2.456  0.00  0.00    +0.070 A 
ENDBRANCH   1  17
BRANCH   5  22
ATOM     22  N   LIG    1       -5.390  -1.093   0.051  0.00  0.00    -0.740 N 
ATOM     23  H   LIG    1       -5.290  -1.493   0.929  0.00  0.00    +0.400 HD
BRANCH  22  24
ATOM     24  C   LIG    1       -6.396  -1.540  -0.810  0.00  0.00    +0.210 A 
ATOM     25  C   LIG    1       -6.544  -0.964  -2.065  0.00  0.00    -0.080 A 
ATOM     26  C   LIG    1       -7.536  -1.411  -2.916  0.00  0.00    +0.050 A 
ATOM     27  C   LIG    1       -8.388  -2.424  -2.514  0.00  0.00    -0.050 A 
ATOM     28  C   LIG    1       -8.247  -2.995  -1.263  0.00  0.00    +0.050 A 
ATOM     29  C   LIG    1       -7.253  -2.557  -0.410  0.00  0.00    -0.070 A 
ENDBRANCH  22  24
ENDBRANCH   5  22
TORSDOF 3
