REMARK  Name = ZINCrD000007439P.0
REMARK                            x       y       z     vdW  Elec       q    Type
REMARK                         _______ _______ _______ _____ _____    ______ ____
ROOT
ATOM      1  N   LIG    1       -0.167  10.123  -2.849  0.00  0.00    -0.730 N 
ATOM      2  H   LIG    1       -0.437   9.553  -3.586  0.00  0.00    +0.400 HD
ATOM      3  C   LIG    1       -0.342   9.710  -1.578  0.00  0.00    +0.710 C 
ATOM      4  N   LIG    1       -0.893   8.504  -1.331  0.00  0.00    -0.740 N 
ATOM      5  H   LIG    1       -1.163   7.935  -2.069  0.00  0.00    +0.400 HD
ATOM      6  O   LIG    1       -0.004  10.424  -0.654  0.00  0.00    -0.580 OA
ENDROOT
BRANCH   1  17
ATOM      7  C   LIG    1       -1.267  11.312  -4.990  0.00  0.00    +0.090 C 
ATOM      8  C   LIG    1        0.052  11.937  -4.529  0.00  0.00    +0.180 C 
ATOM      9  O   LIG    1        1.147  11.471  -5.337  0.00  0.00    -0.290 OA
ATOM     10  C   LIG    1        2.265  11.375  -4.566  0.00  0.00    +0.140 A 
ATOM     11  C   LIG    1        3.604  11.308  -4.941  0.00  0.00    -0.040 A 
ATOM     12  C   LIG    1        4.590  11.193  -3.979  0.00  0.00    +0.150 A 
ATOM     13  C   LIG    1        4.254  11.142  -2.637  0.00  0.00    -0.050 A 
ATOM     14  C   LIG    1        2.925  11.210  -2.259  0.00  0.00    +0.120 A 
ATOM     15  F   LIG    1        5.887  11.130  -4.351  0.00  0.00    -0.130 F 
ATOM     16  C   LIG    1        1.942  11.329  -3.216  0.00  0.00    -0.200 A 
ATOM     17  C   LIG    1        0.432  11.433  -3.116  0.00  0.00    +0.300 C 
ENDBRANCH   1  17
BRANCH   4  18
ATOM     18  C   LIG    1       -1.083   8.055   0.050  0.00  0.00    +0.340 C 
BRANCH  18  19
ATOM     19  C   LIG    1       -1.712   6.685   0.050  0.00  0.00    -0.080 A 
ATOM     20  C   LIG    1       -3.089   6.557   0.062  0.00  0.00    +0.020 A 
ATOM     21  C   LIG    1       -3.670   5.302   0.062  0.00  0.00    +0.050 A 
ATOM     22  C   LIG    1       -2.875   4.172   0.044  0.00  0.00    +0.010 A 
ATOM     23  C   LIG    1       -1.493   4.298   0.037  0.00  0.00    +0.140 A 
ATOM     24  C   LIG    1       -0.913   5.559   0.037  0.00  0.00    +0.020 A 
BRANCH  23  25
ATOM     25  N   LIG    1       -0.684   3.152   0.024  0.00  0.00    -0.410 N 
ATOM     26  C   LIG    1       -1.114   1.851   0.017  0.00  0.00    +0.130 A 
ATOM     27  C   LIG    1       -0.013   1.076   0.008  0.00  0.00    +0.160 A 
ATOM     28  N   LIG    1        1.063   1.877   0.002  0.00  0.00    -0.480 NA
ATOM     29  C   LIG    1        0.674   3.123   0.012  0.00  0.00    +0.400 A 
ENDBRANCH  23  25
ENDBRANCH  18  19
ENDBRANCH   4  18
TORSDOF 4
