REMARK  Name = ZINCrH000004s4w1.0
REMARK                            x       y       z     vdW  Elec       q    Type
REMARK                         _______ _______ _______ _____ _____    ______ ____
ROOT
ATOM      1  C   LIG    1       -0.054   0.102   0.171  0.00  0.00    +0.190 A 
ATOM      2  N   LIG    1        0.076   1.409   0.162  0.00  0.00    -0.280 NA
ATOM      3  N   LIG    1        1.300   1.729  -0.064  0.00  0.00    -0.250 NA
ATOM      4  C   LIG    1        2.026   0.646  -0.215  0.00  0.00    +0.200 A 
ATOM      5  N   LIG    1        1.181  -0.430  -0.069  0.00  0.00    -0.300 N 
ENDROOT
BRANCH   4   6
ATOM      6  C   LIG    1        3.478   0.592  -0.490  0.00  0.00    -0.050 A 
ATOM      7  C   LIG    1        4.274   1.718  -0.270  0.00  0.00    +0.120 A 
ATOM      8  C   LIG    1        5.628   1.662  -0.522  0.00  0.00    -0.030 A 
ATOM      9  C   LIG    1        6.198   0.492  -1.005  0.00  0.00    +0.120 A 
ATOM     10  C   LIG    1        5.409  -0.628  -1.230  0.00  0.00    +0.030 A 
ATOM     11  C   LIG    1        4.055  -0.582  -0.975  0.00  0.00    +0.050 A 
BRANCH   9  12
ATOM     12  O   LIG    1        7.532   0.443  -1.258  0.00  0.00    -0.320 OA
BRANCH  12  13
ATOM     13  C   LIG    1        8.285   1.631  -1.004  0.00  0.00    +0.600 C 
ATOM     14  F   LIG    1        8.171   1.976   0.347  0.00  0.00    -0.200 F 
ATOM     15  F   LIG    1        7.791   2.674  -1.795  0.00  0.00    -0.190 F 
ENDBRANCH  12  13
ENDBRANCH   9  12
ENDBRANCH   4   6
BRANCH   5  16
ATOM     16  N   LIG    1        1.509  -1.754  -0.148  0.00  0.00    -0.590 N 
ATOM     17  H   LIG    1        2.399  -1.933   0.293  0.00  0.00    +0.380 HD
ATOM     18  H   LIG    1        1.510  -2.070  -1.106  0.00  0.00    +0.370 HD
ENDBRANCH   5  16
BRANCH   1  19
ATOM     19  S   LIG    1       -1.545  -0.798   0.440  0.00  0.00    +0.060 S 
BRANCH  19  20
ATOM     20  C   LIG    1       -2.702   0.574   0.676  0.00  0.00    +0.100 C 
BRANCH  20  21
ATOM     21  C   LIG    1       -4.105   0.019   0.933  0.00  0.00    +0.220 C 
BRANCH  21  22
ATOM     22  O   LIG    1       -5.018   1.102   1.119  0.00  0.00    -0.300 OA
BRANCH  22  29
ATOM     23  C   LIG    1       -6.838   3.229   1.502  0.00  0.00    +0.100 C 
ATOM     24  C   LIG    1       -7.256   1.782   1.555  0.00  0.00    -0.110 A 
ATOM     25  C   LIG    1       -8.576   1.452   1.793  0.00  0.00    +0.050 A 
ATOM     26  C   LIG    1       -8.959   0.124   1.849  0.00  0.00    -0.030 A 
ATOM     27  C   LIG    1       -8.024  -0.876   1.660  0.00  0.00    +0.040 A 
ATOM     28  C   LIG    1       -6.703  -0.551   1.415  0.00  0.00    -0.070 A 
ATOM     29  C   LIG    1       -6.316   0.780   1.359  0.00  0.00    +0.130 A 
ENDBRANCH  22  29
ENDBRANCH  21  22
ENDBRANCH  20  21
ENDBRANCH  19  20
ENDBRANCH   1  19
TORSDOF 9
