REMARK  Name = ZINCrH00000No4XC.0
REMARK                            x       y       z     vdW  Elec       q    Type
REMARK                         _______ _______ _______ _____ _____    ______ ____
ROOT
ATOM      1  C   LIG    1        2.554   3.351  -1.913  0.00  0.00    +0.390 C 
ATOM      2  O   LIG    1        3.060   2.894  -2.918  0.00  0.00    -0.450 OA
ENDROOT
BRANCH   1   3
ATOM      3  C   LIG    1        3.366   3.840  -0.879  0.00  0.00    -0.230 C 
ATOM      4  C   LIG    1        4.711   3.893  -1.042  0.00  0.00    +0.270 C 
ATOM      5  N   LIG    1        5.613   4.407  -0.163  0.00  0.00    -0.530 N 
ATOM      6  C   LIG    1        6.920   4.303  -0.637  0.00  0.00    +0.140 A 
ATOM      7  C   LIG    1        8.129   4.695  -0.063  0.00  0.00    -0.020 A 
ATOM      8  C   LIG    1        9.314   4.490  -0.738  0.00  0.00    +0.040 A 
ATOM      9  C   LIG    1        9.315   3.896  -1.986  0.00  0.00    -0.010 A 
ATOM     10  C   LIG    1        8.119   3.504  -2.563  0.00  0.00    +0.070 A 
ATOM     11  C   LIG    1        6.933   3.707  -1.892  0.00  0.00    -0.130 A 
ATOM     12  C   LIG    1        5.255   4.995   1.130  0.00  0.00    +0.320 C 
ATOM     13  C   LIG    1        5.495   3.400  -2.240  0.00  0.00    +0.000 C 
ATOM     14  C   LIG    1        5.076   4.156  -3.502  0.00  0.00    +0.080 C 
ATOM     15  C   LIG    1        5.298   1.894  -2.425  0.00  0.00    +0.080 C 
ENDBRANCH   1   3
BRANCH   1  17
ATOM     16  C   LIG    1        0.552   4.803  -2.099  0.00  0.00    +0.060 C 
ATOM     17  C   LIG    1        1.054   3.394  -1.776  0.00  0.00    +0.150 C 
BRANCH  17  18
ATOM     18  O   LIG    1        0.457   2.445  -2.698  0.00  0.00    -0.330 OA
BRANCH  18  19
ATOM     19  C   LIG    1       -0.710   1.892  -2.333  0.00  0.00    +0.460 C 
ATOM     20  O   LIG    1       -1.217   2.192  -1.277  0.00  0.00    -0.510 OA
BRANCH  19  21
ATOM     21  C   LIG    1       -1.387   0.893  -3.236  0.00  0.00    +0.110 C 
BRANCH  21  22
ATOM     22  C   LIG    1       -2.687   0.416  -2.586  0.00  0.00    +0.040 C 
BRANCH  22  23
ATOM     23  C   LIG    1       -3.374  -0.598  -3.503  0.00  0.00    +0.160 C 
ATOM     24  C   LIG    1       -4.744  -0.994  -2.912  0.00  0.00    +0.010 C 
ATOM     25  C   LIG    1       -4.805  -2.517  -3.217  0.00  0.00    +0.000 C 
ATOM     26  C   LIG    1       -3.312  -2.907  -3.072  0.00  0.00    +0.200 C 
ATOM     27  O   LIG    1       -2.580  -1.787  -3.593  0.00  0.00    -0.380 OA
ENDBRANCH  22  23
ENDBRANCH  21  22
ENDBRANCH  19  21
ENDBRANCH  18  19
ENDBRANCH  17  18
ENDBRANCH   1  17
TORSDOF 7
