REMARK  Name = ZINCqH00000008dq.0
REMARK                            x       y       z     vdW  Elec       q    Type
REMARK                         _______ _______ _______ _____ _____    ______ ____
ROOT
ATOM      1  C   LIG    1       -3.302   5.192  -3.993  0.00  0.00    -0.140 A 
ATOM      2  C   LIG    1       -3.974   4.003  -4.281  0.00  0.00    +0.150 A 
ATOM      3  C   LIG    1       -3.524   2.813  -3.750  0.00  0.00    +0.020 A 
ATOM      4  C   LIG    1       -2.406   2.796  -2.933  0.00  0.00    +0.070 A 
ATOM      5  C   LIG    1       -1.734   3.972  -2.643  0.00  0.00    -0.680 A 
ATOM      6 CL   LIG    1       -1.845   1.293  -2.268  0.00  0.00    -0.030 Cl
ATOM      7  C   LIG    1       -2.179   5.169  -3.164  0.00  0.00    +0.170 A 
ENDROOT
BRANCH   1   9
ATOM      8  N   LIG    1       -3.881   7.560  -3.773  0.00  0.00    -0.600 N 
ATOM      9  C   LIG    1       -3.779   6.471  -4.560  0.00  0.00    +0.560 C 
ATOM     10  O   LIG    1       -4.080   6.540  -5.736  0.00  0.00    -0.520 OA
BRANCH   8  11
ATOM     11  C   LIG    1       -3.399   7.513  -2.390  0.00  0.00    +0.260 C 
ATOM     12  C   LIG    1       -1.992   8.109  -2.319  0.00  0.00    +0.040 C 
ENDBRANCH   8  11
BRANCH   8  13
ATOM     13  C   LIG    1       -4.472   8.792  -4.301  0.00  0.00    +0.340 C 
BRANCH  13  15
ATOM     14  C   LIG    1       -6.447   9.374  -2.988  0.00  0.00    +0.020 C 
ATOM     15  C   LIG    1       -5.958   8.784  -4.050  0.00  0.00    -0.140 C 
ATOM     16  C   LIG    1       -6.882   8.095  -5.021  0.00  0.00    +0.070 C 
ENDBRANCH  13  15
ENDBRANCH   8  13
ENDBRANCH   1   9
BRANCH   5  17
ATOM     17  S   LIG    1       -0.313   3.940  -1.602  0.00  0.00    +2.690 S 
ATOM     18  O   LIG    1        0.520   2.899  -2.093  0.00  0.00    -0.930 OA
ATOM     19  O   LIG    1        0.120   5.287  -1.472  0.00  0.00    -0.950 OA
BRANCH  17  20
ATOM     20  N   LIG    1       -0.818   3.464  -0.098  0.00  0.00    -0.990 NA
ATOM     21  C   LIG    1       -0.844   2.041   0.268  0.00  0.00    +0.280 C 
ATOM     22  C   LIG    1       -0.052   1.851   1.565  0.00  0.00    +0.020 C 
ATOM     23  C   LIG    1       -0.609   2.787   2.640  0.00  0.00    +0.030 C 
ATOM     24  C   LIG    1       -0.452   4.240   2.186  0.00  0.00    -0.020 C 
ATOM     25  C   LIG    1       -0.980   5.175   3.276  0.00  0.00    +0.030 C 
ATOM     26  C   LIG    1       -1.248   4.457   0.896  0.00  0.00    +0.280 C 
ENDBRANCH  17  20
ENDBRANCH   5  17
TORSDOF 6
