REMARK  Name = ZINCtV00000L6kVw.0
REMARK                            x       y       z     vdW  Elec       q    Type
REMARK                         _______ _______ _______ _____ _____    ______ ____
ROOT
ATOM      1  P   LIG    1       -1.641  -1.532   0.036  0.00  0.00    +2.700 P 
ATOM      2  N   LIG    1       -2.120  -0.188  -0.581  0.00  0.00    -1.200 NA
ENDROOT
BRANCH   1   3
ATOM      3  N   LIG    1       -1.990  -1.549   1.682  0.00  0.00    -0.930 NA
ATOM      4  C   LIG    1       -3.451  -1.528   1.915  0.00  0.00    +0.210 C 
ATOM      5  C   LIG    1       -3.810  -1.270   3.353  0.00  0.00    +0.040 C 
ATOM      6  C   LIG    1       -4.039   0.245   3.536  0.00  0.00    +0.010 C 
ATOM      7  C   LIG    1       -2.785   0.985   3.632  0.00  0.00    +0.010 C 
ATOM      8  C   LIG    1       -1.926   0.842   2.359  0.00  0.00    +0.020 C 
ATOM      9  C   LIG    1       -1.236  -0.494   2.396  0.00  0.00    +0.230 C 
ENDBRANCH   1   3
BRANCH   1  10
ATOM     10  C   LIG    1        0.148  -1.703  -0.205  0.00  0.00    -0.690 A 
ATOM     11  C   LIG    1        0.992  -0.612  -0.062  0.00  0.00    +0.050 A 
ATOM     12  C   LIG    1        2.350  -0.781  -0.253  0.00  0.00    +0.270 A 
ATOM     13  N   LIG    1        2.845  -1.962  -0.568  0.00  0.00    -0.450 NA
ATOM     14  C   LIG    1        2.073  -3.022  -0.712  0.00  0.00    +0.250 A 
ATOM     15  C   LIG    1        0.706  -2.929  -0.536  0.00  0.00    +0.020 A 
ENDBRANCH   1  10
BRANCH   2  16
ATOM     16  C   LIG    1       -2.018   0.016  -1.886  0.00  0.00    +0.330 A 
ATOM     17  C   LIG    1       -1.108  -0.747  -2.661  0.00  0.00    -0.190 A 
ATOM     18  C   LIG    1       -1.015  -0.526  -4.003  0.00  0.00    +0.080 A 
ATOM     19  C   LIG    1       -1.806   0.441  -4.612  0.00  0.00    -0.090 A 
ATOM     20  C   LIG    1       -2.701   1.197  -3.866  0.00  0.00    +0.110 A 
ATOM     21  C   LIG    1       -2.822   0.995  -2.523  0.00  0.00    -0.260 A 
BRANCH  21  22
ATOM     22  C   LIG    1       -3.800   1.813  -1.719  0.00  0.00    +0.530 C 
ATOM     23  F   LIG    1       -3.110   2.532  -0.737  0.00  0.00    -0.180 F 
ATOM     24  F   LIG    1       -4.728   0.962  -1.109  0.00  0.00    -0.180 F 
ATOM     25  F   LIG    1       -4.470   2.703  -2.565  0.00  0.00    -0.190 F 
ENDBRANCH  21  22
ENDBRANCH   2  16
BRANCH   1  27
ATOM     26  C   LIG    1       -2.326  -4.187   0.050  0.00  0.00    +0.070 C 
ATOM     27  C   LIG    1       -2.500  -2.916  -0.782  0.00  0.00    -0.690 C 
ATOM     28  C   LIG    1       -1.905  -3.133  -2.175  0.00  0.00    +0.060 C 
ATOM     29  C   LIG    1       -3.989  -2.589  -0.909  0.00  0.00    +0.070 C 
ENDBRANCH   1  27
TORSDOF 5
