REMARK  Name = ZINCrH000004jX0H.0
REMARK                            x       y       z     vdW  Elec       q    Type
REMARK                         _______ _______ _______ _____ _____    ______ ____
ROOT
ATOM      1  S   LIG    1       -1.631  -2.314   3.174  0.00  0.00    +0.130 S 
ENDROOT
BRANCH   1   2
ATOM      2  C   LIG    1       -2.130  -2.900   4.760  0.00  0.00    -0.040 A 
ATOM      3  C   LIG    1       -3.013  -2.148   5.532  0.00  0.00    +0.000 A 
ATOM      4  C   LIG    1       -3.407  -2.608   6.768  0.00  0.00    +0.140 A 
ATOM      5  C   LIG    1       -2.910  -3.823   7.248  0.00  0.00    -0.150 A 
ATOM      6  C   LIG    1       -2.020  -4.569   6.469  0.00  0.00    +0.200 A 
ATOM      7  C   LIG    1       -1.637  -4.110   5.241  0.00  0.00    -0.040 A 
BRANCH   5   8
ATOM      8  C   LIG    1       -3.325  -4.319   8.574  0.00  0.00    +0.570 C 
ATOM      9  O   LIG    1       -2.892  -5.376   8.991  0.00  0.00    -0.530 OA
ATOM     10  N   LIG    1       -4.183  -3.599   9.324  0.00  0.00    -0.850 N 
ATOM     11  H   LIG    1       -4.455  -3.925  10.196  0.00  0.00    +0.410 HD
ATOM     12  H   LIG    1       -4.528  -2.756   8.992  0.00  0.00    +0.400 HD
ENDBRANCH   5   8
BRANCH   7  13
ATOM     13  N   LIG    1       -0.695  -4.902   4.419  0.00  0.00    +0.030 N 
ATOM     14  O   LIG    1       -0.352  -4.495   3.323  0.00  0.00    -0.140 OA
ATOM     15  O   LIG    1       -0.262  -5.961   4.838  0.00  0.00    -0.150 OA
ENDBRANCH   7  13
ENDBRANCH   1   2
BRANCH   1  16
ATOM     16  C   LIG    1       -2.527  -0.745   3.018  0.00  0.00    +0.030 C 
BRANCH  16  19
ATOM     17  C   LIG    1       -3.583   1.794   2.323  0.00  0.00    +0.290 C 
ATOM     18  N   LIG    1       -2.754   1.072   1.355  0.00  0.00    -0.610 N 
ATOM     19  C   LIG    1       -2.200  -0.110   1.692  0.00  0.00    +0.530 C 
ATOM     20  O   LIG    1       -1.438  -0.662   0.926  0.00  0.00    -0.500 OA
BRANCH  18  21
ATOM     21  C   LIG    1       -2.528   1.634   0.021  0.00  0.00    +0.380 C 
BRANCH  21  22
ATOM     22  C   LIG    1       -1.236   2.411   0.016  0.00  0.00    -0.090 A 
ATOM     23  C   LIG    1       -0.534   2.591   1.193  0.00  0.00    +0.050 A 
ATOM     24  C   LIG    1        0.648   3.309   1.190  0.00  0.00    +0.040 A 
ATOM     25  C   LIG    1        1.130   3.842   0.009  0.00  0.00    -0.030 A 
ATOM     26  C   LIG    1        0.430   3.658  -1.170  0.00  0.00    +0.050 A 
ATOM     27 CL   LIG    1        2.614   4.743   0.005  0.00  0.00    -0.050 Cl
ATOM     28  C   LIG    1       -0.752   2.940  -1.167  0.00  0.00    -0.020 A 
ATOM     29 CL   LIG    1       -1.631   2.708  -2.646  0.00  0.00    -0.050 Cl
ENDBRANCH  21  22
ENDBRANCH  18  21
ENDBRANCH  16  19
ENDBRANCH   1  16
TORSDOF 7
