REMARK  Name = ZINCrH000004jdva.0
REMARK                            x       y       z     vdW  Elec       q    Type
REMARK                         _______ _______ _______ _____ _____    ______ ____
ROOT
ATOM      1  N   LIG    1       -0.627   0.382   0.341  0.00  0.00    -0.570 N 
ATOM      2  C   LIG    1       -0.920  -0.878   1.032  0.00  0.00    +0.310 C 
ATOM      3  C   LIG    1       -0.452  -1.994   0.072  0.00  0.00    -0.010 C 
ATOM      4  C   LIG    1       -0.548  -1.289  -1.301  0.00  0.00    +0.080 C 
ATOM      5  C   LIG    1       -0.425   0.183  -0.973  0.00  0.00    +0.520 C 
ATOM      6  O   LIG    1       -0.178   1.056  -1.778  0.00  0.00    -0.510 OA
ENDROOT
BRANCH   1  12
ATOM      7  C   LIG    1       -1.681   2.467   0.955  0.00  0.00    -0.070 A 
ATOM      8  C   LIG    1       -1.624   3.698   1.579  0.00  0.00    +0.020 A 
ATOM      9  C   LIG    1       -0.460   4.104   2.206  0.00  0.00    +0.020 A 
ATOM     10  C   LIG    1        0.648   3.277   2.215  0.00  0.00    +0.010 A 
ATOM     11  C   LIG    1        0.596   2.042   1.598  0.00  0.00    +0.030 A 
ATOM     12  C   LIG    1       -0.571   1.632   0.968  0.00  0.00    +0.140 A 
BRANCH   7  14
ATOM     13  C   LIG    1       -3.801   1.213   1.241  0.00  0.00    +0.020 C 
ATOM     14  C   LIG    1       -2.948   2.028   0.267  0.00  0.00    +0.060 C 
ENDBRANCH   7  14
ENDBRANCH   1  12
BRANCH   3  15
ATOM     15  C   LIG    1        0.968  -2.402   0.370  0.00  0.00    +0.530 C 
ATOM     16  N   LIG    1        1.481  -3.515  -0.192  0.00  0.00    -0.600 N 
ATOM     17  O   LIG    1        1.648  -1.729   1.115  0.00  0.00    -0.500 OA
BRANCH  16  18
ATOM     18  C   LIG    1        2.826  -3.966   0.175  0.00  0.00    +0.270 C 
ATOM     19  C   LIG    1        2.747  -5.376   0.765  0.00  0.00    +0.030 C 
BRANCH  18  20
ATOM     20  C   LIG    1        3.715  -3.984  -1.070  0.00  0.00    -0.060 C 
ATOM     21  C   LIG    1        4.231  -5.342  -1.550  0.00  0.00    +0.030 C 
ATOM     22  C   LIG    1        5.188  -4.352  -0.881  0.00  0.00    +0.030 C 
ENDBRANCH  18  20
ENDBRANCH  16  18
BRANCH  16  23
ATOM     23  C   LIG    1        0.695  -4.272  -1.168  0.00  0.00    +0.330 C 
BRANCH  23  24
ATOM     24  C   LIG    1       -0.177  -5.296  -0.438  0.00  0.00    +0.430 C 
ATOM     25  F   LIG    1        0.639  -6.273   0.143  0.00  0.00    -0.170 F 
ATOM     26  F   LIG    1       -1.050  -5.899  -1.349  0.00  0.00    -0.180 F 
ATOM     27  F   LIG    1       -0.915  -4.651   0.560  0.00  0.00    -0.180 F 
ENDBRANCH  23  24
ENDBRANCH  16  23
ENDBRANCH   3  15
TORSDOF 7
