REMARK  Name = ZINCrH000004lYRV.0
REMARK                            x       y       z     vdW  Elec       q    Type
REMARK                         _______ _______ _______ _____ _____    ______ ____
ROOT
ATOM      1  C   LIG    1        2.532   3.603   2.269  0.00  0.00    +0.570 C 
ATOM      2  N   LIG    1        2.813   3.381   0.970  0.00  0.00    -0.700 N 
ATOM      3  H   LIG    1        3.736   3.330   0.675  0.00  0.00    +0.410 HD
ATOM      4  O   LIG    1        1.376   3.667   2.639  0.00  0.00    -0.530 OA
ENDROOT
BRANCH   1   7
ATOM      5  C   LIG    1        4.372   4.152   5.502  0.00  0.00    +0.190 A 
ATOM      6  C   LIG    1        3.341   3.997   4.591  0.00  0.00    -0.030 A 
ATOM      7  C   LIG    1        3.630   3.768   3.245  0.00  0.00    -0.040 A 
ATOM      8  C   LIG    1        4.958   3.689   2.824  0.00  0.00    -0.070 A 
ATOM      9  C   LIG    1        5.984   3.850   3.741  0.00  0.00    +0.190 A 
ATOM     10  C   LIG    1        5.692   4.078   5.079  0.00  0.00    -0.140 A 
ATOM     11 BR   LIG    1        7.097   4.288   6.327  0.00  0.00    -0.010 Br
BRANCH   5  13
ATOM     12  C   LIG    1        2.712   4.439   7.180  0.00  0.00    +0.250 C 
ATOM     13  O   LIG    1        4.092   4.375   6.813  0.00  0.00    -0.290 OA
ENDBRANCH   5  13
BRANCH   9  14
ATOM     14  O   LIG    1        7.278   3.778   3.330  0.00  0.00    -0.290 OA
ATOM     15  C   LIG    1        7.505   3.541   1.940  0.00  0.00    +0.250 C 
ENDBRANCH   9  14
ENDBRANCH   1   7
BRANCH   2  16
ATOM     16  C   LIG    1        1.725   3.217   0.003  0.00  0.00    +0.390 C 
BRANCH  16  17
ATOM     17  C   LIG    1        1.268   1.782  -0.001  0.00  0.00    +0.190 A 
ATOM     18  N   LIG    1        2.047   0.735  -0.013  0.00  0.00    -0.470 NA
ATOM     19  C   LIG    1        1.296  -0.376  -0.012  0.00  0.00    +0.140 A 
ATOM     20  C   LIG    1        0.002  -0.004   0.002  0.00  0.00    +0.130 A 
ATOM     21  N   LIG    1       -0.017   1.365   0.009  0.00  0.00    -0.450 N 
ATOM     22  C   LIG    1       -1.207   2.218   0.020  0.00  0.00    +0.320 C 
ENDBRANCH  16  17
BRANCH  16  23
ATOM     23  C   LIG    1        2.215   3.592  -1.372  0.00  0.00    -0.100 A 
ATOM     24  C   LIG    1        3.487   3.229  -1.776  0.00  0.00    +0.020 A 
ATOM     25  C   LIG    1        3.934   3.570  -3.038  0.00  0.00    +0.010 A 
ATOM     26  C   LIG    1        3.114   4.279  -3.895  0.00  0.00    +0.020 A 
ATOM     27  C   LIG    1        1.844   4.646  -3.490  0.00  0.00    +0.010 A 
ATOM     28  C   LIG    1        1.395   4.303  -2.228  0.00  0.00    +0.020 A 
ENDBRANCH  16  23
ENDBRANCH   2  16
TORSDOF 6
