REMARK  Name = ZINCvU0000000HOJ.0
REMARK                            x       y       z     vdW  Elec       q    Type
REMARK                         _______ _______ _______ _____ _____    ______ ____
ROOT
ATOM      1  C   LIG    1        1.673   3.316   0.005  0.00  0.00    +0.200 A 
ATOM      2  C   LIG    1        1.303   1.948   0.000  0.00  0.00    -0.150 A 
ATOM      3  C   LIG    1       -0.016   1.328   0.009  0.00  0.00    -0.030 A 
ATOM      4  C   LIG    1        0.002  -0.004   0.002  0.00  0.00    +0.010 A 
ATOM      5  S   LIG    1        1.644  -0.619  -0.017  0.00  0.00    +0.200 S 
ATOM      6  C   LIG    1        2.327   1.001  -0.015  0.00  0.00    +0.100 A 
ATOM      7  N   LIG    1        3.600   1.419  -0.024  0.00  0.00    -0.490 NA
ATOM      8  C   LIG    1        3.893   2.699  -0.020  0.00  0.00    +0.540 A 
ATOM      9  N   LIG    1        2.961   3.633  -0.005  0.00  0.00    -0.530 NA
ENDROOT
BRANCH   3  10
ATOM     10  C   LIG    1       -1.273   2.114   0.020  0.00  0.00    -0.050 A 
ATOM     11  C   LIG    1       -1.452   3.133   0.954  0.00  0.00    +0.070 A 
ATOM     12  C   LIG    1       -2.622   3.865   0.957  0.00  0.00    +0.000 A 
ATOM     13  C   LIG    1       -3.622   3.581   0.040  0.00  0.00    +0.110 A 
ATOM     14  C   LIG    1       -3.450   2.566  -0.887  0.00  0.00    -0.010 A 
ATOM     15  F   LIG    1       -4.767   4.297   0.050  0.00  0.00    -0.140 F 
ATOM     16  C   LIG    1       -2.281   1.831  -0.901  0.00  0.00    +0.070 A 
ENDBRANCH   3  10
BRANCH   1  17
ATOM     17  S   LIG    1        0.442   4.576   0.023  0.00  0.00    +0.050 S 
BRANCH  17  18
ATOM     18  C   LIG    1        1.497   6.047   0.022  0.00  0.00    +0.210 C 
BRANCH  18  22
ATOM     19  C   LIG    1       -0.527   8.954   0.629  0.00  0.00    +0.220 A 
ATOM     20  N   LIG    1       -0.491   8.893  -0.677  0.00  0.00    -0.350 NA
ATOM     21  O   LIG    1        0.171   7.940  -1.031  0.00  0.00    +0.090 OA
ATOM     22  C   LIG    1        0.635   7.283   0.037  0.00  0.00    +0.180 A 
ATOM     23  N   LIG    1        0.196   7.912   1.098  0.00  0.00    -0.460 NA
BRANCH  19  29
ATOM     24  C   LIG    1       -1.953  10.997   0.818  0.00  0.00    +0.160 A 
ATOM     25  C   LIG    1       -2.610  11.944   1.587  0.00  0.00    -0.070 A 
ATOM     26  C   LIG    1       -2.556  11.875   2.966  0.00  0.00    +0.070 A 
ATOM     27  C   LIG    1       -1.846  10.863   3.587  0.00  0.00    -0.030 A 
ATOM     28  C   LIG    1       -1.190   9.910   2.834  0.00  0.00    +0.100 A 
ATOM     29  C   LIG    1       -1.234   9.973   1.443  0.00  0.00    -0.060 A 
BRANCH  24  31
ATOM     30  C   LIG    1       -2.758  12.137  -1.105  0.00  0.00    +0.240 C 
ATOM     31  O   LIG    1       -2.006  11.063  -0.537  0.00  0.00    -0.300 OA
ENDBRANCH  24  31
ENDBRANCH  19  29
ENDBRANCH  18  22
ENDBRANCH  17  18
ENDBRANCH   1  17
TORSDOF 6
