REMARK  Name = ZINCpe00000VVH6f.0
REMARK                            x       y       z     vdW  Elec       q    Type
REMARK                         _______ _______ _______ _____ _____    ______ ____
ROOT
ATOM      1  C   LIG    1       -0.083   0.314  -0.566  0.00  0.00    +0.130 C 
ATOM      2  C   LIG    1       -1.513   0.434   0.008  0.00  0.00    +0.040 C 
ATOM      3  C   LIG    1       -1.360   1.531   1.092  0.00  0.00    +0.190 C 
ATOM      4  N   LIG    1       -0.020   1.253   1.675  0.00  0.00    -0.490 NA
ATOM      5  C   LIG    1        0.840   0.869   0.534  0.00  0.00    +0.180 C 
ENDROOT
BRANCH   1   6
ATOM      6  N   LIG    1        0.241  -1.092  -0.842  0.00  0.00    -0.530 NA
ATOM      7  C   LIG    1       -0.786  -1.713  -1.690  0.00  0.00    +0.200 C 
BRANCH   6   8
ATOM      8  C   LIG    1        1.572  -1.216  -1.452  0.00  0.00    +0.310 C 
BRANCH   8  12
ATOM      9  C   LIG    1        2.239  -5.967  -2.886  0.00  0.00    +0.240 C 
ATOM     10  C   LIG    1        2.247  -4.673  -2.114  0.00  0.00    +0.180 A 
ATOM     11  N   LIG    1        1.726  -3.532  -2.496  0.00  0.00    -0.480 NA
ATOM     12  C   LIG    1        1.972  -2.668  -1.495  0.00  0.00    +0.180 A 
ATOM     13  N   LIG    1        2.623  -3.314  -0.574  0.00  0.00    -0.370 NA
ATOM     14  O   LIG    1        2.786  -4.469  -0.908  0.00  0.00    +0.080 OA
ENDBRANCH   8  12
ENDBRANCH   6   8
ENDBRANCH   1   6
BRANCH   4  15
ATOM     15  C   LIG    1        0.515   2.436   2.363  0.00  0.00    +0.210 C 
BRANCH  15  16
ATOM     16  C   LIG    1       -0.501   2.943   3.353  0.00  0.00    +0.510 C 
ATOM     17  N   LIG    1       -0.226   4.028   4.105  0.00  0.00    -0.650 N 
ATOM     18  H   LIG    1        0.607   4.508   3.977  0.00  0.00    +0.410 HD
ATOM     19  O   LIG    1       -1.566   2.375   3.474  0.00  0.00    -0.500 OA
BRANCH  17  20
ATOM     20  C   LIG    1       -1.148   4.463   5.075  0.00  0.00    -0.010 A 
ATOM     21  C   LIG    1       -0.881   4.689   6.387  0.00  0.00    +0.080 A 
ATOM     22  N   LIG    1       -2.035   5.099   6.975  0.00  0.00    -0.470 N 
ATOM     23  H   LIG    1       -2.147   5.335   7.909  0.00  0.00    +0.440 HD
ATOM     24  N   LIG    1       -3.035   5.115   5.995  0.00  0.00    -0.290 NA
ATOM     25  C   LIG    1        0.454   4.519   7.066  0.00  0.00    +0.160 C 
ATOM     26  C   LIG    1       -2.507   4.736   4.860  0.00  0.00    +0.100 A 
ATOM     27  C   LIG    1       -3.234   4.613   3.546  0.00  0.00    +0.160 C 
ENDBRANCH  17  20
ENDBRANCH  15  16
ENDBRANCH   4  15
TORSDOF 6
