REMARK  Name = ZINCqH0000001ixC.0
REMARK                            x       y       z     vdW  Elec       q    Type
REMARK                         _______ _______ _______ _____ _____    ______ ____
ROOT
ATOM      1  C   LIG    1        3.778  -0.635   0.280  0.00  0.00    +0.560 C 
ATOM      2  N   LIG    1        3.764  -1.967   0.073  0.00  0.00    -0.670 N 
ATOM      3  H   LIG    1        2.919  -2.441   0.024  0.00  0.00    +0.410 HD
ATOM      4  O   LIG    1        4.835  -0.055   0.436  0.00  0.00    -0.490 OA
ENDROOT
BRANCH   1  10
ATOM      5  C   LIG    1        2.521   1.504   0.534  0.00  0.00    +0.190 A 
ATOM      6  C   LIG    1        1.323   2.202   0.569  0.00  0.00    -0.080 A 
ATOM      7  C   LIG    1        0.127   1.535   0.391  0.00  0.00    +0.080 A 
ATOM      8  C   LIG    1        0.113   0.166   0.178  0.00  0.00    -0.040 A 
ATOM      9  C   LIG    1        1.294  -0.544   0.141  0.00  0.00    +0.080 A 
ATOM     10  C   LIG    1        2.511   0.118   0.319  0.00  0.00    -0.180 A 
BRANCH   5  11
ATOM     11  O   LIG    1        3.696   2.158   0.709  0.00  0.00    -0.280 OA
BRANCH  11  12
ATOM     12  C   LIG    1        3.628   3.569   0.923  0.00  0.00    +0.180 C 
BRANCH  12  14
ATOM     13  C   LIG    1        4.978   5.652   1.202  0.00  0.00    +0.040 C 
ATOM     14  C   LIG    1        5.042   4.127   1.097  0.00  0.00    -0.010 C 
ATOM     15  C   LIG    1        5.663   3.554   2.372  0.00  0.00    +0.030 C 
ENDBRANCH  12  14
ENDBRANCH  11  12
ENDBRANCH   5  11
ENDBRANCH   1  10
BRANCH   2  16
ATOM     16  C   LIG    1        4.966  -2.664  -0.073  0.00  0.00    +0.170 A 
ATOM     17  C   LIG    1        6.093  -2.010  -0.559  0.00  0.00    +0.020 A 
ATOM     18  C   LIG    1        7.281  -2.693  -0.698  0.00  0.00    +0.040 A 
ATOM     19  C   LIG    1        7.350  -4.046  -0.361  0.00  0.00    -0.040 A 
ATOM     20  C   LIG    1        6.216  -4.701   0.121  0.00  0.00    +0.090 A 
ATOM     21  C   LIG    1        5.032  -4.011   0.264  0.00  0.00    -0.010 A 
BRANCH  19  22
ATOM     22  C   LIG    1        8.623  -4.784  -0.515  0.00  0.00    +0.220 A 
ATOM     23  N   LIG    1        8.938  -5.926   0.055  0.00  0.00    -0.280 NA
ATOM     24  N   LIG    1       10.121  -6.277  -0.304  0.00  0.00    -0.290 NA
ATOM     25  C   LIG    1       10.630  -5.384  -1.109  0.00  0.00    +0.380 A 
ATOM     26  N   LIG    1        9.698  -4.404  -1.272  0.00  0.00    -0.480 N 
ATOM     27  C   LIG    1        9.821  -3.194  -2.088  0.00  0.00    +0.360 C 
ENDBRANCH  19  22
ENDBRANCH   2  16
TORSDOF 6
