REMARK  Name = ZINCqH0000001Yxl.0
REMARK                            x       y       z     vdW  Elec       q    Type
REMARK                         _______ _______ _______ _____ _____    ______ ____
ROOT
ATOM      1  C   LIG    1        6.135   0.999   0.223  0.00  0.00    +0.080 C 
ATOM      2  C   LIG    1        4.720   0.709  -0.282  0.00  0.00    +0.100 C 
ATOM      3  C   LIG    1        3.701   1.160   0.764  0.00  0.00    +0.300 C 
ATOM      4  N   LIG    1        2.366   0.701   0.347  0.00  0.00    -0.620 N 
ATOM      5  C   LIG    1        2.207  -0.713  -0.027  0.00  0.00    +0.280 C 
ATOM      6  C   LIG    1        3.300  -1.072  -1.040  0.00  0.00    +0.140 C 
ATOM      7  C   LIG    1        1.322   1.552   0.304  0.00  0.00    +0.720 C 
ATOM      8  N   LIG    1        0.081   1.085   0.066  0.00  0.00    -0.680 N 
ATOM      9  H   LIG    1       -0.046   0.163  -0.209  0.00  0.00    +0.410 HD
ATOM     10  O   LIG    1        1.500   2.742   0.479  0.00  0.00    -0.550 OA
ATOM     11  C   LIG    1        4.478   1.467  -1.589  0.00  0.00    +0.030 C 
ATOM     12  O   LIG    1        4.574  -0.695  -0.510  0.00  0.00    -0.350 OA
ENDROOT
BRANCH   8  13
ATOM     13  C   LIG    1       -1.024   1.930   0.208  0.00  0.00    +0.190 A 
ATOM     14  C   LIG    1       -0.853   3.308   0.161  0.00  0.00    +0.030 A 
ATOM     15  C   LIG    1       -1.941   4.144   0.296  0.00  0.00    +0.060 A 
ATOM     16  C   LIG    1       -3.213   3.604   0.492  0.00  0.00    -0.060 A 
ATOM     17  C   LIG    1       -3.381   2.220   0.544  0.00  0.00    +0.100 A 
ATOM     18  C   LIG    1       -2.290   1.389   0.402  0.00  0.00    -0.010 A 
BRANCH  16  19
ATOM     19  C   LIG    1       -4.381   4.498   0.643  0.00  0.00    +0.070 A 
ATOM     20  N   LIG    1       -5.620   4.125   0.824  0.00  0.00    -0.260 NA
ATOM     21  N   LIG    1       -6.471   5.051   0.933  0.00  0.00    -0.260 NA
ATOM     22  C   LIG    1       -6.052   6.272   0.848  0.00  0.00    +0.190 A 
ATOM     23  S   LIG    1       -4.357   6.261   0.604  0.00  0.00    +0.130 S 
ENDBRANCH  16  19
ENDBRANCH   8  13
BRANCH   6  24
ATOM     24  C   LIG    1        3.280  -2.579  -1.301  0.00  0.00    +0.470 C 
ATOM     25  F   LIG    1        3.512  -3.263  -0.103  0.00  0.00    -0.170 F 
ATOM     26  F   LIG    1        4.279  -2.905  -2.225  0.00  0.00    -0.170 F 
ATOM     27  F   LIG    1        2.032  -2.947  -1.814  0.00  0.00    -0.170 F 
ENDBRANCH   6  24
TORSDOF 3
