REMARK  Name = ZINCrg000000tN1t.0
REMARK                            x       y       z     vdW  Elec       q    Type
REMARK                         _______ _______ _______ _____ _____    ______ ____
ROOT
ATOM      1  C   LIG    1       -0.014   1.211   0.009  0.00  0.00    +0.560 C 
ATOM      2  N   LIG    1       -1.274   1.690   0.011  0.00  0.00    -0.600 N 
ATOM      3  C   LIG    1       -1.524   3.136  -0.077  0.00  0.00    +0.270 C 
ATOM      4  C   LIG    1       -2.458   3.395  -1.271  0.00  0.00    +0.300 C 
ATOM      5  N   LIG    1       -3.606   2.482  -1.173  0.00  0.00    -1.010 NA
ATOM      6  C   LIG    1       -3.356   1.037  -1.079  0.00  0.00    +0.300 C 
ATOM      7  C   LIG    1       -2.422   0.778   0.109  0.00  0.00    +0.290 C 
ATOM      8  O   LIG    1        0.179   0.011  -0.008  0.00  0.00    -0.510 OA
ENDROOT
BRANCH   1  12
ATOM      9  O   LIG    1        2.948   4.301   2.165  0.00  0.00    -0.520 OA
ATOM     10  C   LIG    1        2.630   3.718   1.144  0.00  0.00    +0.540 A 
ATOM     11  C   LIG    1        1.489   2.805   1.163  0.00  0.00    +0.000 A 
ATOM     12  C   LIG    1        1.136   2.147   0.020  0.00  0.00    -0.030 A 
ATOM     13  C   LIG    1        1.918   2.392  -1.201  0.00  0.00    -0.110 A 
ATOM     14  C   LIG    1        1.592   1.748  -2.398  0.00  0.00    +0.080 A 
ATOM     15  C   LIG    1        2.330   1.989  -3.522  0.00  0.00    -0.010 A 
ATOM     16  C   LIG    1        3.402   2.869  -3.487  0.00  0.00    +0.080 A 
ATOM     17  C   LIG    1        3.741   3.516  -2.318  0.00  0.00    -0.020 A 
ATOM     18  C   LIG    1        3.003   3.286  -1.160  0.00  0.00    +0.190 A 
ATOM     19  N   LIG    1        3.330   3.927   0.016  0.00  0.00    -0.630 N 
ATOM     20  H   LIG    1        4.081   4.540   0.029  0.00  0.00    +0.420 HD
ENDBRANCH   1  12
BRANCH   5  21
ATOM     21  S   LIG    1       -5.154   3.072  -1.169  0.00  0.00    +2.800 S 
ATOM     22  O   LIG    1       -5.988   2.012  -1.616  0.00  0.00    -0.970 OA
ATOM     23  O   LIG    1       -5.101   4.341  -1.806  0.00  0.00    -0.970 OA
BRANCH  21  24
ATOM     24  N   LIG    1       -5.565   3.357   0.409  0.00  0.00    -1.020 NA
ATOM     25  C   LIG    1       -6.208   2.393   1.315  0.00  0.00    +0.250 C 
ATOM     26  C   LIG    1       -6.419   3.106   2.667  0.00  0.00    +0.030 C 
ATOM     27  C   LIG    1       -6.408   4.606   2.273  0.00  0.00    +0.030 C 
ATOM     28  C   LIG    1       -5.354   4.621   1.138  0.00  0.00    +0.260 C 
ENDBRANCH  21  24
ENDBRANCH   5  21
TORSDOF 3
