REMARK  Name = ZINCrD0000071MFs.0
REMARK                            x       y       z     vdW  Elec       q    Type
REMARK                         _______ _______ _______ _____ _____    ______ ____
ROOT
ATOM      1  O   LIG    1       -2.688   4.091   0.037  0.00  0.00    -0.340 OA
ENDROOT
BRANCH   1   2
ATOM      2  C   LIG    1       -2.880   5.425   0.045  0.00  0.00    +0.520 C 
ATOM      3  O   LIG    1       -1.925   6.176   0.045  0.00  0.00    -0.520 OA
BRANCH   2   7
ATOM      4  C   LIG    1       -6.817   7.001   0.073  0.00  0.00    +0.260 A 
ATOM      5  C   LIG    1       -5.723   7.863   0.072  0.00  0.00    -0.090 A 
ATOM      6  C   LIG    1       -4.449   7.357   0.063  0.00  0.00    +0.140 A 
ATOM      7  C   LIG    1       -4.248   5.973   0.055  0.00  0.00    -0.200 A 
ATOM      8  C   LIG    1       -5.349   5.110   0.049  0.00  0.00    +0.130 A 
ATOM      9  C   LIG    1       -6.620   5.622   0.064  0.00  0.00    -0.090 A 
BRANCH   4  10
ATOM     10  N   LIG    1       -8.107   7.518   0.082  0.00  0.00    -0.620 N 
BRANCH  10  12
ATOM     11  C   LIG    1       -9.653   6.289   1.525  0.00  0.00    +0.020 C 
ATOM     12  C   LIG    1       -9.259   6.612   0.082  0.00  0.00    +0.270 C 
ENDBRANCH  10  12
BRANCH  10  13
ATOM     13  C   LIG    1       -8.316   8.968   0.090  0.00  0.00    +0.270 C 
ATOM     14  C   LIG    1       -8.395   9.480  -1.349  0.00  0.00    +0.020 C 
ENDBRANCH  10  13
ENDBRANCH   4  10
ENDBRANCH   2   7
ENDBRANCH   1   2
BRANCH   1  15
ATOM     15  C   LIG    1       -1.314   3.623   0.028  0.00  0.00    +0.240 C 
BRANCH  15  16
ATOM     16  C   LIG    1       -1.297   2.116   0.020  0.00  0.00    +0.400 C 
ATOM     17  O   LIG    1       -2.341   1.497   0.021  0.00  0.00    -0.420 OA
BRANCH  16  18
ATOM     18  C   LIG    1       -0.017   1.396   0.010  0.00  0.00    -0.170 A 
ATOM     19  C   LIG    1        1.189   2.107   0.002  0.00  0.00    +0.070 A 
ATOM     20  C   LIG    1        2.386   1.428  -0.014  0.00  0.00    +0.030 A 
ATOM     21  C   LIG    1        2.405   0.038  -0.023  0.00  0.00    +0.090 A 
ATOM     22  O   LIG    1        3.600  -0.609  -0.043  0.00  0.00    -0.300 OA
ATOM     23  C   LIG    1        3.590  -1.992   0.329  0.00  0.00    +0.230 C 
ATOM     24  C   LIG    1        2.431  -2.679  -0.406  0.00  0.00    +0.230 C 
ATOM     25  O   LIG    1        1.211  -2.038  -0.017  0.00  0.00    -0.300 OA
ATOM     26  C   LIG    1        1.208  -0.677  -0.014  0.00  0.00    +0.040 A 
ATOM     27  C   LIG    1        0.002  -0.004   0.002  0.00  0.00    +0.100 A 
ENDBRANCH  16  18
ENDBRANCH  15  16
ENDBRANCH   1  15
TORSDOF 8
