REMARK  Name = ZINCrH000004rR1u.0
REMARK                            x       y       z     vdW  Elec       q    Type
REMARK                         _______ _______ _______ _____ _____    ______ ____
ROOT
ATOM      1  N   LIG    1        8.841   3.085   0.629  0.00  0.00    -0.490 N 
ATOM      2  C   LIG    1        9.265   1.685   0.766  0.00  0.00    +0.190 C 
ATOM      3  C   LIG    1        8.546   0.832  -0.284  0.00  0.00    +0.310 C 
ATOM      4  N   LIG    1        7.098   1.058  -0.158  0.00  0.00    -0.610 N 
ATOM      5  C   LIG    1        6.608   2.445  -0.155  0.00  0.00    +0.280 C 
ATOM      6  C   LIG    1        6.243   0.022  -0.054  0.00  0.00    +0.600 C 
ATOM      7  O   LIG    1        6.671  -1.113   0.042  0.00  0.00    -0.520 OA
ATOM      8  C   LIG    1        7.404   3.235   0.896  0.00  0.00    +0.200 C 
ENDROOT
BRANCH   1  14
ATOM      9  C   LIG    1        9.829   7.592   2.320  0.00  0.00    +0.090 C 
ATOM     10  C   LIG    1       10.095   6.109   2.299  0.00  0.00    -0.060 A 
ATOM     11  C   LIG    1       11.085   5.573   3.100  0.00  0.00    -0.030 A 
ATOM     12  C   LIG    1       11.332   4.212   3.083  0.00  0.00    +0.030 A 
ATOM     13  C   LIG    1       10.590   3.384   2.265  0.00  0.00    -0.050 A 
ATOM     14  C   LIG    1        9.593   3.920   1.458  0.00  0.00    +0.110 A 
ATOM     15  C   LIG    1        9.352   5.287   1.474  0.00  0.00    -0.020 A 
ENDBRANCH   1  14
BRANCH   6  16
ATOM     16  C   LIG    1        4.795   0.262  -0.057  0.00  0.00    -0.320 A 
ATOM     17  C   LIG    1        3.861  -0.430   0.667  0.00  0.00    +0.150 A 
ATOM     18  N   LIG    1        2.636  -0.017   0.485  0.00  0.00    -0.460 NA
ATOM     19  C   LIG    1        2.455   0.976  -0.340  0.00  0.00    +0.080 A 
ATOM     20  C   LIG    1        4.216  -1.566   1.591  0.00  0.00    +0.170 C 
ATOM     21  S   LIG    1        3.947   1.487  -0.997  0.00  0.00    +0.260 S 
BRANCH  19  22
ATOM     22  C   LIG    1        1.142   1.572  -0.666  0.00  0.00    +0.170 A 
ATOM     23  C   LIG    1       -0.014   1.067  -0.071  0.00  0.00    +0.030 A 
ATOM     24  C   LIG    1       -1.237   1.633  -0.391  0.00  0.00    +0.060 A 
ATOM     25  C   LIG    1       -1.263   2.691  -1.287  0.00  0.00    -0.010 A 
ATOM     26  C   LIG    1       -0.077   3.142  -1.840  0.00  0.00    +0.280 A 
ATOM     27  N   LIG    1        1.072   2.584  -1.523  0.00  0.00    -0.470 NA
ENDBRANCH  19  22
ENDBRANCH   6  16
TORSDOF 3
