REMARK  Name = ZINCrH000004ny9V.0
REMARK                            x       y       z     vdW  Elec       q    Type
REMARK                         _______ _______ _______ _____ _____    ______ ____
ROOT
ATOM      1  C   LIG    1        2.462   8.024  -0.160  0.00  0.00    +0.160 A 
ATOM      2  C   LIG    1        2.451   9.408  -0.244  0.00  0.00    +0.010 A 
ATOM      3  C   LIG    1        1.249  10.093  -0.210  0.00  0.00    +0.110 A 
ATOM      4  C   LIG    1        0.056   9.400  -0.100  0.00  0.00    -0.010 A 
ATOM      5  C   LIG    1        0.059   8.019  -0.022  0.00  0.00    +0.080 A 
ATOM      6  F   LIG    1        1.240  11.442  -0.286  0.00  0.00    -0.130 F 
ATOM      7  C   LIG    1        1.259   7.325  -0.054  0.00  0.00    +0.100 A 
ENDROOT
BRANCH   1   9
ATOM      8  C   LIG    1        4.757   7.881  -0.773  0.00  0.00    +0.560 C 
ATOM      9  N   LIG    1        3.677   7.329  -0.186  0.00  0.00    -0.670 N 
ATOM     10  H   LIG    1        3.742   6.449   0.218  0.00  0.00    +0.410 HD
ATOM     11  O   LIG    1        4.652   8.937  -1.368  0.00  0.00    -0.490 OA
BRANCH   8  17
ATOM     12  C   LIG    1        7.190   7.774  -1.310  0.00  0.00    +0.190 A 
ATOM     13  C   LIG    1        8.417   7.133  -1.225  0.00  0.00    -0.080 A 
ATOM     14  C   LIG    1        8.526   5.934  -0.548  0.00  0.00    +0.080 A 
ATOM     15  C   LIG    1        7.416   5.366   0.055  0.00  0.00    -0.030 A 
ATOM     16  C   LIG    1        6.191   5.993  -0.014  0.00  0.00    +0.080 A 
ATOM     17  C   LIG    1        6.066   7.205  -0.696  0.00  0.00    -0.180 A 
BRANCH  12  19
ATOM     18  C   LIG    1        8.269   9.467  -2.580  0.00  0.00    +0.250 C 
ATOM     19  O   LIG    1        7.080   8.949  -1.979  0.00  0.00    -0.280 OA
ENDBRANCH  12  19
ENDBRANCH   8  17
ENDBRANCH   1   9
BRANCH   7  20
ATOM     20  N   LIG    1        1.264   5.927   0.025  0.00  0.00    -0.650 N 
ATOM     21  H   LIG    1        2.005   5.423  -0.344  0.00  0.00    +0.420 HD
ATOM     22  C   LIG    1        0.238   5.282   0.615  0.00  0.00    +0.580 C 
ATOM     23  O   LIG    1       -0.642   5.915   1.166  0.00  0.00    -0.500 OA
BRANCH  22  24
ATOM     24  C   LIG    1        0.181   3.802   0.591  0.00  0.00    +0.070 A 
ATOM     25  C   LIG    1       -0.882   3.141   1.201  0.00  0.00    +0.050 A 
ATOM     26  C   LIG    1       -0.924   1.756   1.166  0.00  0.00    +0.070 A 
ATOM     27  C   LIG    1        0.105   1.080   0.529  0.00  0.00    +0.000 A 
ATOM     28  C   LIG    1        1.132   1.802  -0.057  0.00  0.00    +0.270 A 
ATOM     29  N   LIG    1        1.145   3.116  -0.013  0.00  0.00    -0.460 NA
ENDBRANCH  22  24
ENDBRANCH   7  20
TORSDOF 5
