REMARK  Name = ZINCqH0000001B3s.0
REMARK                            x       y       z     vdW  Elec       q    Type
REMARK                         _______ _______ _______ _____ _____    ______ ____
ROOT
ATOM      1  C   LIG    1        3.751  -0.969   0.175  0.00  0.00    +0.260 C 
ENDROOT
BRANCH   1   2
ATOM      2  C   LIG    1        2.433  -0.244   0.078  0.00  0.00    +0.520 C 
ATOM      3  N   LIG    1        2.408   1.100  -0.015  0.00  0.00    -0.660 N 
ATOM      4  H   LIG    1        3.238   1.597  -0.089  0.00  0.00    +0.420 HD
ATOM      5  O   LIG    1        1.395  -0.871   0.085  0.00  0.00    -0.510 OA
BRANCH   3   6
ATOM      6  C   LIG    1        1.184   1.779  -0.006  0.00  0.00    +0.090 A 
ATOM      7  C   LIG    1        0.059   1.217  -0.604  0.00  0.00    +0.070 A 
ATOM      8  C   LIG    1       -1.129   1.927  -0.568  0.00  0.00    -0.010 A 
ATOM      9  C   LIG    1       -1.160   3.161   0.053  0.00  0.00    +0.240 A 
ATOM     10  N   LIG    1       -0.078   3.664   0.615  0.00  0.00    -0.470 NA
ATOM     11  C   LIG    1        1.074   3.024   0.599  0.00  0.00    +0.240 A 
ENDBRANCH   3   6
ENDBRANCH   1   2
BRANCH   1  12
ATOM     12  N   LIG    1        3.511  -2.411   0.266  0.00  0.00    -0.710 N 
ATOM     13  H   LIG    1        2.668  -2.741   0.615  0.00  0.00    +0.410 HD
ATOM     14  C   LIG    1        4.460  -3.279  -0.135  0.00  0.00    +0.570 C 
ATOM     15  O   LIG    1        5.516  -2.865  -0.573  0.00  0.00    -0.530 OA
BRANCH  14  16
ATOM     16  C   LIG    1        4.217  -4.734  -0.043  0.00  0.00    -0.140 A 
ATOM     17  C   LIG    1        3.008  -5.213   0.464  0.00  0.00    +0.050 A 
ATOM     18  C   LIG    1        2.786  -6.572   0.543  0.00  0.00    +0.000 A 
ATOM     19  C   LIG    1        3.763  -7.461   0.131  0.00  0.00    -0.040 A 
ATOM     20  C   LIG    1        4.966  -6.993  -0.369  0.00  0.00    +0.010 A 
ATOM     21  C   LIG    1        5.198  -5.636  -0.458  0.00  0.00    +0.090 A 
BRANCH  19  22
ATOM     22  C   LIG    1        3.516  -8.944   0.226  0.00  0.00    -0.040 C 
ATOM     23  C   LIG    1        3.606  -9.567  -1.169  0.00  0.00    +0.040 C 
ATOM     24  C   LIG    1        2.122  -9.193   0.806  0.00  0.00    +0.030 C 
ATOM     25  C   LIG    1        4.569  -9.579   1.137  0.00  0.00    +0.040 C 
ENDBRANCH  19  22
ENDBRANCH  14  16
ENDBRANCH   1  12
BRANCH   1  27
ATOM     26  C   LIG    1        3.722  -0.907   2.672  0.00  0.00    +0.020 C 
ATOM     27  C   LIG    1        4.502  -0.497   1.422  0.00  0.00    -0.020 C 
ATOM     28  C   LIG    1        5.891  -1.138   1.454  0.00  0.00    +0.030 C 
ENDBRANCH   1  27
TORSDOF 6
