REMARK  Name = ZINCpe000000WBif.0
REMARK                            x       y       z     vdW  Elec       q    Type
REMARK                         _______ _______ _______ _____ _____    ______ ____
ROOT
ATOM      1  N   LIG    1       -4.619   0.295   2.297  0.00  0.00    -0.480 N 
ATOM      2  C   LIG    1       -3.941  -0.387   1.186  0.00  0.00    +0.220 C 
ATOM      3  C   LIG    1       -2.433  -0.141   1.285  0.00  0.00    +0.190 C 
ATOM      4  N   LIG    1       -2.172   1.305   1.250  0.00  0.00    -0.520 NA
ATOM      5  C   LIG    1       -2.850   1.986   2.361  0.00  0.00    +0.200 C 
ATOM      6  C   LIG    1       -4.358   1.741   2.263  0.00  0.00    +0.210 C 
ENDROOT
BRANCH   1  11
ATOM      7  C   LIG    1       -8.165   0.324   3.227  0.00  0.00    +0.190 A 
ATOM      8  C   LIG    1       -8.658  -0.499   2.215  0.00  0.00    -0.150 A 
ATOM      9  C   LIG    1       -7.785  -1.016   1.283  0.00  0.00    +0.320 A 
ATOM     10  N   LIG    1       -6.494  -0.742   1.337  0.00  0.00    -0.540 NA
ATOM     11  C   LIG    1       -5.985   0.035   2.281  0.00  0.00    +0.350 A 
ATOM     12  C   LIG    1       -6.801   0.588   3.259  0.00  0.00    -0.080 A 
BRANCH   7  14
ATOM     13  C   LIG    1      -10.383   0.521   4.056  0.00  0.00    +0.250 C 
ATOM     14  O   LIG    1       -8.997   0.850   4.162  0.00  0.00    -0.310 OA
ENDBRANCH   7  14
ENDBRANCH   1  11
BRANCH   4  15
ATOM     15  C   LIG    1       -0.729   1.579   1.267  0.00  0.00    +0.180 C 
ATOM     16  C   LIG    1       -0.065   0.752   2.369  0.00  0.00    +0.030 C 
BRANCH  15  17
ATOM     17  C   LIG    1       -0.132   1.210  -0.067  0.00  0.00    +0.520 C 
ATOM     18  N   LIG    1        1.101   1.644  -0.397  0.00  0.00    -0.730 N 
ATOM     19  H   LIG    1        1.604   2.194   0.224  0.00  0.00    +0.400 HD
ATOM     20  O   LIG    1       -0.761   0.523  -0.843  0.00  0.00    -0.520 OA
BRANCH  18  21
ATOM     21  C   LIG    1        1.681   1.285  -1.693  0.00  0.00    +0.260 C 
BRANCH  21  22
ATOM     22  C   LIG    1        3.076   1.901  -1.815  0.00  0.00    +0.160 C 
ATOM     23  C   LIG    1        3.647   1.630  -3.224  0.00  0.00    +0.020 C 
ATOM     24  C   LIG    1        5.142   1.331  -2.921  0.00  0.00    +0.010 C 
ATOM     25  C   LIG    1        5.029   0.621  -1.548  0.00  0.00    +0.200 C 
ATOM     26  O   LIG    1        3.960   1.294  -0.865  0.00  0.00    -0.380 OA
ENDBRANCH  21  22
ENDBRANCH  18  21
ENDBRANCH  15  17
ENDBRANCH   4  15
TORSDOF 6
