REMARK  Name = ZINCqH0000007ASq.0
REMARK                            x       y       z     vdW  Elec       q    Type
REMARK                         _______ _______ _______ _____ _____    ______ ____
ROOT
ATOM      1  C   LIG    1        1.756   2.096  -0.004  0.00  0.00    +0.110 C 
ENDROOT
BRANCH   1   2
ATOM      2  C   LIG    1        1.984   3.586   0.002  0.00  0.00    +0.420 C 
ATOM      3  O   LIG    1        1.037   4.344   0.015  0.00  0.00    -0.430 OA
BRANCH   2   4
ATOM      4  C   LIG    1        3.352   4.120  -0.008  0.00  0.00    -0.160 A 
ATOM      5  C   LIG    1        4.446   3.246  -0.023  0.00  0.00    +0.090 A 
ATOM      6  C   LIG    1        5.729   3.748  -0.033  0.00  0.00    +0.020 A 
ATOM      7  C   LIG    1        5.937   5.120  -0.027  0.00  0.00    +0.110 A 
ATOM      8  O   LIG    1        7.205   5.620  -0.036  0.00  0.00    -0.320 OA
ATOM      9  C   LIG    1        7.601   6.298  -1.230  0.00  0.00    +0.230 C 
ATOM     10  C   LIG    1        7.152   7.751  -1.200  0.00  0.00    -0.010 C 
ATOM     11  C   LIG    1        5.637   7.888  -1.202  0.00  0.00    +0.230 C 
ATOM     12  O   LIG    1        5.077   7.342  -0.006  0.00  0.00    -0.320 OA
ATOM     13  C   LIG    1        4.855   5.995  -0.013  0.00  0.00    +0.050 A 
ATOM     14  C   LIG    1        3.566   5.505  -0.008  0.00  0.00    +0.100 A 
ENDBRANCH   2   4
ENDBRANCH   1   2
BRANCH   1  15
ATOM     15  S   LIG    1       -0.022   1.758   0.012  0.00  0.00    +0.060 S 
BRANCH  15  22
ATOM     16  C   LIG    1        0.829  -4.458  -0.029  0.00  0.00    +0.120 A 
ATOM     17  C   LIG    1       -0.561  -4.511  -0.018  0.00  0.00    -0.040 A 
ATOM     18  C   LIG    1       -1.303  -3.348  -0.005  0.00  0.00    +0.060 A 
ATOM     19  C   LIG    1       -0.662  -2.119  -0.003  0.00  0.00    +0.020 A 
ATOM     20  N   LIG    1       -1.105  -0.804   0.014  0.00  0.00    -0.580 N 
ATOM     21  H   LIG    1       -2.029  -0.508   0.029  0.00  0.00    +0.430 HD
ATOM     22  C   LIG    1        0.002  -0.004   0.002  0.00  0.00    +0.260 A 
ATOM     23  N   LIG    1        1.085  -0.742  -0.012  0.00  0.00    -0.500 NA
ATOM     24  C   LIG    1        0.742  -2.057  -0.016  0.00  0.00    +0.100 A 
ATOM     25  C   LIG    1        1.482  -3.241  -0.029  0.00  0.00    +0.030 A 
BRANCH  16  27
ATOM     26  C   LIG    1        0.812  -6.837  -0.042  0.00  0.00    +0.250 C 
ATOM     27  O   LIG    1        1.549  -5.612  -0.042  0.00  0.00    -0.320 OA
ENDBRANCH  16  27
ENDBRANCH  15  22
ENDBRANCH   1  15
TORSDOF 5
