REMARK  Name = ZINCqH0000007ASq.1
REMARK                            x       y       z     vdW  Elec       q    Type
REMARK                         _______ _______ _______ _____ _____    ______ ____
ROOT
ATOM      1  C   LIG    1       -5.332   0.547   0.030  0.00  0.00    +0.120 C 
ENDROOT
BRANCH   1   2
ATOM      2  C   LIG    1       -6.809   0.249   0.036  0.00  0.00    +0.420 C 
ATOM      3  O   LIG    1       -7.611   1.159   0.044  0.00  0.00    -0.430 OA
BRANCH   2   4
ATOM      4  C   LIG    1       -7.277  -1.143   0.031  0.00  0.00    -0.160 A 
ATOM      5  C   LIG    1       -6.353  -2.194   0.021  0.00  0.00    +0.090 A 
ATOM      6  C   LIG    1       -6.793  -3.500   0.016  0.00  0.00    +0.020 A 
ATOM      7  C   LIG    1       -8.154  -3.773   0.021  0.00  0.00    +0.100 A 
ATOM      8  O   LIG    1       -8.594  -5.063   0.016  0.00  0.00    -0.320 OA
ATOM      9  C   LIG    1       -9.240  -5.508   1.210  0.00  0.00    +0.230 C 
ATOM     10  C   LIG    1      -10.712  -5.128   1.201  0.00  0.00    -0.010 C 
ATOM     11  C   LIG    1      -10.921  -3.622   1.228  0.00  0.00    +0.230 C 
ATOM     12  O   LIG    1      -10.414  -3.019   0.035  0.00  0.00    -0.320 OA
ATOM     13  C   LIG    1       -9.079  -2.733   0.031  0.00  0.00    +0.050 A 
ATOM     14  C   LIG    1       -8.651  -1.422   0.042  0.00  0.00    +0.100 A 
ENDBRANCH   2   4
ENDBRANCH   1   2
BRANCH   1  15
ATOM     15  S   LIG    1       -5.078   2.339   0.038  0.00  0.00    +0.050 S 
BRANCH  15  21
ATOM     16  C   LIG    1        1.160   3.173   0.007  0.00  0.00    +0.150 A 
ATOM     17  C   LIG    1        1.170   1.782   0.001  0.00  0.00    -0.060 A 
ATOM     18  C   LIG    1       -0.013   1.076   0.008  0.00  0.00    +0.120 A 
ATOM     19  C   LIG    1       -1.230   1.759   0.017  0.00  0.00    +0.020 A 
ATOM     20  N   LIG    1       -2.529   1.353   0.021  0.00  0.00    -0.490 NA
ATOM     21  C   LIG    1       -3.317   2.398   0.030  0.00  0.00    +0.250 A 
ATOM     22  N   LIG    1       -2.570   3.543   0.044  0.00  0.00    -0.580 N 
ATOM     23  H   LIG    1       -2.909   4.452   0.052  0.00  0.00    +0.430 HD
ATOM     24  C   LIG    1       -1.237   3.164   0.030  0.00  0.00    +0.100 A 
ATOM     25  C   LIG    1       -0.040   3.863   0.022  0.00  0.00    -0.020 A 
BRANCH  16  27
ATOM     26  C   LIG    1        3.536   3.085  -0.014  0.00  0.00    +0.250 C 
ATOM     27  O   LIG    1        2.334   3.858   0.001  0.00  0.00    -0.310 OA
ENDBRANCH  16  27
ENDBRANCH  15  21
ENDBRANCH   1  15
TORSDOF 5
