REMARK  Name = ZINCnE000001TyNN.0
REMARK                            x       y       z     vdW  Elec       q    Type
REMARK                         _______ _______ _______ _____ _____    ______ ____
ROOT
ATOM      1  S   LIG    1        4.042  -0.831  -0.018  0.00  0.00    +2.690 S 
ATOM      2  O   LIG    1        3.771  -2.115   0.527  0.00  0.00    -0.950 OA
ATOM      3  O   LIG    1        5.074   0.017   0.467  0.00  0.00    -0.950 OA
ENDROOT
BRANCH   1   7
ATOM      4  C   LIG    1        0.194   1.532   0.295  0.00  0.00    +0.000 A 
ATOM      5  C   LIG    1        1.406   2.192   0.219  0.00  0.00    -0.010 A 
ATOM      6  C   LIG    1        2.581   1.470   0.123  0.00  0.00    +0.120 A 
ATOM      7  C   LIG    1        2.544   0.089   0.104  0.00  0.00    -0.700 A 
ATOM      8  C   LIG    1        1.332  -0.572   0.181  0.00  0.00    +0.130 A 
ATOM      9  C   LIG    1        0.157   0.150   0.277  0.00  0.00    -0.010 A 
BRANCH   4  10
ATOM     10  C   LIG    1       -1.088   2.318   0.393  0.00  0.00    +0.090 C 
BRANCH  10  11
ATOM     11  C   LIG    1       -1.426   2.562   1.865  0.00  0.00    -0.060 C 
BRANCH  11  13
ATOM     12  O   LIG    1       -3.296   3.683   0.948  0.00  0.00    -0.700 OA
ATOM     13  C   LIG    1       -2.708   3.349   1.962  0.00  0.00    +0.490 C 
ATOM     14  O   LIG    1       -3.156   3.651   3.055  0.00  0.00    -0.700 OA
ENDBRANCH  11  13
ENDBRANCH  10  11
ENDBRANCH   4  10
ENDBRANCH   1   7
BRANCH   1  15
ATOM     15  N   LIG    1        4.345  -1.062  -1.630  0.00  0.00    -1.050 N 
ATOM     16  H   LIG    1        4.399  -1.961  -1.989  0.00  0.00    +0.430 HD
BRANCH  15  17
ATOM     17  C   LIG    1        4.525   0.040  -2.473  0.00  0.00    +0.150 A 
ATOM     18  C   LIG    1        5.166   1.178  -2.003  0.00  0.00    +0.040 A 
ATOM     19  C   LIG    1        5.347   2.263  -2.840  0.00  0.00    +0.080 A 
ATOM     20  C   LIG    1        4.880   2.221  -4.141  0.00  0.00    -0.080 A 
ATOM     21  C   LIG    1        4.235   1.091  -4.612  0.00  0.00    +0.050 A 
ATOM     22 BR   LIG    1        5.123   3.711  -5.279  0.00  0.00    -0.030 Br
ATOM     23  C   LIG    1        4.056  -0.000  -3.782  0.00  0.00    +0.090 A 
ATOM     24  F   LIG    1        3.426  -1.104  -4.241  0.00  0.00    -0.130 F 
ENDBRANCH  15  17
ENDBRANCH   1  15
TORSDOF 6
