REMARK  Name = ZINCrH000004k3Ko.1
REMARK                            x       y       z     vdW  Elec       q    Type
REMARK                         _______ _______ _______ _____ _____    ______ ____
ROOT
ATOM      1  N   LIG    1        1.937  -2.277  -1.414  0.00  0.00    -0.680 NA
ATOM      2  H   LIG    1        1.071  -2.175  -1.922  0.00  0.00    +0.340 HD
ENDROOT
BRANCH   1   3
ATOM      3  C   LIG    1        2.417  -3.664  -1.466  0.00  0.00    +0.220 C 
BRANCH   3  11
ATOM      4  C   LIG    1        4.267  -5.464  -7.460  0.00  0.00    +0.310 C 
ATOM      5  N   LIG    1        2.935  -5.286  -6.876  0.00  0.00    -0.560 N 
ATOM      6  C   LIG    1        1.841  -5.510  -7.627  0.00  0.00    +0.520 C 
ATOM      7  C   LIG    1        0.463  -5.316  -7.056  0.00  0.00    +0.070 C 
ATOM      8  C   LIG    1        0.448  -5.722  -5.582  0.00  0.00    +0.090 C 
ATOM      9  C   LIG    1        1.610  -5.080  -4.870  0.00  0.00    -0.120 A 
ATOM     10  C   LIG    1        1.488  -4.689  -3.552  0.00  0.00    +0.050 A 
ATOM     11  C   LIG    1        2.555  -4.095  -2.904  0.00  0.00    -0.100 A 
ATOM     12  C   LIG    1        3.751  -3.900  -3.570  0.00  0.00    +0.070 A 
ATOM     13  C   LIG    1        3.881  -4.293  -4.888  0.00  0.00    -0.020 A 
ATOM     14  O   LIG    1        1.968  -5.873  -8.777  0.00  0.00    -0.520 OA
ATOM     15  C   LIG    1        2.810  -4.885  -5.543  0.00  0.00    +0.160 A 
ENDBRANCH   3  11
ENDBRANCH   1   3
BRANCH   1  16
ATOM     16  C   LIG    1        1.790  -1.822  -0.025  0.00  0.00    +0.270 C 
BRANCH  16  17
ATOM     17  C   LIG    1        1.296  -0.398  -0.013  0.00  0.00    -0.220 A 
ATOM     18  C   LIG    1        0.002  -0.004   0.002  0.00  0.00    +0.240 A 
ATOM     19  N   LIG    1       -0.016   1.348   0.009  0.00  0.00    -0.320 N 
ATOM     20  N   LIG    1        1.311   1.797  -0.001  0.00  0.00    -0.290 NA
ATOM     21  C   LIG    1        2.096   0.750  -0.014  0.00  0.00    +0.270 A 
BRANCH  19  22
ATOM     22  C   LIG    1       -1.161   2.158   0.019  0.00  0.00    +0.180 A 
ATOM     23  C   LIG    1       -1.034   3.540   0.026  0.00  0.00    +0.030 A 
ATOM     24  C   LIG    1       -2.164   4.336   0.036  0.00  0.00    +0.060 A 
ATOM     25  C   LIG    1       -3.419   3.757   0.040  0.00  0.00    +0.020 A 
ATOM     26  C   LIG    1       -3.549   2.379   0.033  0.00  0.00    -0.010 A 
ATOM     27 CL   LIG    1       -5.127   1.656   0.037  0.00  0.00    -0.050 Cl
ATOM     28  C   LIG    1       -2.422   1.578   0.017  0.00  0.00    +0.000 A 
ENDBRANCH  19  22
ENDBRANCH  16  17
ENDBRANCH   1  16
TORSDOF 5
