REMARK  Name = ZINCrD0000075SE7.0
REMARK                            x       y       z     vdW  Elec       q    Type
REMARK                         _______ _______ _______ _____ _____    ______ ____
ROOT
ATOM      1  C   LIG    1        3.709  -0.706  -0.036  0.00  0.00    +0.220 C 
ENDROOT
BRANCH   1   3
ATOM      2  O   LIG    1        5.159   0.224   1.578  0.00  0.00    -0.520 OA
ATOM      3  C   LIG    1        4.342  -0.637   1.330  0.00  0.00    +0.550 C 
ATOM      4  N   LIG    1        3.999  -1.533   2.277  0.00  0.00    -0.620 N 
ATOM      5  C   LIG    1        3.103  -2.683   2.084  0.00  0.00    +0.240 C 
ATOM      6  C   LIG    1        2.988  -3.406   3.443  0.00  0.00    +0.030 C 
ATOM      7  C   LIG    1        3.366  -2.296   4.458  0.00  0.00    +0.040 C 
ATOM      8  C   LIG    1        4.456  -1.520   3.678  0.00  0.00    +0.260 C 
ENDBRANCH   1   3
BRANCH   1   9
ATOM      9  C   LIG    1        2.411   0.060  -0.027  0.00  0.00    -0.120 A 
ATOM     10  C   LIG    1        1.208  -0.620  -0.063  0.00  0.00    +0.010 A 
ATOM     11  C   LIG    1        0.017   0.082  -0.054  0.00  0.00    +0.010 A 
ATOM     12  C   LIG    1        0.030   1.464  -0.009  0.00  0.00    +0.010 A 
ATOM     13  C   LIG    1        1.233   2.143   0.027  0.00  0.00    +0.020 A 
ATOM     14  C   LIG    1        2.424   1.441   0.017  0.00  0.00    +0.020 A 
ENDBRANCH   1   9
BRANCH   1  15
ATOM     15  N   LIG    1        4.619  -0.116  -1.027  0.00  0.00    -0.660 NA
ATOM     16  H   LIG    1        4.551   0.891  -1.026  0.00  0.00    +0.350 HD
BRANCH  15  17
ATOM     17  C   LIG    1        4.362  -0.659  -2.367  0.00  0.00    +0.260 C 
BRANCH  17  18
ATOM     18  C   LIG    1        5.312  -0.032  -3.354  0.00  0.00    -0.220 A 
ATOM     19  C   LIG    1        5.090   1.097  -4.066  0.00  0.00    +0.230 A 
ATOM     20  N   LIG    1        6.181   1.323  -4.832  0.00  0.00    -0.320 N 
ATOM     21  N   LIG    1        7.099   0.293  -4.586  0.00  0.00    -0.290 NA
ATOM     22  C   LIG    1        6.578  -0.517  -3.701  0.00  0.00    +0.270 A 
BRANCH  20  23
ATOM     23  C   LIG    1        6.361   2.394  -5.718  0.00  0.00    +0.160 A 
ATOM     24  C   LIG    1        5.361   3.346  -5.870  0.00  0.00    -0.010 A 
ATOM     25  C   LIG    1        5.543   4.404  -6.739  0.00  0.00    +0.040 A 
ATOM     26  C   LIG    1        6.714   4.509  -7.467  0.00  0.00    +0.000 A 
ATOM     27  C   LIG    1        7.709   3.559  -7.322  0.00  0.00    +0.040 A 
ATOM     28  C   LIG    1        7.535   2.503  -6.450  0.00  0.00    +0.020 A 
ENDBRANCH  20  23
ENDBRANCH  17  18
ENDBRANCH  15  17
ENDBRANCH   1  15
TORSDOF 6
