REMARK  Name = ZINCpk00000KfLjy.0
REMARK                            x       y       z     vdW  Elec       q    Type
REMARK                         _______ _______ _______ _____ _____    ______ ____
ROOT
ATOM      1  N   LIG    1       -3.130   5.480  -1.373  0.00  0.00    -0.530 N 
ATOM      2  C   LIG    1       -1.884   5.988  -1.460  0.00  0.00    +0.550 C 
ATOM      3  C   LIG    1       -1.321   5.980  -0.068  0.00  0.00    +0.210 C 
ATOM      4  C   LIG    1       -2.406   5.409   0.797  0.00  0.00    -0.140 A 
ATOM      5  C   LIG    1       -2.510   5.147   2.144  0.00  0.00    +0.100 A 
ATOM      6  C   LIG    1       -3.675   4.603   2.657  0.00  0.00    +0.000 A 
ATOM      7  C   LIG    1       -4.733   4.322   1.812  0.00  0.00    +0.080 A 
ATOM      8  C   LIG    1       -4.633   4.582   0.461  0.00  0.00    -0.010 A 
ATOM      9  S   LIG    1       -0.882   7.674   0.469  0.00  0.00    -0.150 S 
ATOM     10  C   LIG    1        0.909   7.456   0.112  0.00  0.00    +0.180 C 
ATOM     11  C   LIG    1        1.058   5.946   0.124  0.00  0.00    +0.530 C 
ATOM     12  O   LIG    1        2.142   5.410   0.213  0.00  0.00    -0.490 OA
ATOM     13  N   LIG    1       -0.069   5.242   0.031  0.00  0.00    -0.540 N 
ATOM     14  O   LIG    1       -1.328   6.376  -2.466  0.00  0.00    -0.460 OA
ATOM     15  C   LIG    1       -3.466   5.130  -0.063  0.00  0.00    +0.170 A 
ENDROOT
BRANCH  13  16
ATOM     16  C   LIG    1       -0.050   3.842   0.023  0.00  0.00    +0.130 A 
ATOM     17  C   LIG    1       -0.005   3.140   1.220  0.00  0.00    +0.040 A 
ATOM     18  C   LIG    1        0.013   1.759   1.208  0.00  0.00    +0.020 A 
ATOM     19  C   LIG    1       -0.014   1.076   0.007  0.00  0.00    +0.020 A 
ATOM     20  C   LIG    1       -0.053   1.772  -1.187  0.00  0.00    +0.020 A 
ATOM     21  C   LIG    1       -0.077   3.153  -1.183  0.00  0.00    +0.010 A 
ENDBRANCH  13  16
BRANCH   1  22
ATOM     22  C   LIG    1       -4.027   5.313  -2.520  0.00  0.00    +0.340 C 
BRANCH  22  26
ATOM     23  N   LIG    1       -5.752   6.638  -3.697  0.00  0.00    -0.850 N 
ATOM     24  H   LIG    1       -6.283   7.441  -3.812  0.00  0.00    +0.410 HD
ATOM     25  H   LIG    1       -5.870   5.888  -4.302  0.00  0.00    +0.400 HD
ATOM     26  C   LIG    1       -4.851   6.562  -2.698  0.00  0.00    +0.500 C 
ATOM     27  O   LIG    1       -4.705   7.498  -1.942  0.00  0.00    -0.520 OA
ENDBRANCH  22  26
ENDBRANCH   1  22
TORSDOF 3
