REMARK  Name = ZINCqH0000050TUt.0
REMARK                            x       y       z     vdW  Elec       q    Type
REMARK                         _______ _______ _______ _____ _____    ______ ____
ROOT
ATOM      1  C   LIG    1        5.419  -2.750  -5.018  0.00  0.00    +0.350 C 
ENDROOT
BRANCH   1   2
ATOM      2  N   LIG    1        5.004  -2.517  -3.628  0.00  0.00    -0.530 NA
ATOM      3  C   LIG    1        5.926  -1.593  -2.952  0.00  0.00    +0.200 C 
ATOM      4  C   LIG    1        5.506  -1.440  -1.488  0.00  0.00    +0.200 C 
ATOM      5  N   LIG    1        4.125  -0.940  -1.427  0.00  0.00    -0.530 NA
ATOM      6  C   LIG    1        3.204  -1.864  -2.103  0.00  0.00    +0.190 C 
ATOM      7  C   LIG    1        3.623  -2.017  -3.567  0.00  0.00    +0.180 C 
BRANCH   5   8
ATOM      8  C   LIG    1        3.711  -0.707  -0.037  0.00  0.00    +0.230 C 
BRANCH   8   9
ATOM      9  C   LIG    1        2.396   0.029  -0.021  0.00  0.00    -0.080 A 
ATOM     10  C   LIG    1        1.208  -0.679  -0.013  0.00  0.00    +0.000 A 
ATOM     11  C   LIG    1        0.002  -0.004   0.002  0.00  0.00    +0.000 A 
ATOM     12  C   LIG    1       -0.017   1.378   0.010  0.00  0.00    +0.000 A 
ATOM     13  C   LIG    1        1.171   2.086   0.002  0.00  0.00    +0.000 A 
ATOM     14  C   LIG    1        2.377   1.411  -0.015  0.00  0.00    +0.020 A 
ENDBRANCH   8   9
ENDBRANCH   5   8
ENDBRANCH   1   2
BRANCH   1  18
ATOM     15  C   LIG    1        2.620  -4.007  -6.891  0.00  0.00    +0.210 A 
ATOM     16  N   LIG    1        3.222  -5.100  -6.499  0.00  0.00    -0.370 NA
ATOM     17  O   LIG    1        4.204  -4.822  -5.843  0.00  0.00    +0.100 OA
ATOM     18  C   LIG    1        4.331  -3.495  -5.748  0.00  0.00    +0.190 A 
ATOM     19  N   LIG    1        3.330  -2.964  -6.405  0.00  0.00    -0.470 NA
BRANCH  15  24
ATOM     20 CL   LIG    1       -2.362  -3.684 -10.199  0.00  0.00    -0.060 Cl
ATOM     21  C   LIG    1       -0.918  -3.778  -9.240  0.00  0.00    -0.020 A 
ATOM     22  C   LIG    1       -0.393  -5.013  -8.902  0.00  0.00    +0.030 A 
ATOM     23  C   LIG    1        0.754  -5.093  -8.139  0.00  0.00    +0.070 A 
ATOM     24  C   LIG    1        1.386  -3.927  -7.711  0.00  0.00    -0.020 A 
ATOM     25  C   LIG    1        0.851  -2.686  -8.050  0.00  0.00    +0.090 A 
ATOM     26  C   LIG    1       -0.294  -2.616  -8.817  0.00  0.00    +0.030 A 
ENDBRANCH  15  24
ENDBRANCH   1  18
TORSDOF 5
