REMARK  Name = ZINCpk00001AZiZt.0
REMARK                            x       y       z     vdW  Elec       q    Type
REMARK                         _______ _______ _______ _____ _____    ______ ____
ROOT
ATOM      1  C   LIG    1        3.322   2.668  -1.492  0.00  0.00    +0.010 C 
ATOM      2  C   LIG    1        2.924   4.146  -1.446  0.00  0.00    +0.020 C 
ATOM      3  C   LIG    1        4.166   5.011  -1.668  0.00  0.00    +0.180 C 
ATOM      4  N   LIG    1        4.763   4.688  -2.971  0.00  0.00    -0.540 NA
ATOM      5  C   LIG    1        5.196   3.286  -3.022  0.00  0.00    +0.170 C 
ATOM      6  C   LIG    1        3.985   2.369  -2.840  0.00  0.00    +0.030 C 
ENDROOT
BRANCH   1  14
ATOM      7  C   LIG    1        3.666  -0.000  -1.219  0.00  0.00    +0.510 C 
ATOM      8  N   LIG    1        2.425   0.411  -1.545  0.00  0.00    -0.600 N 
ATOM      9  C   LIG    1        1.479  -0.573  -2.108  0.00  0.00    +0.250 C 
ATOM     10  C   LIG    1        0.064  -0.420  -1.519  0.00  0.00    +0.020 C 
ATOM     11  C   LIG    1        0.146  -0.143  -0.038  0.00  0.00    +0.000 C 
ATOM     12  C   LIG    1        0.168   1.365   0.194  0.00  0.00    +0.000 C 
ATOM     13  C   LIG    1        1.504   1.974   0.098  0.00  0.00    +0.010 C 
ATOM     14  C   LIG    1        2.075   1.797  -1.331  0.00  0.00    +0.240 C 
ATOM     15  O   LIG    1        4.483   0.800  -0.816  0.00  0.00    -0.500 OA
BRANCH   7  16
ATOM     16  C   LIG    1        4.038  -1.454  -1.353  0.00  0.00    +0.200 C 
BRANCH  16  18
ATOM     17  C   LIG    1        5.852  -2.989  -1.039  0.00  0.00    +0.200 C 
ATOM     18  O   LIG    1        5.396  -1.638  -0.949  0.00  0.00    -0.370 OA
ENDBRANCH  16  18
ENDBRANCH   7  16
ENDBRANCH   1  14
BRANCH   4  19
ATOM     19  C   LIG    1        5.876   5.595  -3.280  0.00  0.00    +0.290 C 
BRANCH  19  20
ATOM     20  C   LIG    1        5.349   6.995  -3.459  0.00  0.00    -0.010 A 
ATOM     21  C   LIG    1        5.286   7.967  -2.519  0.00  0.00    +0.140 A 
ATOM     22  N   LIG    1        4.753   9.039  -3.115  0.00  0.00    -0.270 NA
ATOM     23  N   LIG    1        4.496   8.748  -4.342  0.00  0.00    -0.090 NA
ATOM     24  N   LIG    1        4.837   7.532  -4.591  0.00  0.00    -0.280 N 
ATOM     25  C   LIG    1        4.696   6.847  -5.878  0.00  0.00    +0.370 C 
ENDBRANCH  19  20
ENDBRANCH   4  19
TORSDOF 5
