REMARK  Name = ZINCkj000005jeQY.0
REMARK                            x       y       z     vdW  Elec       q    Type
REMARK                         _______ _______ _______ _____ _____    ______ ____
ROOT
ATOM      1  N   LIG    1        1.157  -2.645   0.786  0.00  0.00    -0.380 N 
ATOM      2  C   LIG    1        1.206  -2.324  -0.646  0.00  0.00    +0.270 C 
ATOM      3  C   LIG    1        2.542  -2.785  -1.231  0.00  0.00    +0.110 C 
ATOM      4  C   LIG    1        2.679  -4.298  -1.043  0.00  0.00    -0.460 C 
ATOM      5  C   LIG    1        2.552  -4.631   0.446  0.00  0.00    +0.110 C 
ATOM      6  C   LIG    1        1.216  -4.100   0.970  0.00  0.00    +0.270 C 
ATOM      7  H   LIG    1        1.942  -2.216   1.252  0.00  0.00    +0.430 HD
ENDROOT
BRANCH   4   8
ATOM      8  S   LIG    1        4.299  -4.843  -1.650  0.00  0.00    +2.620 S 
ATOM      9  O   LIG    1        4.338  -6.259  -1.766  0.00  0.00    -0.940 OA
ATOM     10  O   LIG    1        5.341  -4.133  -0.996  0.00  0.00    -0.940 OA
BRANCH   8  11
ATOM     11  N   LIG    1        4.357  -4.304  -3.215  0.00  0.00    -1.250 NA
ATOM     12  H   LIG    1        3.539  -4.220  -3.729  0.00  0.00    +0.410 HD
ATOM     13  H   LIG    1        5.208  -4.072  -3.617  0.00  0.00    +0.430 HD
ENDBRANCH   8  11
ENDBRANCH   4   8
BRANCH   1  14
ATOM     14  C   LIG    1       -0.093  -2.130   1.360  0.00  0.00    +0.280 C 
BRANCH  14  15
ATOM     15  C   LIG    1       -0.085  -0.601   1.309  0.00  0.00    +0.200 C 
BRANCH  15  16
ATOM     16  O   LIG    1        0.973  -0.102   2.129  0.00  0.00    -0.390 OA
BRANCH  16  23
ATOM     17  C   LIG    1        3.325   1.342   1.313  0.00  0.00    +0.010 C 
ATOM     18  C   LIG    1        2.441   1.785   2.481  0.00  0.00    +0.000 C 
ATOM     19  C   LIG    1        2.962   1.166   3.779  0.00  0.00    +0.020 C 
ATOM     20  C   LIG    1        2.078   1.609   4.946  0.00  0.00    +0.000 C 
ATOM     21  C   LIG    1        0.640   1.146   4.702  0.00  0.00    +0.010 C 
ATOM     22  C   LIG    1        0.119   1.766   3.403  0.00  0.00    -0.010 C 
ATOM     23  C   LIG    1        1.003   1.323   2.236  0.00  0.00    +0.170 C 
ENDBRANCH  16  23
ENDBRANCH  15  16
ENDBRANCH  14  15
ENDBRANCH   1  14
TORSDOF 6
