REMARK  Name = ZINCtV000002M8R1.0
REMARK                            x       y       z     vdW  Elec       q    Type
REMARK                         _______ _______ _______ _____ _____    ______ ____
ROOT
ATOM      1  C   LIG    1        2.054   6.326  -0.080  0.00  0.00    +0.050 C 
ENDROOT
BRANCH   1   3
ATOM      2  O   LIG    1        2.534   7.545   1.883  0.00  0.00    -0.510 OA
ATOM      3  C   LIG    1        2.153   7.591   0.732  0.00  0.00    +0.520 C 
ATOM      4  N   LIG    1        1.818   8.774   0.180  0.00  0.00    -0.680 N 
ATOM      5  H   LIG    1        1.576   8.820  -0.758  0.00  0.00    +0.410 HD
BRANCH   4   6
ATOM      6  C   LIG    1        1.819   9.936   0.961  0.00  0.00    +0.200 A 
ATOM      7  C   LIG    1        2.760  10.095   1.970  0.00  0.00    +0.030 A 
ATOM      8  C   LIG    1        2.762  11.245   2.734  0.00  0.00    +0.070 A 
ATOM      9  C   LIG    1        1.822  12.232   2.503  0.00  0.00    +0.010 A 
ATOM     10  C   LIG    1        0.881  12.075   1.503  0.00  0.00    +0.090 A 
ATOM     11  C   LIG    1        0.877  10.930   0.731  0.00  0.00    -0.210 A 
BRANCH  11  12
ATOM     12  C   LIG    1       -0.150  10.758  -0.359  0.00  0.00    +0.510 C 
ATOM     13  F   LIG    1       -0.918   9.618  -0.101  0.00  0.00    -0.170 F 
ATOM     14  F   LIG    1        0.497  10.616  -1.591  0.00  0.00    -0.180 F 
ATOM     15  F   LIG    1       -0.982  11.882  -0.397  0.00  0.00    -0.170 F 
ENDBRANCH  11  12
ENDBRANCH   4   6
ENDBRANCH   1   3
BRANCH   1  16
ATOM     16  C   LIG    1        2.489   5.135   0.776  0.00  0.00    +0.330 C 
BRANCH  16  17
ATOM     17  N   LIG    1        2.392   3.904  -0.013  0.00  0.00    -0.580 N 
ATOM     18  C   LIG    1        1.195   3.179  -0.007  0.00  0.00    +0.190 A 
ATOM     19  C   LIG    1       -0.022   3.841   0.007  0.00  0.00    -0.020 A 
ATOM     20  C   LIG    1       -1.203   3.118   0.009  0.00  0.00    +0.050 A 
ATOM     21  C   LIG    1       -1.176   1.736  -0.009  0.00  0.00    +0.000 A 
ATOM     22  C   LIG    1        0.036   1.065  -0.015  0.00  0.00    +0.070 A 
ATOM     23  C   LIG    1        1.218   1.782  -0.017  0.00  0.00    -0.150 A 
ATOM     24  S   LIG    1        2.774   0.950  -0.029  0.00  0.00    +0.010 S 
ATOM     25  C   LIG    1        3.800   2.120  -0.860  0.00  0.00    -0.150 A 
ATOM     26  C   LIG    1        4.889   1.700  -1.602  0.00  0.00    +0.070 A 
ATOM     27  C   LIG    1        5.685   2.634  -2.245  0.00  0.00    +0.000 A 
ATOM     28  C   LIG    1        5.391   3.980  -2.145  0.00  0.00    +0.050 A 
ATOM     29  C   LIG    1        4.301   4.406  -1.405  0.00  0.00    -0.020 A 
ATOM     30  C   LIG    1        3.499   3.480  -0.758  0.00  0.00    +0.190 A 
ENDBRANCH  16  17
ENDBRANCH   1  16
TORSDOF 5
