REMARK  Name = ZINCvU0000000JO4.0
REMARK                            x       y       z     vdW  Elec       q    Type
REMARK                         _______ _______ _______ _____ _____    ______ ____
ROOT
ATOM      1  C   LIG    1        5.351   4.250   0.613  0.00  0.00    +0.560 C 
ATOM      2  N   LIG    1        4.004   4.200   0.628  0.00  0.00    -0.670 N 
ATOM      3  H   LIG    1        3.493   4.981   0.894  0.00  0.00    +0.410 HD
ATOM      4  O   LIG    1        5.989   3.306   0.189  0.00  0.00    -0.510 OA
ENDROOT
BRANCH   2   5
ATOM      5  C   LIG    1        3.342   3.022   0.260  0.00  0.00    +0.160 A 
ATOM      6  C   LIG    1        2.115   3.089  -0.386  0.00  0.00    +0.010 A 
ATOM      7  C   LIG    1        1.459   1.927  -0.750  0.00  0.00    +0.060 A 
ATOM      8  C   LIG    1        2.026   0.696  -0.473  0.00  0.00    +0.020 A 
ATOM      9  O   LIG    1        1.598  -0.583  -0.721  0.00  0.00    -0.290 OA
ATOM     10  C   LIG    1        2.800  -1.364  -0.665  0.00  0.00    +0.250 C 
ATOM     11  O   LIG    1        3.592  -0.695   0.327  0.00  0.00    -0.290 OA
ATOM     12  C   LIG    1        2.505  -2.811  -0.257  0.00  0.00    +0.080 C 
ATOM     13  C   LIG    1        2.507  -3.587  -1.600  0.00  0.00    +0.040 C 
ATOM     14  C   LIG    1        3.639  -2.892  -2.399  0.00  0.00    +0.030 C 
ATOM     15  C   LIG    1        3.510  -1.399  -2.018  0.00  0.00    +0.020 C 
ATOM     16  C   LIG    1        3.260   0.626   0.175  0.00  0.00    +0.050 A 
ATOM     17  C   LIG    1        3.914   1.788   0.540  0.00  0.00    +0.050 A 
ENDBRANCH   2   5
BRANCH   1  21
ATOM     18  C   LIG    1        7.366   7.703   2.046  0.00  0.00    -0.080 A 
ATOM     19  C   LIG    1        8.095   6.630   1.564  0.00  0.00    +0.040 A 
ATOM     20  C   LIG    1        7.447   5.506   1.097  0.00  0.00    +0.080 A 
ATOM     21  C   LIG    1        6.052   5.451   1.112  0.00  0.00    -0.130 A 
ATOM     22  C   LIG    1        5.322   6.539   1.594  0.00  0.00    +0.040 A 
ATOM     23  C   LIG    1        5.983   7.656   2.063  0.00  0.00    +0.040 A 
BRANCH  18  24
ATOM     24  C   LIG    1        8.081   8.928   2.555  0.00  0.00    +0.340 C 
BRANCH  24  26
ATOM     25  C   LIG    1        8.900  11.046   1.674  0.00  0.00    +0.650 C 
ATOM     26  N   LIG    1        8.278   9.872   1.452  0.00  0.00    -0.710 N 
ATOM     27  H   LIG    1        7.960   9.651   0.563  0.00  0.00    +0.410 HD
ATOM     28  O   LIG    1        9.298  11.323   2.788  0.00  0.00    -0.560 OA
BRANCH  25  29
ATOM     29  O   LIG    1        9.082  11.914   0.660  0.00  0.00    -0.360 OA
BRANCH  29  31
ATOM     30  C   LIG    1       11.160  12.857   1.509  0.00  0.00    +0.040 C 
ATOM     31  C   LIG    1        9.760  13.159   0.971  0.00  0.00    +0.140 C 
ATOM     32  C   LIG    1        8.961  13.924   2.029  0.00  0.00    +0.040 C 
ATOM     33  C   LIG    1        9.873  14.009  -0.296  0.00  0.00    +0.080 C 
ENDBRANCH  29  31
ENDBRANCH  25  29
ENDBRANCH  24  26
ENDBRANCH  18  24
ENDBRANCH   1  21
TORSDOF 6
