REMARK  Name = ZINCpk00000eakhb.0
REMARK                            x       y       z     vdW  Elec       q    Type
REMARK                         _______ _______ _______ _____ _____    ______ ____
ROOT
ATOM      1  C   LIG    1       -3.742  -1.596   1.044  0.00  0.00    +0.260 C 
ATOM      2  C   LIG    1       -3.640  -0.598  -0.113  0.00  0.00    +0.040 C 
ATOM      3  C   LIG    1       -2.345   0.205   0.025  0.00  0.00    +0.220 C 
ATOM      4  N   LIG    1       -1.196  -0.709   0.010  0.00  0.00    -0.480 N 
ATOM      5  C   LIG    1       -1.248  -1.647   1.139  0.00  0.00    +0.210 C 
ATOM      6  C   LIG    1       -2.510  -2.505   1.034  0.00  0.00    +0.050 C 
ENDROOT
BRANCH   1  11
ATOM      7  C   LIG    1       -8.842  -3.788  -0.148  0.00  0.00    +0.160 C 
ATOM      8  C   LIG    1       -8.328  -2.932   1.039  0.00  0.00    +0.080 C 
ATOM      9  C   LIG    1       -6.911  -3.500   1.261  0.00  0.00    +0.180 C 
ATOM     10  C   LIG    1       -5.955  -2.461   1.789  0.00  0.00    +0.530 C 
ATOM     11  N   LIG    1       -4.952  -2.407   0.885  0.00  0.00    -0.580 N 
ATOM     12  C   LIG    1       -5.200  -3.195  -0.173  0.00  0.00    +0.740 C 
ATOM     13  O   LIG    1       -4.401  -3.411  -1.063  0.00  0.00    -0.520 OA
ATOM     14  O   LIG    1       -6.064  -1.812   2.807  0.00  0.00    -0.460 OA
ATOM     15  N   LIG    1       -6.431  -3.712  -0.131  0.00  0.00    -0.630 N 
ATOM     16  C   LIG    1       -7.566  -4.315  -0.840  0.00  0.00    +0.320 C 
BRANCH   7  18
ATOM     17  C   LIG    1      -10.629  -3.690  -1.742  0.00  0.00    +0.220 C 
ATOM     18  O   LIG    1       -9.600  -2.980  -1.051  0.00  0.00    -0.370 OA
ENDBRANCH   7  18
ENDBRANCH   1  11
BRANCH   4  19
ATOM     19  C   LIG    1        0.002  -0.004   0.002  0.00  0.00    +0.320 A 
ATOM     20  C   LIG    1        1.209  -0.696  -0.014  0.00  0.00    -0.050 A 
ATOM     21  C   LIG    1        2.393   0.019  -0.021  0.00  0.00    +0.090 A 
ATOM     22  C   LIG    1        2.331   1.406  -0.013  0.00  0.00    -0.070 A 
ATOM     23  C   LIG    1        1.098   2.027   0.003  0.00  0.00    +0.150 A 
ATOM     24  C   LIG    1        1.024   3.532   0.011  0.00  0.00    +0.130 C 
ATOM     25  N   LIG    1       -0.016   1.320   0.009  0.00  0.00    -0.520 NA
ENDBRANCH   4  19
TORSDOF 3
