REMARK  Name = ZINCvU0000000CLr.0
REMARK                            x       y       z     vdW  Elec       q    Type
REMARK                         _______ _______ _______ _____ _____    ______ ____
ROOT
ATOM      1  C   LIG    1        3.627   6.002  -0.217  0.00  0.00    +0.260 C 
ENDROOT
BRANCH   1   2
ATOM      2  C   LIG    1        4.486   5.735   0.992  0.00  0.00    -0.130 A 
ATOM      3  C   LIG    1        4.244   6.410   2.174  0.00  0.00    +0.040 A 
ATOM      4  C   LIG    1        5.029   6.162   3.284  0.00  0.00    +0.010 A 
ATOM      5  C   LIG    1        6.061   5.246   3.210  0.00  0.00    +0.030 A 
ATOM      6  C   LIG    1        6.307   4.575   2.027  0.00  0.00    +0.010 A 
ATOM      7  C   LIG    1        5.519   4.820   0.917  0.00  0.00    +0.030 A 
ENDBRANCH   1   2
BRANCH   1   8
ATOM      8  C   LIG    1        2.335   5.236  -0.095  0.00  0.00    +0.530 C 
ATOM      9  N   LIG    1        2.355   3.891  -0.001  0.00  0.00    -0.660 N 
ATOM     10  H   LIG    1        3.202   3.422   0.054  0.00  0.00    +0.420 HD
ATOM     11  O   LIG    1        1.277   5.829  -0.082  0.00  0.00    -0.490 OA
BRANCH   9  12
ATOM     12  C   LIG    1        1.154   3.173   0.019  0.00  0.00    +0.160 A 
ATOM     13  C   LIG    1        0.033   3.709   0.637  0.00  0.00    +0.100 A 
ATOM     14  C   LIG    1       -1.151   2.997   0.654  0.00  0.00    -0.160 A 
ATOM     15  C   LIG    1       -1.222   1.755   0.051  0.00  0.00    +0.080 A 
ATOM     16  C   LIG    1       -0.106   1.216  -0.562  0.00  0.00    +0.060 A 
ATOM     17  C   LIG    1        1.081   1.922  -0.582  0.00  0.00    -0.030 A 
ATOM     18 CL   LIG    1        2.480   1.247  -1.358  0.00  0.00    -0.040 Cl
BRANCH  14  19
ATOM     19  C   LIG    1       -2.368   3.578   1.327  0.00  0.00    +0.510 C 
ATOM     20  F   LIG    1       -1.968   4.407   2.380  0.00  0.00    -0.170 F 
ATOM     21  F   LIG    1       -3.165   2.542   1.825  0.00  0.00    -0.170 F 
ATOM     22  F   LIG    1       -3.102   4.325   0.398  0.00  0.00    -0.170 F 
ENDBRANCH  14  19
ENDBRANCH   9  12
ENDBRANCH   1   8
BRANCH   1  23
ATOM     23  O   LIG    1        3.341   7.423  -0.304  0.00  0.00    -0.320 OA
BRANCH  23  25
ATOM     24  O   LIG    1        5.175   7.667  -1.531  0.00  0.00    -0.480 OA
ATOM     25  C   LIG    1        4.207   8.180  -1.006  0.00  0.00    +0.510 C 
BRANCH  25  26
ATOM     26  C   LIG    1        3.980   9.630  -1.136  0.00  0.00    -0.160 A 
ATOM     27  C   LIG    1        2.868  10.225  -0.533  0.00  0.00    +0.100 A 
ATOM     28  C   LIG    1        2.662  11.582  -0.658  0.00  0.00    +0.000 A 
ATOM     29  C   LIG    1        3.552  12.360  -1.380  0.00  0.00    +0.080 A 
ATOM     30  C   LIG    1        4.655  11.786  -1.981  0.00  0.00    -0.020 A 
ATOM     31  C   LIG    1        4.881  10.423  -1.861  0.00  0.00    +0.180 A 
BRANCH  31  32
ATOM     32  O   LIG    1        5.967   9.859  -2.446  0.00  0.00    -0.480 OA
ATOM     33  H   LIG    1        5.813   9.556  -3.351  0.00  0.00    +0.400 HD
ENDBRANCH  31  32
ENDBRANCH  25  26
ENDBRANCH  23  25
ENDBRANCH   1  23
TORSDOF 8
