REMARK  Name = ZINCkj000018RDCy.0
REMARK                            x       y       z     vdW  Elec       q    Type
REMARK                         _______ _______ _______ _____ _____    ______ ____
ROOT
ATOM      1  C   LIG    1        1.264  -0.445  -0.012  0.00  0.00    +0.160 A 
ATOM      2  N   LIG    1        2.041   0.609  -0.014  0.00  0.00    -0.440 NA
ATOM      3  C   LIG    1        1.208   1.675  -0.001  0.00  0.00    +0.270 A 
ATOM      4  N   LIG    1       -0.014   1.209   0.009  0.00  0.00    -0.390 NA
ATOM      5  O   LIG    1        0.002  -0.004   0.002  0.00  0.00    +0.050 OA
ENDROOT
BRANCH   1  13
ATOM      6  C   LIG    1        1.157  -2.580  -1.270  0.00  0.00    +0.200 C 
ATOM      7  N   LIG    1       -0.310  -2.523  -1.258  0.00  0.00    -0.510 N 
ATOM      8  C   LIG    1       -0.828  -3.262  -0.101  0.00  0.00    +0.270 C 
ATOM      9  C   LIG    1       -0.352  -2.593   1.191  0.00  0.00    +0.050 C 
ATOM     10  C   LIG    1        1.180  -2.594   1.226  0.00  0.00    +0.090 C 
ATOM     11  H   LIG    1       -0.668  -2.934  -2.107  0.00  0.00    +0.430 HD
ATOM     12  H   LIG    1       -0.607  -1.560  -1.202  0.00  0.00    +0.420 HD
ATOM     13  C   LIG    1        1.709  -1.885  -0.024  0.00  0.00    +0.160 C 
BRANCH   6  15
ATOM     14  C   LIG    1        1.235  -2.643  -3.767  0.00  0.00    +0.050 C 
ATOM     15  C   LIG    1        1.683  -1.875  -2.522  0.00  0.00    +0.050 C 
ENDBRANCH   6  15
ENDBRANCH   1  13
BRANCH   3  16
ATOM     16  C   LIG    1        1.606   3.103   0.002  0.00  0.00    -0.230 A 
ATOM     17  C   LIG    1        2.949   3.473  -0.003  0.00  0.00    +0.420 A 
ATOM     18  N   LIG    1        3.261   4.759  -0.005  0.00  0.00    -0.560 NA
ATOM     19  C   LIG    1        2.326   5.688   0.009  0.00  0.00    +0.580 A 
ATOM     20  N   LIG    1        1.042   5.390   0.019  0.00  0.00    -0.570 NA
ATOM     21  C   LIG    1        0.637   4.124   0.017  0.00  0.00    +0.480 A 
BRANCH  21  22
ATOM     22  N   LIG    1       -0.710   3.816   0.027  0.00  0.00    -0.820 N 
ATOM     23  H   LIG    1       -1.370   4.527   0.037  0.00  0.00    +0.420 HD
ATOM     24  H   LIG    1       -0.996   2.889   0.025  0.00  0.00    +0.420 HD
ENDBRANCH  21  22
ENDBRANCH   3  16
TORSDOF 4
