REMARK  Name = ZINCqH0000037py2.0
REMARK                            x       y       z     vdW  Elec       q    Type
REMARK                         _______ _______ _______ _____ _____    ______ ____
ROOT
ATOM      1  C   LIG    1       -0.067   0.130   0.050  0.00  0.00    +0.080 A 
ATOM      2  C   LIG    1        0.977  -0.344  -0.742  0.00  0.00    +0.120 A 
ATOM      3  C   LIG    1        2.170   0.358  -0.747  0.00  0.00    -0.010 A 
ATOM      4  C   LIG    1        2.285   1.503   0.031  0.00  0.00    +0.300 A 
ATOM      5  N   LIG    1        1.273   1.923   0.771  0.00  0.00    -0.510 NA
ATOM      6  C   LIG    1        0.122   1.280   0.801  0.00  0.00    +0.280 A 
ENDROOT
BRANCH   1  16
ATOM      7  C   LIG    1       -1.628  -5.933   1.461  0.00  0.00    +0.040 C 
ATOM      8  C   LIG    1       -2.146  -4.497   1.564  0.00  0.00    +0.010 C 
ATOM      9  C   LIG    1       -2.504  -3.998   0.146  0.00  0.00    +0.310 C 
ATOM     10  N   LIG    1       -2.492  -2.551   0.136  0.00  0.00    -0.620 N 
ATOM     11  C   LIG    1       -3.740  -1.796   0.257  0.00  0.00    +0.300 C 
ATOM     12  C   LIG    1       -4.723  -2.332   1.312  0.00  0.00    -0.240 C 
ATOM     13  S   LIG    1       -3.865  -2.782   2.828  0.00  0.00    +1.240 S 
ATOM     14  O   LIG    1       -4.792  -2.813   3.905  0.00  0.00    -0.850 OA
ATOM     15  C   LIG    1       -1.322  -1.894   0.007  0.00  0.00    +0.710 C 
ATOM     16  N   LIG    1       -1.294  -0.548   0.086  0.00  0.00    -0.680 N 
ATOM     17  H   LIG    1       -2.121  -0.050   0.169  0.00  0.00    +0.410 HD
ATOM     18  O   LIG    1       -0.293  -2.514  -0.180  0.00  0.00    -0.560 OA
ATOM     19  C   LIG    1       -3.275  -4.472   2.487  0.00  0.00    -0.230 C 
ENDBRANCH   1  16
BRANCH   4  20
ATOM     20  O   LIG    1        3.451   2.198   0.032  0.00  0.00    -0.250 OA
BRANCH  20  21
ATOM     21  C   LIG    1        3.565   3.252   0.883  0.00  0.00    +0.100 A 
ATOM     22  C   LIG    1        3.479   4.549   0.398  0.00  0.00    +0.040 A 
ATOM     23  C   LIG    1        3.590   5.618   1.266  0.00  0.00    +0.040 A 
ATOM     24  C   LIG    1        3.797   5.396   2.615  0.00  0.00    -0.030 A 
ATOM     25  C   LIG    1        3.889   4.104   3.100  0.00  0.00    +0.040 A 
ATOM     26 CL   LIG    1        3.943   6.742   3.703  0.00  0.00    -0.060 Cl
ATOM     27  C   LIG    1        3.774   3.031   2.237  0.00  0.00    +0.040 A 
ENDBRANCH  20  21
ENDBRANCH   4  20
TORSDOF 3
