REMARK  Name = ZINCqH0000003S2D.0
REMARK                            x       y       z     vdW  Elec       q    Type
REMARK                         _______ _______ _______ _____ _____    ______ ____
ROOT
ATOM      1  N   LIG    1       -1.698   3.874  -3.188  0.00  0.00    -0.720 N 
ATOM      2  H   LIG    1       -0.763   4.116  -3.093  0.00  0.00    +0.400 HD
ATOM      3  C   LIG    1       -2.653   4.818  -3.083  0.00  0.00    +0.570 C 
ATOM      4  O   LIG    1       -3.825   4.514  -3.202  0.00  0.00    -0.540 OA
ENDROOT
BRANCH   3   5
ATOM      5  C   LIG    1       -2.278   6.222  -2.822  0.00  0.00    -0.170 A 
ATOM      6  C   LIG    1       -0.928   6.571  -2.679  0.00  0.00    +0.060 A 
ATOM      7  C   LIG    1       -0.566   7.864  -2.443  0.00  0.00    +0.000 A 
ATOM      8  C   LIG    1       -1.538   8.856  -2.330  0.00  0.00    +0.120 A 
ATOM      9  N   LIG    1       -1.476  10.210  -2.095  0.00  0.00    -0.580 N 
ATOM     10  H   LIG    1       -0.659  10.714  -1.960  0.00  0.00    +0.420 HD
ATOM     11  C   LIG    1       -2.736  10.740  -2.079  0.00  0.00    +0.070 A 
ATOM     12  C   LIG    1       -3.639   9.766  -2.297  0.00  0.00    -0.160 A 
ATOM     13  C   LIG    1       -5.131   9.974  -2.347  0.00  0.00    +0.090 C 
ATOM     14  C   LIG    1       -5.452  11.337  -1.721  0.00  0.00    +0.020 C 
ATOM     15  C   LIG    1       -4.544  12.405  -2.337  0.00  0.00    +0.020 C 
ATOM     16  C   LIG    1       -3.104  12.189  -1.857  0.00  0.00    +0.100 C 
ATOM     17  C   LIG    1       -2.900   8.518  -2.467  0.00  0.00    -0.110 A 
ATOM     18  C   LIG    1       -3.266   7.197  -2.713  0.00  0.00    +0.140 A 
ENDBRANCH   3   5
BRANCH   1  19
ATOM     19  C   LIG    1       -2.070   2.481  -3.447  0.00  0.00    +0.340 C 
BRANCH  19  25
ATOM     20  C   LIG    1       -0.195   1.208  -2.357  0.00  0.00    +0.340 A 
ATOM     21  N   LIG    1        0.894   0.460  -2.417  0.00  0.00    -0.540 NA
ATOM     22  C   LIG    1        1.422   0.096  -3.570  0.00  0.00    +0.310 A 
ATOM     23  C   LIG    1        0.851   0.487  -4.765  0.00  0.00    -0.070 A 
ATOM     24  C   LIG    1       -0.293   1.273  -4.745  0.00  0.00    +0.120 A 
ATOM     25  C   LIG    1       -0.826   1.633  -3.520  0.00  0.00    -0.180 A 
BRANCH  20  26
ATOM     26  O   LIG    1       -0.704   1.559  -1.150  0.00  0.00    -0.300 OA
BRANCH  26  28
ATOM     27  C   LIG    1       -0.729   1.579   1.267  0.00  0.00    +0.070 C 
ATOM     28  C   LIG    1       -0.013   1.086   0.008  0.00  0.00    +0.210 C 
ENDBRANCH  26  28
ENDBRANCH  20  26
ENDBRANCH  19  25
ENDBRANCH   1  19
TORSDOF 5
