REMARK  Name = ZINCvU00000009hq.0
REMARK                            x       y       z     vdW  Elec       q    Type
REMARK                         _______ _______ _______ _____ _____    ______ ____
ROOT
ATOM      1  C   LIG    1        0.438  -0.212  -1.612  0.00  0.00    +0.000 A 
ATOM      2  C   LIG    1        1.490  -0.810  -0.895  0.00  0.00    -0.200 A 
ATOM      3  C   LIG    1        1.442  -2.186  -0.622  0.00  0.00    +0.300 A 
ATOM      4  O   LIG    1        2.560  -2.491   0.069  0.00  0.00    -0.070 OA
ATOM      5  N   LIG    1        3.339  -1.326   0.249  0.00  0.00    -0.250 NA
ATOM      6  N   LIG    1        0.413  -2.909  -1.038  0.00  0.00    -0.460 NA
ATOM      7  C   LIG    1       -0.586  -2.378  -1.711  0.00  0.00    +0.240 A 
ATOM      8  C   LIG    1        2.740  -0.307  -0.308  0.00  0.00    +0.200 A 
ATOM      9  C   LIG    1       -0.619  -1.027  -2.017  0.00  0.00    -0.020 A 
ENDROOT
BRANCH   8  10
ATOM     10  C   LIG    1        3.229   1.092  -0.342  0.00  0.00    +0.000 A 
ATOM     11  C   LIG    1        4.181   1.478  -1.285  0.00  0.00    +0.040 A 
ATOM     12  C   LIG    1        4.628   2.783  -1.315  0.00  0.00    +0.010 A 
ATOM     13  C   LIG    1        4.143   3.705  -0.405  0.00  0.00    +0.010 A 
ATOM     14  C   LIG    1        3.203   3.326   0.537  0.00  0.00    +0.010 A 
ATOM     15  C   LIG    1        2.744   2.025   0.573  0.00  0.00    +0.040 A 
ENDBRANCH   8  10
BRANCH   1  18
ATOM     16  N   LIG    1       -0.622   1.808  -2.505  0.00  0.00    -0.690 N 
ATOM     17  H   LIG    1       -1.401   1.272  -2.721  0.00  0.00    +0.400 HD
ATOM     18  C   LIG    1        0.450   1.235  -1.922  0.00  0.00    +0.550 C 
ATOM     19  O   LIG    1        1.427   1.906  -1.655  0.00  0.00    -0.490 OA
BRANCH  16  23
ATOM     20  C   LIG    1       -1.952   5.426  -2.294  0.00  0.00    +0.090 C 
ATOM     21  C   LIG    1       -1.952   3.978  -2.788  0.00  0.00    -0.100 C 
ATOM     22  C   LIG    1       -1.261   3.688  -4.122  0.00  0.00    +0.040 C 
ATOM     23  C   LIG    1       -0.611   3.241  -2.811  0.00  0.00    +0.250 C 
BRANCH  21  24
ATOM     24  C   LIG    1       -3.182   3.176  -2.451  0.00  0.00    -0.050 A 
ATOM     25  C   LIG    1       -3.232   2.446  -1.279  0.00  0.00    +0.010 A 
ATOM     26  C   LIG    1       -4.362   1.713  -0.968  0.00  0.00    +0.000 A 
ATOM     27  C   LIG    1       -5.439   1.703  -1.835  0.00  0.00    +0.000 A 
ATOM     28  C   LIG    1       -5.387   2.429  -3.010  0.00  0.00    +0.000 A 
ATOM     29  C   LIG    1       -4.258   3.165  -3.318  0.00  0.00    +0.010 A 
ENDBRANCH  21  24
ENDBRANCH  16  23
ENDBRANCH   1  18
BRANCH   7  30
ATOM     30  C   LIG    1       -1.724  -3.260  -2.154  0.00  0.00    +0.010 C 
ATOM     31  C   LIG    1       -3.023  -2.575  -2.582  0.00  0.00    +0.040 C 
ATOM     32  C   LIG    1       -2.958  -3.327  -1.251  0.00  0.00    +0.060 C 
ENDBRANCH   7  30
TORSDOF 5
