REMARK  Name = ZINCnE000001NuHN.0
REMARK                            x       y       z     vdW  Elec       q    Type
REMARK                         _______ _______ _______ _____ _____    ______ ____
ROOT
ATOM      1  C   LIG    1        5.671   3.961  -1.481  0.00  0.00    +0.010 C 
ATOM      2  C   LIG    1        4.145   4.064  -1.453  0.00  0.00    +0.240 C 
ENDROOT
BRANCH   2   3
ATOM      3  N   LIG    1        3.562   2.835  -1.998  0.00  0.00    -0.720 N 
ATOM      4  H   LIG    1        3.294   2.119  -1.401  0.00  0.00    +0.400 HD
BRANCH   3   5
ATOM      5  C   LIG    1        3.396   2.695  -3.364  0.00  0.00    +0.390 A 
ATOM      6  C   LIG    1        3.780   3.732  -4.213  0.00  0.00    -0.140 A 
ATOM      7  C   LIG    1        3.618   3.589  -5.564  0.00  0.00    +0.120 A 
ATOM      8  C   LIG    1        3.056   2.396  -6.048  0.00  0.00    -0.240 A 
ATOM      9  C   LIG    1        2.689   1.401  -5.139  0.00  0.00    +0.330 A 
ATOM     10  N   LIG    1        2.868   1.578  -3.847  0.00  0.00    -0.560 NA
BRANCH   8  11
ATOM     11  C   LIG    1        2.857   2.198  -7.493  0.00  0.00    +0.530 C 
ATOM     12  O   LIG    1        3.181   3.075  -8.281  0.00  0.00    -0.690 OA
ATOM     13  O   LIG    1        2.367   1.155  -7.905  0.00  0.00    -0.690 OA
ENDBRANCH   8  11
ENDBRANCH   3   5
ENDBRANCH   2   3
BRANCH   2  14
ATOM     14  C   LIG    1        3.673   4.256  -0.010  0.00  0.00    +0.120 C 
BRANCH  14  15
ATOM     15  C   LIG    1        2.183   4.480   0.005  0.00  0.00    -0.160 A 
ATOM     16  C   LIG    1        1.554   5.666   0.017  0.00  0.00    +0.230 A 
ATOM     17  N   LIG    1        0.199   5.475   0.029  0.00  0.00    -0.590 N 
ATOM     18  H   LIG    1       -0.464   6.184   0.038  0.00  0.00    +0.420 HD
ATOM     19  C   LIG    1       -0.084   4.126   0.024  0.00  0.00    +0.080 A 
ATOM     20  C   LIG    1       -1.270   3.399   0.031  0.00  0.00    +0.030 A 
ATOM     21  C   LIG    1       -1.231   2.022   0.019  0.00  0.00    +0.010 A 
ATOM     22  C   LIG    1       -0.016   1.347   0.009  0.00  0.00    +0.080 A 
ATOM     23  C   LIG    1        1.170   2.049   0.002  0.00  0.00    +0.030 A 
ATOM     24  F   LIG    1        0.002  -0.004   0.002  0.00  0.00    -0.140 F 
ATOM     25  C   LIG    1        1.146   3.445   0.009  0.00  0.00    -0.070 A 
ENDBRANCH  14  15
ENDBRANCH   2  14
TORSDOF 5
