REMARK  Name = ZINCrH00000No4wp.0
REMARK                            x       y       z     vdW  Elec       q    Type
REMARK                         _______ _______ _______ _____ _____    ______ ____
ROOT
ATOM      1  C   LIG    1        1.314   1.799   0.123  0.00  0.00    +0.530 C 
ATOM      2  N   LIG    1        2.191   1.440   1.081  0.00  0.00    -0.580 N 
ATOM      3  H   LIG    1        1.972   0.721   1.694  0.00  0.00    +0.390 HD
ATOM      4  O   LIG    1        1.588   2.699  -0.643  0.00  0.00    -0.470 OA
ENDROOT
BRANCH   2   5
ATOM      5  N   LIG    1        3.418   2.107   1.193  0.00  0.00    -0.230 NA
ATOM      6  C   LIG    1        4.262   1.762   2.117  0.00  0.00    +0.140 C 
ATOM      7  C   LIG    1        3.922   0.644   3.068  0.00  0.00    +0.090 C 
BRANCH   6   8
ATOM      8  C   LIG    1        5.554   2.463   2.234  0.00  0.00    -0.050 A 
ATOM      9  C   LIG    1        6.464   2.093   3.227  0.00  0.00    +0.050 A 
ATOM     10  C   LIG    1        7.670   2.751   3.334  0.00  0.00    +0.020 A 
ATOM     11  C   LIG    1        7.987   3.781   2.458  0.00  0.00    +0.070 A 
ATOM     12  O   LIG    1        9.182   4.419   2.586  0.00  0.00    -0.310 OA
ATOM     13  C   LIG    1        9.623   5.191   1.464  0.00  0.00    +0.230 C 
ATOM     14  C   LIG    1        8.444   6.042   0.972  0.00  0.00    +0.230 C 
ATOM     15  O   LIG    1        7.382   5.159   0.596  0.00  0.00    -0.300 OA
ATOM     16  C   LIG    1        7.085   4.154   1.465  0.00  0.00    +0.050 A 
ATOM     17  C   LIG    1        5.874   3.495   1.349  0.00  0.00    +0.080 A 
ENDBRANCH   6   8
ENDBRANCH   2   5
BRANCH   1  18
ATOM     18  C   LIG    1       -0.006   1.082   0.003  0.00  0.00    +0.170 C 
ATOM     19  C   LIG    1       -0.846   1.347   1.254  0.00  0.00    +0.060 C 
BRANCH  18  20
ATOM     20  O   LIG    1       -0.704   1.559  -1.150  0.00  0.00    -0.280 OA
BRANCH  20  28
ATOM     21  C   LIG    1       -1.914   2.380  -3.566  0.00  0.00    +0.110 C 
ATOM     22  C   LIG    1       -2.242   1.070  -2.897  0.00  0.00    -0.100 A 
ATOM     23  C   LIG    1       -3.168   0.216  -3.466  0.00  0.00    +0.070 A 
ATOM     24  C   LIG    1       -3.469  -0.986  -2.852  0.00  0.00    -0.070 A 
ATOM     25  C   LIG    1       -2.844  -1.337  -1.668  0.00  0.00    +0.070 A 
ATOM     26  C   LIG    1       -1.914  -0.488  -1.099  0.00  0.00    -0.060 A 
ATOM     27 CL   LIG    1       -4.633  -2.057  -3.568  0.00  0.00    -0.070 Cl
ATOM     28  C   LIG    1       -1.615   0.721  -1.710  0.00  0.00    +0.130 A 
ENDBRANCH  20  28
ENDBRANCH  18  20
ENDBRANCH   1  18
TORSDOF 5
