REMARK  Name = ZINCpe000000YBQB.0
REMARK                            x       y       z     vdW  Elec       q    Type
REMARK                         _______ _______ _______ _____ _____    ______ ____
ROOT
ATOM      1  C   LIG    1       -1.879   2.358  -0.678  0.00  0.00    +0.330 C 
ATOM      2  C   LIG    1       -1.840   2.333   0.829  0.00  0.00    -0.280 A 
ATOM      3  C   LIG    1       -2.479   2.770   1.940  0.00  0.00    +0.300 A 
ATOM      4  N   LIG    1       -1.802   2.309   3.012  0.00  0.00    -0.460 N 
ATOM      5  H   LIG    1       -2.030   2.465   3.942  0.00  0.00    +0.450 HD
ATOM      6  N   LIG    1       -0.711   1.565   2.545  0.00  0.00    -0.250 NA
ATOM      7  C   LIG    1       -0.735   1.580   1.236  0.00  0.00    +0.070 A 
ATOM      8  C   LIG    1       -0.013   1.086   0.008  0.00  0.00    +0.420 C 
ATOM      9  N   LIG    1       -0.737   1.579  -1.167  0.00  0.00    -0.980 NA
ENDROOT
BRANCH   1  13
ATOM     10  N   LIG    1       -2.723   4.678  -0.836  0.00  0.00    -0.850 N 
ATOM     11  H   LIG    1       -2.655   5.593  -1.151  0.00  0.00    +0.410 HD
ATOM     12  H   LIG    1       -3.472   4.410  -0.282  0.00  0.00    +0.400 HD
ATOM     13  C   LIG    1       -1.774   3.780  -1.167  0.00  0.00    +0.510 C 
ATOM     14  O   LIG    1       -0.837   4.115  -1.860  0.00  0.00    -0.510 OA
ENDBRANCH   1  13
BRANCH   9  15
ATOM     15  S   LIG    1       -0.341   1.306  -2.752  0.00  0.00    +2.720 S 
ATOM     16  O   LIG    1        1.050   1.016  -2.773  0.00  0.00    -0.910 OA
ATOM     17  O   LIG    1       -0.926   2.364  -3.499  0.00  0.00    -0.890 OA
BRANCH  15  18
ATOM     18  C   LIG    1       -1.165  -0.170  -3.249  0.00  0.00    -0.740 A 
ATOM     19  C   LIG    1       -0.538  -1.395  -3.101  0.00  0.00    +0.220 A 
ATOM     20  C   LIG    1       -1.187  -2.557  -3.486  0.00  0.00    +0.040 A 
ATOM     21  C   LIG    1       -2.460  -2.491  -4.031  0.00  0.00    +0.150 A 
ATOM     22  C   LIG    1       -3.084  -1.264  -4.184  0.00  0.00    +0.040 A 
ATOM     23  F   LIG    1       -4.325  -1.198  -4.715  0.00  0.00    -0.090 F 
ATOM     24  F   LIG    1       -3.092  -3.623  -4.411  0.00  0.00    -0.080 F 
ATOM     25  F   LIG    1       -0.578  -3.753  -3.337  0.00  0.00    -0.090 F 
ATOM     26  F   LIG    1        0.705  -1.458  -2.576  0.00  0.00    -0.070 F 
ATOM     27  C   LIG    1       -2.436  -0.103  -3.792  0.00  0.00    +0.220 A 
ATOM     28  F   LIG    1       -3.045   1.094  -3.941  0.00  0.00    -0.070 F 
ENDBRANCH  15  18
ENDBRANCH   9  15
TORSDOF 3
