REMARK  Name = ZINCrD000000ADOQ.0
REMARK                            x       y       z     vdW  Elec       q    Type
REMARK                         _______ _______ _______ _____ _____    ______ ____
ROOT
ATOM      1  O   LIG    1        1.274   5.819  -0.067  0.00  0.00    -0.490 OA
ATOM      2  C   LIG    1        2.335   5.231  -0.087  0.00  0.00    +0.490 C 
ATOM      3  N   LIG    1        2.362   3.886   0.000  0.00  0.00    -0.670 N 
ATOM      4  H   LIG    1        3.211   3.421   0.059  0.00  0.00    +0.410 HD
ENDROOT
BRANCH   3   5
ATOM      5  C   LIG    1        1.163   3.160   0.005  0.00  0.00    +0.140 A 
ATOM      6  C   LIG    1        0.071   3.618  -0.719  0.00  0.00    +0.040 A 
ATOM      7  C   LIG    1       -1.111   2.904  -0.715  0.00  0.00    +0.020 A 
ATOM      8  C   LIG    1       -1.210   1.730   0.019  0.00  0.00    +0.060 A 
ATOM      9  C   LIG    1       -0.115   1.268   0.741  0.00  0.00    +0.100 A 
ATOM     10  F   LIG    1       -0.208   0.122   1.452  0.00  0.00    -0.130 F 
ATOM     11  C   LIG    1        1.067   1.983   0.736  0.00  0.00    -0.010 A 
BRANCH   8  12
ATOM     12  N   LIG    1       -2.410   1.008   0.027  0.00  0.00    -0.470 N 
ATOM     13  C   LIG    1       -3.374   1.566  -0.956  0.00  0.00    +0.180 C 
ATOM     14  C   LIG    1       -4.361   0.394  -1.189  0.00  0.00    +0.040 C 
ATOM     15  C   LIG    1       -3.438  -0.846  -1.156  0.00  0.00    +0.020 C 
ATOM     16  C   LIG    1       -2.187  -0.396  -0.379  0.00  0.00    +0.180 C 
ENDBRANCH   8  12
ENDBRANCH   3   5
BRANCH   2  17
ATOM     17  C   LIG    1        3.623   6.004  -0.209  0.00  0.00    +0.340 C 
BRANCH  17  18
ATOM     18  N   LIG    1        3.326   7.437  -0.287  0.00  0.00    -0.490 N 
ATOM     19  C   LIG    1        3.258   8.161   0.857  0.00  0.00    +0.340 A 
ATOM     20  C   LIG    1        2.991   9.483   0.863  0.00  0.00    -0.160 A 
ATOM     21  C   LIG    1        2.768  10.168  -0.354  0.00  0.00    +0.420 A 
ATOM     22  C   LIG    1        2.840   9.389  -1.603  0.00  0.00    -0.190 A 
ATOM     23  C   LIG    1        2.633   9.986  -2.846  0.00  0.00    +0.110 A 
ATOM     24  C   LIG    1        2.708   9.229  -3.982  0.00  0.00    -0.030 A 
ATOM     25  C   LIG    1        2.989   7.872  -3.907  0.00  0.00    +0.080 A 
ATOM     26  C   LIG    1        3.196   7.263  -2.689  0.00  0.00    -0.050 A 
ATOM     27  O   LIG    1        2.525  11.363  -0.369  0.00  0.00    -0.490 OA
ATOM     28  C   LIG    1        3.130   8.016  -1.521  0.00  0.00    +0.200 A 
ENDBRANCH  17  18
ENDBRANCH   2  17
TORSDOF 4
