REMARK  Name = ZINCqH0000000jvh.0
REMARK                            x       y       z     vdW  Elec       q    Type
REMARK                         _______ _______ _______ _____ _____    ______ ____
ROOT
ATOM      1  C   LIG    1        0.878  -1.646   1.367  0.00  0.00    -0.070 A 
ATOM      2  C   LIG    1        1.466  -1.262   2.553  0.00  0.00    +0.060 A 
ATOM      3  C   LIG    1        2.031  -2.223   3.395  0.00  0.00    -0.100 A 
ATOM      4  C   LIG    1        1.999  -3.572   3.033  0.00  0.00    -0.030 A 
ATOM      5  C   LIG    1        1.408  -3.950   1.843  0.00  0.00    +0.110 A 
ATOM      6  C   LIG    1        0.841  -2.987   1.009  0.00  0.00    +0.090 A 
ENDROOT
BRANCH   3   7
ATOM      7  C   LIG    1        2.661  -1.813   4.666  0.00  0.00    +0.560 C 
ATOM      8  N   LIG    1        2.619  -2.634   5.734  0.00  0.00    -0.600 N 
ATOM      9  C   LIG    1        2.032  -3.970   5.608  0.00  0.00    +0.290 C 
ATOM     10  O   LIG    1        3.218  -0.736   4.749  0.00  0.00    -0.530 OA
BRANCH   8  11
ATOM     11  C   LIG    1        3.160  -2.190   7.021  0.00  0.00    +0.360 C 
BRANCH  11  12
ATOM     12  C   LIG    1        2.074  -1.512   7.816  0.00  0.00    -0.140 A 
ATOM     13  C   LIG    1        2.003  -0.133   7.854  0.00  0.00    +0.070 A 
ATOM     14  C   LIG    1        1.007   0.489   8.584  0.00  0.00    -0.030 A 
ATOM     15  C   LIG    1        0.078  -0.266   9.275  0.00  0.00    +0.050 A 
ATOM     16  C   LIG    1        0.144  -1.646   9.240  0.00  0.00    -0.080 A 
ATOM     17  C   LIG    1        1.139  -2.273   8.505  0.00  0.00    +0.140 A 
BRANCH  17  18
ATOM     18  O   LIG    1        1.203  -3.630   8.463  0.00  0.00    -0.320 OA
ATOM     19  C   LIG    1        0.209  -4.348   9.196  0.00  0.00    +0.240 C 
ENDBRANCH  17  18
ENDBRANCH  11  12
ENDBRANCH   8  11
ENDBRANCH   3   7
BRANCH   5  20
ATOM     20  O   LIG    1        1.374  -5.262   1.487  0.00  0.00    -0.300 OA
ATOM     21  C   LIG    1        1.970  -6.195   2.391  0.00  0.00    +0.250 C 
ENDBRANCH   5  20
BRANCH   6  22
ATOM     22  O   LIG    1        0.256  -3.360  -0.158  0.00  0.00    -0.320 OA
ATOM     23  C   LIG    1        1.091  -3.409  -1.316  0.00  0.00    +0.230 C 
ENDBRANCH   6  22
BRANCH   1  24
ATOM     24  C   LIG    1        0.268  -0.608   0.460  0.00  0.00    +0.120 C 
BRANCH  24  26
ATOM     25  C   LIG    1       -1.735   0.661   1.042  0.00  0.00    +0.010 C 
ATOM     26  C   LIG    1       -1.208  -0.500   0.742  0.00  0.00    -0.030 C 
ENDBRANCH  24  26
ENDBRANCH   1  24
TORSDOF 8
