REMARK  Name = ZINCqH00000519cU.0
REMARK                            x       y       z     vdW  Elec       q    Type
REMARK                         _______ _______ _______ _____ _____    ______ ____
ROOT
ATOM      1  O   LIG    1       -3.612  -4.808   0.355  0.00  0.00    -0.460 OA
ATOM      2  C   LIG    1       -4.666  -4.209   0.338  0.00  0.00    +0.510 C 
ATOM      3  N   LIG    1       -4.679  -2.871   0.174  0.00  0.00    -0.660 N 
ATOM      4  H   LIG    1       -5.523  -2.402   0.082  0.00  0.00    +0.420 HD
ENDROOT
BRANCH   3   5
ATOM      5  C   LIG    1       -3.478  -2.161   0.138  0.00  0.00    +0.360 A 
ATOM      6  C   LIG    1       -3.502  -0.773   0.082  0.00  0.00    -0.040 A 
ATOM      7  C   LIG    1       -2.305  -0.078   0.052  0.00  0.00    +0.090 A 
ATOM      8  C   LIG    1       -1.117  -0.803   0.067  0.00  0.00    +0.000 A 
ATOM      9  C   LIG    1       -1.170  -2.188   0.122  0.00  0.00    +0.310 A 
ATOM     10  N   LIG    1       -2.329  -2.817   0.156  0.00  0.00    -0.460 NA
BRANCH   8  11
ATOM     11  O   LIG    1        0.081  -0.162   0.032  0.00  0.00    -0.250 OA
BRANCH  11  12
ATOM     12  C   LIG    1        0.528   0.416   1.178  0.00  0.00    +0.120 A 
ATOM     13  C   LIG    1       -0.271   0.420   2.312  0.00  0.00    -0.080 A 
ATOM     14  C   LIG    1        0.188   1.003   3.477  0.00  0.00    +0.050 A 
ATOM     15  C   LIG    1        1.439   1.592   3.511  0.00  0.00    -0.020 A 
ATOM     16  C   LIG    1        2.235   1.594   2.380  0.00  0.00    +0.050 A 
ATOM     17  C   LIG    1        1.783   1.008   1.214  0.00  0.00    -0.010 A 
ENDBRANCH  11  12
ENDBRANCH   8  11
ENDBRANCH   3   5
BRANCH   2  18
ATOM     18  C   LIG    1       -5.962  -4.961   0.500  0.00  0.00    +0.080 C 
BRANCH  18  19
ATOM     19  C   LIG    1       -5.669  -6.453   0.668  0.00  0.00    +0.220 C 
BRANCH  19  20
ATOM     20  C   LIG    1       -6.965  -7.205   0.830  0.00  0.00    +0.180 A 
ATOM     21  N   LIG    1       -7.695  -7.718  -0.131  0.00  0.00    -0.470 NA
ATOM     22  C   LIG    1       -8.748  -8.290   0.481  0.00  0.00    +0.200 A 
ATOM     23  N   LIG    1       -8.610  -8.092   1.758  0.00  0.00    -0.380 NA
ATOM     24  O   LIG    1       -7.592  -7.470   1.979  0.00  0.00    +0.080 OA
BRANCH  22  25
ATOM     25  C   LIG    1       -9.881  -9.021  -0.191  0.00  0.00    +0.060 C 
ATOM     26  C   LIG    1      -11.081  -9.412   0.674  0.00  0.00    +0.050 C 
ATOM     27  C   LIG    1      -10.103 -10.485   0.191  0.00  0.00    +0.050 C 
ENDBRANCH  22  25
ENDBRANCH  19  20
ENDBRANCH  18  19
ENDBRANCH   2  18
TORSDOF 7
