REMARK  Name = ZINCtj00000sf6cs.0
REMARK                            x       y       z     vdW  Elec       q    Type
REMARK                         _______ _______ _______ _____ _____    ______ ____
ROOT
ATOM      1  C   LIG    1        0.081   1.054   2.478  0.00  0.00    +0.190 C 
ATOM      2  C   LIG    1       -0.897   0.151   3.266  0.00  0.00    +0.220 C 
ATOM      3  N   LIG    1       -2.246   0.570   2.806  0.00  0.00    -0.430 N 
ATOM      4  C   LIG    1       -2.080   0.801   1.348  0.00  0.00    +0.230 C 
ATOM      5  C   LIG    1       -0.699   1.479   1.216  0.00  0.00    +0.190 C 
ENDROOT
BRANCH   3   6
ATOM      6  C   LIG    1       -3.183  -0.421   3.049  0.00  0.00    +0.370 A 
ATOM      7  C   LIG    1       -3.494  -0.797   4.357  0.00  0.00    -0.140 A 
ATOM      8  C   LIG    1       -4.434  -1.790   4.551  0.00  0.00    +0.400 A 
ATOM      9  N   LIG    1       -5.009  -2.353   3.499  0.00  0.00    -0.570 NA
ATOM     10  C   LIG    1       -4.695  -1.976   2.268  0.00  0.00    +0.590 A 
ATOM     11  N   LIG    1       -3.803  -1.024   2.039  0.00  0.00    -0.610 NA
BRANCH  10  12
ATOM     12  N   LIG    1       -5.319  -2.588   1.195  0.00  0.00    -0.590 N 
ATOM     13  C   LIG    1       -4.985  -2.186  -0.173  0.00  0.00    +0.300 C 
ATOM     14  C   LIG    1       -6.312  -3.639   1.427  0.00  0.00    +0.310 C 
ENDBRANCH  10  12
ENDBRANCH   3   6
BRANCH   5  15
ATOM     15  N   LIG    1       -0.012   1.005   0.008  0.00  0.00    -0.490 N 
ATOM     16  H   LIG    1        0.935   1.354   0.000  0.00  0.00    +0.440 HD
ATOM     17  H   LIG    1        0.002  -0.004   0.002  0.00  0.00    +0.430 HD
BRANCH  15  18
ATOM     18  C   LIG    1       -0.722   1.492  -1.183  0.00  0.00    +0.380 C 
BRANCH  18  19
ATOM     19  C   LIG    1       -0.017   1.006  -2.422  0.00  0.00    +0.010 A 
ATOM     20  C   LIG    1        0.903   1.693  -3.134  0.00  0.00    -0.020 A 
ATOM     21  C   LIG    1        1.312   0.881  -4.210  0.00  0.00    +0.120 A 
ATOM     22  N   LIG    1        0.644  -0.252  -4.139  0.00  0.00    -0.230 NA
ATOM     23  N   LIG    1       -0.197  -0.192  -3.021  0.00  0.00    -0.460 N 
ATOM     24  H   LIG    1       -0.804  -0.889  -2.727  0.00  0.00    +0.450 HD
BRANCH  21  25
ATOM     25  C   LIG    1        2.313   1.241  -5.244  0.00  0.00    +0.010 A 
ATOM     26  C   LIG    1        2.957   2.481  -5.219  0.00  0.00    -0.010 A 
ATOM     27  C   LIG    1        3.885   2.773  -6.197  0.00  0.00    +0.270 A 
ATOM     28  N   LIG    1        4.160   1.904  -7.150  0.00  0.00    -0.470 NA
ATOM     29  C   LIG    1        3.572   0.725  -7.213  0.00  0.00    +0.280 A 
ATOM     30  C   LIG    1        2.636   0.350  -6.272  0.00  0.00    +0.000 A 
ENDBRANCH  21  25
ENDBRANCH  18  19
ENDBRANCH  15  18
ENDBRANCH   5  15
BRANCH   1  32
ATOM     31  C   LIG    1        2.335   0.460   3.034  0.00  0.00    +0.250 C 
ATOM     32  O   LIG    1        1.251   0.320   2.114  0.00  0.00    -0.400 OA
ENDBRANCH   1  32
TORSDOF 7
