REMARK  Name = ZINCrD000000Ccgx.0
REMARK                            x       y       z     vdW  Elec       q    Type
REMARK                         _______ _______ _______ _____ _____    ______ ____
ROOT
ATOM      1  O   LIG    1        1.725   3.889  -3.821  0.00  0.00    -0.500 OA
ATOM      2  C   LIG    1        0.540   3.797  -4.069  0.00  0.00    +0.510 C 
ATOM      3  N   LIG    1        0.012   4.486  -5.099  0.00  0.00    -0.640 N 
ATOM      4  H   LIG    1       -0.917   4.355  -5.345  0.00  0.00    +0.430 HD
ENDROOT
BRANCH   3   5
ATOM      5  C   LIG    1        0.802   5.390  -5.814  0.00  0.00    +0.090 A 
ATOM      6  C   LIG    1        1.798   6.101  -5.172  0.00  0.00    +0.100 A 
ATOM      7  C   LIG    1        2.570   6.994  -5.937  0.00  0.00    -0.060 A 
ATOM      8  C   LIG    1        3.604   7.747  -5.356  0.00  0.00    +0.030 A 
ATOM      9  C   LIG    1        4.327   8.607  -6.126  0.00  0.00    +0.060 A 
ATOM     10  C   LIG    1        4.056   8.750  -7.484  0.00  0.00    +0.010 A 
ATOM     11  C   LIG    1        3.061   8.035  -8.082  0.00  0.00    +0.130 A 
ATOM     12  F   LIG    1        2.814   8.189  -9.402  0.00  0.00    -0.120 F 
ATOM     13  C   LIG    1        2.291   7.137  -7.319  0.00  0.00    +0.080 A 
ATOM     14  N   LIG    1        1.310   6.424  -7.881  0.00  0.00    -0.440 NA
ATOM     15  C   LIG    1        0.586   5.584  -7.184  0.00  0.00    +0.300 A 
ENDBRANCH   3   5
BRANCH   2  16
ATOM     16  C   LIG    1       -0.332   2.921  -3.231  0.00  0.00    +0.500 C 
ATOM     17  N   LIG    1        0.197   2.232  -2.200  0.00  0.00    -0.690 N 
ATOM     18  H   LIG    1        1.144   2.305  -2.003  0.00  0.00    +0.410 HD
ATOM     19  O   LIG    1       -1.516   2.829  -3.478  0.00  0.00    -0.450 OA
BRANCH  17  20
ATOM     20  C   LIG    1       -0.659   1.372  -1.379  0.00  0.00    +0.260 C 
ATOM     21  C   LIG    1        0.175   0.699  -0.275  0.00  0.00    +0.040 C 
ATOM     22  C   LIG    1       -0.419   1.161   1.072  0.00  0.00    +0.040 C 
ATOM     23  C   LIG    1       -1.129   2.496   0.734  0.00  0.00    +0.020 C 
ATOM     24  C   LIG    1       -1.732   2.220  -0.665  0.00  0.00    +0.050 C 
BRANCH  20  25
ATOM     25  C   LIG    1       -1.317   0.324  -2.240  0.00  0.00    +0.030 A 
ATOM     26  N   LIG    1       -2.006   0.569  -3.303  0.00  0.00    -0.420 NA
ATOM     27  C   LIG    1       -2.513  -0.467  -3.941  0.00  0.00    +0.200 A 
ATOM     28  C   LIG    1       -2.236  -1.650  -3.385  0.00  0.00    -0.080 A 
ATOM     29  S   LIG    1       -1.251  -1.360  -1.954  0.00  0.00    +0.130 S 
ENDBRANCH  20  25
ENDBRANCH  17  20
ENDBRANCH   2  16
TORSDOF 4
