REMARK  Name = ZINCpk00000Zd819.0
REMARK                            x       y       z     vdW  Elec       q    Type
REMARK                         _______ _______ _______ _____ _____    ______ ____
ROOT
ATOM      1  C   LIG    1       -0.736   1.583   1.264  0.00  0.00    +0.230 C 
ATOM      2  C   LIG    1       -2.208   1.161   1.197  0.00  0.00    +0.020 C 
ATOM      3  C   LIG    1       -2.869   1.797  -0.028  0.00  0.00    +0.030 C 
ATOM      4  C   LIG    1       -2.168   1.303  -1.297  0.00  0.00    +0.280 C 
ATOM      5  N   LIG    1       -0.729   1.575  -1.178  0.00  0.00    -0.560 N 
ATOM      6  C   LIG    1       -0.013   1.086   0.008  0.00  0.00    +0.300 C 
ENDROOT
BRANCH   5   7
ATOM      7  C   LIG    1       -0.064   2.276  -2.160  0.00  0.00    +0.180 C 
ATOM      8  C   LIG    1        1.255   2.597  -2.179  0.00  0.00    -0.130 C 
ATOM      9  C   LIG    1        1.493   3.341  -3.419  0.00  0.00    +0.570 C 
ATOM     10  N   LIG    1        0.335   3.443  -4.095  0.00  0.00    -0.530 N 
ATOM     11  O   LIG    1        2.563   3.792  -3.778  0.00  0.00    -0.460 OA
ATOM     12  C   LIG    1       -0.647   2.827  -3.413  0.00  0.00    +0.560 C 
ATOM     13  O   LIG    1       -1.807   2.739  -3.758  0.00  0.00    -0.440 OA
BRANCH  10  14
ATOM     14  C   LIG    1        0.177   4.090  -5.328  0.00  0.00    +0.130 A 
ATOM     15  C   LIG    1       -1.069   4.128  -5.938  0.00  0.00    +0.010 A 
ATOM     16  C   LIG    1       -1.223   4.771  -7.151  0.00  0.00    +0.030 A 
ATOM     17  C   LIG    1       -0.135   5.366  -7.763  0.00  0.00    +0.000 A 
ATOM     18  C   LIG    1        1.109   5.325  -7.160  0.00  0.00    +0.030 A 
ATOM     19  C   LIG    1        1.268   4.689  -5.944  0.00  0.00    +0.020 A 
ENDBRANCH  10  14
ENDBRANCH   5   7
BRANCH   1  22
ATOM     20  O   LIG    1       -0.803   2.676   3.727  0.00  0.00    -0.530 OA
ATOM     21  C   LIG    1       -0.201   1.627   3.641  0.00  0.00    +0.550 C 
ATOM     22  N   LIG    1       -0.109   0.999   2.452  0.00  0.00    -0.720 N 
ATOM     23  H   LIG    1        0.373   0.159   2.384  0.00  0.00    +0.400 HD
BRANCH  21  24
ATOM     24  C   LIG    1        0.444   1.026   4.863  0.00  0.00    -0.070 C 
ATOM     25  C   LIG    1       -0.481   0.490   5.958  0.00  0.00    +0.060 C 
ATOM     26  C   LIG    1        0.301   1.786   6.183  0.00  0.00    +0.070 C 
ENDBRANCH  21  24
ENDBRANCH   1  22
TORSDOF 4
