REMARK  Name = ZINCqH0000007flk.0
REMARK                            x       y       z     vdW  Elec       q    Type
REMARK                         _______ _______ _______ _____ _____    ______ ____
ROOT
ATOM      1  C   LIG    1       -0.694   1.142  -0.786  0.00  0.00    +0.080 C 
ATOM      2  N   LIG    1       -1.986   1.137  -0.906  0.00  0.00    -0.200 NA
ATOM      3  N   LIG    1       -2.817   1.264   0.212  0.00  0.00    -0.410 N 
ATOM      4  C   LIG    1       -2.336   1.772   1.364  0.00  0.00    +0.500 C 
ATOM      5  C   LIG    1       -0.893   2.199   1.449  0.00  0.00    +0.100 C 
ATOM      6  O   LIG    1       -3.062   1.885   2.329  0.00  0.00    -0.490 OA
ATOM      7  C   LIG    1       -0.044   1.284   0.565  0.00  0.00    +0.120 C 
ENDROOT
BRANCH   3   8
ATOM      8  C   LIG    1       -4.155   0.863   0.134  0.00  0.00    +0.150 A 
ATOM      9  C   LIG    1       -4.701   0.060   1.127  0.00  0.00    +0.020 A 
ATOM     10  C   LIG    1       -6.022  -0.334   1.047  0.00  0.00    +0.030 A 
ATOM     11  C   LIG    1       -6.802   0.071  -0.021  0.00  0.00    +0.010 A 
ATOM     12  C   LIG    1       -6.262   0.870  -1.012  0.00  0.00    -0.080 A 
ATOM     13  C   LIG    1       -7.116   1.309  -2.174  0.00  0.00    +0.090 C 
ATOM     14  C   LIG    1       -4.943   1.272  -0.935  0.00  0.00    +0.020 A 
ENDBRANCH   3   8
BRANCH   1  17
ATOM     15  N   LIG    1       -0.428   0.880  -3.195  0.00  0.00    -0.640 N 
ATOM     16  H   LIG    1       -1.393   0.806  -3.271  0.00  0.00    +0.430 HD
ATOM     17  C   LIG    1        0.144   1.008  -1.982  0.00  0.00    +0.580 C 
ATOM     18  O   LIG    1        1.357   1.011  -1.879  0.00  0.00    -0.500 OA
BRANCH  15  25
ATOM     19  C   LIG    1       -0.136   0.326  -5.533  0.00  0.00    +0.110 A 
ATOM     20  C   LIG    1        0.656   0.303  -6.669  0.00  0.00    -0.040 A 
ATOM     21  C   LIG    1        1.945   0.803  -6.624  0.00  0.00    +0.060 A 
ATOM     22  C   LIG    1        2.446   1.328  -5.447  0.00  0.00    -0.050 A 
ATOM     23  C   LIG    1        1.660   1.359  -4.309  0.00  0.00    +0.080 A 
ATOM     24 CL   LIG    1        4.065   1.954  -5.398  0.00  0.00    -0.060 Cl
ATOM     25  C   LIG    1        0.368   0.854  -4.346  0.00  0.00    +0.130 A 
BRANCH  19  27
ATOM     26  C   LIG    1       -1.853  -0.691  -6.827  0.00  0.00    +0.250 C 
ATOM     27  O   LIG    1       -1.403  -0.165  -5.576  0.00  0.00    -0.320 OA
ENDBRANCH  19  27
ENDBRANCH  15  25
ENDBRANCH   1  17
TORSDOF 4
