REMARK  Name = ZINCrH000004rSjp.0
REMARK                            x       y       z     vdW  Elec       q    Type
REMARK                         _______ _______ _______ _____ _____    ______ ____
ROOT
ATOM      1  C   LIG    1        4.856   4.227  -0.258  0.00  0.00    +0.260 C 
ATOM      2  C   LIG    1        5.703   3.800   0.940  0.00  0.00    +0.090 C 
ATOM      3  C   LIG    1        6.862   4.741   1.141  0.00  0.00    -0.070 A 
ATOM      4  C   LIG    1        7.942   4.284   1.884  0.00  0.00    +0.010 A 
ATOM      5  C   LIG    1        9.031   5.099   2.114  0.00  0.00    +0.010 A 
ATOM      6  C   LIG    1        9.050   6.383   1.602  0.00  0.00    +0.020 A 
ATOM      7  C   LIG    1        7.979   6.838   0.860  0.00  0.00    +0.020 A 
ATOM      8  C   LIG    1        6.885   6.018   0.624  0.00  0.00    -0.090 A 
ATOM      9  C   LIG    1        5.761   6.569  -0.217  0.00  0.00    +0.350 C 
ATOM     10  N   LIG    1        4.602   5.673  -0.141  0.00  0.00    -0.600 N 
ATOM     11  C   LIG    1        3.354   6.153   0.029  0.00  0.00    +0.600 C 
ATOM     12  O   LIG    1        2.406   5.390   0.054  0.00  0.00    -0.480 OA
ENDROOT
BRANCH  11  13
ATOM     13  C   LIG    1        3.139   7.595   0.183  0.00  0.00    -0.080 A 
ATOM     14  C   LIG    1        1.955   8.201   0.493  0.00  0.00    +0.050 A 
ATOM     15  C   LIG    1        2.208   9.581   0.540  0.00  0.00    -0.060 A 
ATOM     16  C   LIG    1        3.517   9.755   0.254  0.00  0.00    +0.200 A 
ATOM     17  O   LIG    1        4.074   8.557   0.040  0.00  0.00    -0.160 OA
ENDBRANCH  11  13
BRANCH   1  20
ATOM     18  N   LIG    1        3.309   2.550   0.696  0.00  0.00    -0.670 N 
ATOM     19  H   LIG    1        3.946   2.415   1.415  0.00  0.00    +0.410 HD
ATOM     20  C   LIG    1        3.549   3.477  -0.252  0.00  0.00    +0.530 C 
ATOM     21  O   LIG    1        2.713   3.708  -1.100  0.00  0.00    -0.480 OA
BRANCH  18  27
ATOM     22  C   LIG    1       -0.299   0.510  -1.948  0.00  0.00    +0.100 C 
ATOM     23  C   LIG    1        0.371   0.777  -0.625  0.00  0.00    -0.070 A 
ATOM     24  C   LIG    1       -0.170   0.263   0.539  0.00  0.00    -0.020 A 
ATOM     25  C   LIG    1        0.442   0.506   1.756  0.00  0.00    +0.030 A 
ATOM     26  C   LIG    1        1.595   1.264   1.811  0.00  0.00    -0.040 A 
ATOM     27  C   LIG    1        2.140   1.782   0.644  0.00  0.00    +0.160 A 
ATOM     28  C   LIG    1        1.524   1.536  -0.576  0.00  0.00    +0.010 A 
ENDBRANCH  18  27
ENDBRANCH   1  20
TORSDOF 3
