REMARK  Name = ZINCpk000005TlNM.0
REMARK                            x       y       z     vdW  Elec       q    Type
REMARK                         _______ _______ _______ _____ _____    ______ ____
ROOT
ATOM      1  C   LIG    1        5.621   2.946  -2.036  0.00  0.00    +0.270 C 
ATOM      2  C   LIG    1        6.080   1.606  -2.707  0.00  0.00    +0.080 C 
ATOM      3  C   LIG    1        4.692   1.216  -2.317  0.00  0.00    -0.080 C 
ATOM      4  C   LIG    1        4.143  -0.029  -1.674  0.00  0.00    +0.240 C 
ATOM      5  N   LIG    1        3.447   0.452  -0.442  0.00  0.00    -0.420 N 
ATOM      6  C   LIG    1        3.792   1.903  -0.294  0.00  0.00    +0.260 C 
ATOM      7  C   LIG    1        5.130   1.986  -0.999  0.00  0.00    -0.020 C 
ENDROOT
BRANCH   5   8
ATOM      8  C   LIG    1        2.080   0.275  -0.544  0.00  0.00    +0.340 A 
ATOM      9  N   LIG    1        1.168   1.215  -0.489  0.00  0.00    -0.320 NA
ATOM     10  N   LIG    1        0.003   0.686  -0.620  0.00  0.00    -0.270 NA
ATOM     11  C   LIG    1        0.123  -0.601  -0.764  0.00  0.00    +0.190 A 
ATOM     12  O   LIG    1        1.437  -0.895  -0.720  0.00  0.00    -0.220 OA
BRANCH  11  13
ATOM     13  C   LIG    1       -1.003  -1.585  -0.948  0.00  0.00    +0.050 C 
ATOM     14  C   LIG    1       -2.407  -1.019  -1.170  0.00  0.00    +0.080 C 
ATOM     15  C   LIG    1       -2.050  -1.676   0.165  0.00  0.00    +0.060 C 
ENDBRANCH  11  13
ENDBRANCH   5   8
BRANCH   1  17
ATOM     16  C   LIG    1        4.876   4.436  -3.815  0.00  0.00    +0.600 C 
ATOM     17  N   LIG    1        4.565   3.659  -2.758  0.00  0.00    -0.720 N 
ATOM     18  H   LIG    1        3.641   3.572  -2.476  0.00  0.00    +0.400 HD
ATOM     19  O   LIG    1        6.035   4.545  -4.169  0.00  0.00    -0.510 OA
BRANCH  16  24
ATOM     20  C   LIG    1        2.721   6.439  -5.994  0.00  0.00    -0.130 A 
ATOM     21  C   LIG    1        1.807   5.888  -5.117  0.00  0.00    +0.290 A 
ATOM     22  N   LIG    1        2.472   5.109  -4.246  0.00  0.00    -0.530 N 
ATOM     23  H   LIG    1        2.068   4.600  -3.526  0.00  0.00    +0.430 HD
ATOM     24  C   LIG    1        3.817   5.150  -4.538  0.00  0.00    -0.060 A 
ATOM     25  C   LIG    1        3.997   5.964  -5.618  0.00  0.00    +0.110 A 
BRANCH  20  27
ATOM     26  N   LIG    1        2.198   8.028  -7.943  0.00  0.00    -0.420 NA
ATOM     27  C   LIG    1        2.429   7.325  -7.081  0.00  0.00    +0.280 C 
ENDBRANCH  20  27
ENDBRANCH  16  24
ENDBRANCH   1  17
TORSDOF 5
