REMARK  Name = ZINCpk000005ClWU.0
REMARK                            x       y       z     vdW  Elec       q    Type
REMARK                         _______ _______ _______ _____ _____    ______ ____
ROOT
ATOM      1  N   LIG    1        0.002  -0.004   0.002  0.00  0.00    -0.730 N 
ATOM      2  H   LIG    1        0.849  -0.478  -0.009  0.00  0.00    +0.400 HD
ATOM      3  C   LIG    1       -0.016   1.344   0.009  0.00  0.00    +0.600 C 
ATOM      4  O   LIG    1       -1.077   1.937   0.018  0.00  0.00    -0.540 OA
ENDROOT
BRANCH   3   5
ATOM      5  C   LIG    1        1.250   2.098   0.001  0.00  0.00    -0.280 A 
ATOM      6  C   LIG    1        1.386   3.471   0.002  0.00  0.00    +0.340 A 
ATOM      7  N   LIG    1        2.704   3.745  -0.005  0.00  0.00    -0.310 N 
ATOM      8  N   LIG    1        3.407   2.536  -0.018  0.00  0.00    -0.280 NA
ATOM      9  C   LIG    1        2.553   1.550  -0.015  0.00  0.00    +0.300 A 
BRANCH   7  10
ATOM     10  C   LIG    1        3.273   5.023  -0.004  0.00  0.00    +0.200 A 
ATOM     11  C   LIG    1        2.472   6.163   0.004  0.00  0.00    -0.040 A 
ATOM     12  C   LIG    1        3.073   7.405   0.010  0.00  0.00    +0.300 A 
ATOM     13  N   LIG    1        4.387   7.521  -0.002  0.00  0.00    -0.490 NA
ATOM     14  C   LIG    1        5.179   6.466  -0.015  0.00  0.00    +0.300 A 
ATOM     15  C   LIG    1        4.657   5.189  -0.016  0.00  0.00    -0.020 A 
ENDBRANCH   7  10
ENDBRANCH   3   5
BRANCH   1  16
ATOM     16  C   LIG    1       -1.256  -0.754   0.010  0.00  0.00    +0.280 C 
BRANCH  16  18
ATOM     17  C   LIG    1       -2.267  -3.035  -0.118  0.00  0.00    +0.040 C 
ATOM     18  C   LIG    1       -0.957  -2.254  -0.001  0.00  0.00    +0.230 C 
BRANCH  18  19
ATOM     19  N   LIG    1       -0.095  -2.571  -1.142  0.00  0.00    -0.730 N 
ATOM     20  H   LIG    1       -0.097  -1.999  -1.925  0.00  0.00    +0.400 HD
ATOM     21  C   LIG    1        0.700  -3.659  -1.104  0.00  0.00    +0.590 C 
ATOM     22  O   LIG    1        0.703  -4.377  -0.123  0.00  0.00    -0.530 OA
BRANCH  21  23
ATOM     23  C   LIG    1        1.567  -3.978  -2.253  0.00  0.00    -0.240 A 
ATOM     24  C   LIG    1        1.677  -3.284  -3.422  0.00  0.00    +0.230 A 
ATOM     25  O   LIG    1        2.571  -3.903  -4.198  0.00  0.00    -0.170 OA
ATOM     26  C   LIG    1        3.059  -4.995  -3.589  0.00  0.00    +0.170 A 
ATOM     27  C   LIG    1        2.490  -5.115  -2.380  0.00  0.00    -0.010 A 
ENDBRANCH  21  23
ENDBRANCH  18  19
ENDBRANCH  16  18
ENDBRANCH   1  16
TORSDOF 6
