REMARK  Name = ZINCqH0000050j7N.0
REMARK                            x       y       z     vdW  Elec       q    Type
REMARK                         _______ _______ _______ _____ _____    ______ ____
ROOT
ATOM      1  C   LIG    1       -4.897   3.674   0.070  0.00  0.00    +0.470 C 
ATOM      2  O   LIG    1       -5.073   4.870   0.077  0.00  0.00    -0.500 OA
ENDROOT
BRANCH   1   3
ATOM      3  C   LIG    1       -6.079   2.739   0.079  0.00  0.00    +0.130 C 
BRANCH   3   4
ATOM      4  C   LIG    1       -7.374   3.554   0.096  0.00  0.00    +0.060 C 
BRANCH   4   5
ATOM      5  C   LIG    1       -8.556   2.619   0.104  0.00  0.00    +0.400 C 
ATOM      6  O   LIG    1       -8.380   1.420   0.098  0.00  0.00    -0.450 OA
BRANCH   5  11
ATOM      7  C   LIG    1      -13.899   4.741   0.169  0.00  0.00    +0.100 C 
ATOM      8  C   LIG    1      -12.498   4.185   0.152  0.00  0.00    -0.050 A 
ATOM      9  C   LIG    1      -12.301   2.815   0.144  0.00  0.00    -0.010 A 
ATOM     10  C   LIG    1      -11.023   2.298   0.129  0.00  0.00    +0.080 A 
ATOM     11  C   LIG    1       -9.924   3.163   0.121  0.00  0.00    -0.180 A 
ATOM     12  C   LIG    1      -10.131   4.545   0.135  0.00  0.00    +0.060 A 
ATOM     13  C   LIG    1      -11.415   5.047   0.144  0.00  0.00    -0.010 A 
ENDBRANCH   5  11
ENDBRANCH   4   5
ENDBRANCH   3   4
ENDBRANCH   1   3
BRANCH   1  14
ATOM     14  O   LIG    1       -3.650   3.179   0.055  0.00  0.00    -0.360 OA
BRANCH  14  15
ATOM     15  C   LIG    1       -2.560   4.138   0.048  0.00  0.00    +0.300 C 
BRANCH  15  16
ATOM     16  C   LIG    1       -1.244   3.403   0.031  0.00  0.00    -0.090 A 
ATOM     17  C   LIG    1       -1.225   2.022   0.019  0.00  0.00    +0.060 A 
ATOM     18  C   LIG    1       -0.016   1.347   0.009  0.00  0.00    +0.080 A 
ATOM     19  C   LIG    1        1.173   2.055   0.002  0.00  0.00    +0.040 A 
ATOM     20  C   LIG    1        1.157   3.437   0.008  0.00  0.00    -0.170 A 
ATOM     21  C   LIG    1        2.458   4.198   0.003  0.00  0.00    +0.300 C 
ATOM     22  O   LIG    1        2.209   5.559  -0.361  0.00  0.00    -0.380 OA
ATOM     23  C   LIG    1        1.130   6.147   0.375  0.00  0.00    +0.440 C 
ATOM     24  O   LIG    1       -0.082   5.475   0.023  0.00  0.00    -0.330 OA
ATOM     25  F   LIG    1        0.002  -0.004   0.002  0.00  0.00    -0.130 F 
ATOM     26  C   LIG    1       -0.052   4.115   0.021  0.00  0.00    +0.130 A 
ENDBRANCH  15  16
ENDBRANCH  14  15
ENDBRANCH   1  14
TORSDOF 7
