REMARK  Name = ZINCrH000004ucB5.0
REMARK                            x       y       z     vdW  Elec       q    Type
REMARK                         _______ _______ _______ _____ _____    ______ ____
ROOT
ATOM      1  O   LIG    1       -2.125   1.310  -0.133  0.00  0.00    -0.570 OA
ATOM      2  C   LIG    1       -1.101   1.962  -0.204  0.00  0.00    +0.700 C 
ATOM      3  N   LIG    1        0.094   1.339  -0.232  0.00  0.00    -0.690 N 
ATOM      4  H   LIG    1        0.913   1.859  -0.226  0.00  0.00    +0.410 HD
ATOM      5  N   LIG    1       -1.160   3.307  -0.256  0.00  0.00    -0.740 N 
ATOM      6  H   LIG    1       -0.343   3.827  -0.314  0.00  0.00    +0.400 HD
ENDROOT
BRANCH   3   7
ATOM      7  C   LIG    1        0.153  -0.061  -0.276  0.00  0.00    +0.130 A 
ATOM      8  C   LIG    1       -0.790  -0.819   0.403  0.00  0.00    +0.070 A 
ATOM      9  C   LIG    1       -0.730  -2.196   0.354  0.00  0.00    +0.000 A 
ATOM     10  C   LIG    1        0.280  -2.830  -0.364  0.00  0.00    +0.120 A 
ATOM     11  O   LIG    1        0.309  -4.189  -0.377  0.00  0.00    -0.320 OA
ATOM     12  C   LIG    1        1.090  -4.830  -1.387  0.00  0.00    +0.230 C 
ATOM     13  C   LIG    1        2.482  -4.184  -1.404  0.00  0.00    +0.010 C 
ATOM     14  C   LIG    1        2.328  -2.723  -1.833  0.00  0.00    +0.080 C 
ATOM     15  C   LIG    1        1.222  -2.074  -1.039  0.00  0.00    -0.140 A 
ATOM     16  C   LIG    1        1.159  -0.692  -0.994  0.00  0.00    +0.020 A 
ENDBRANCH   3   7
BRANCH   5  17
ATOM     17  C   LIG    1       -2.459   3.985  -0.226  0.00  0.00    +0.280 C 
BRANCH  17  18
ATOM     18  C   LIG    1       -2.246   5.498  -0.297  0.00  0.00    +0.010 C 
BRANCH  18  19
ATOM     19  C   LIG    1       -3.603   6.206  -0.265  0.00  0.00    -0.020 C 
ATOM     20  C   LIG    1       -4.394   5.852  -1.528  0.00  0.00    +0.040 C 
ATOM     21  C   LIG    1       -5.723   6.611  -1.521  0.00  0.00    +0.180 C 
ATOM     22  N   LIG    1       -5.464   8.056  -1.471  0.00  0.00    -0.530 NA
ATOM     23  C   LIG    1       -4.747   8.425  -0.244  0.00  0.00    +0.170 C 
ATOM     24  C   LIG    1       -3.388   7.721  -0.213  0.00  0.00    +0.040 C 
BRANCH  22  25
ATOM     25  C   LIG    1       -6.712   8.819  -1.602  0.00  0.00    +0.210 C 
BRANCH  25  26
ATOM     26  C   LIG    1       -6.394  10.242  -2.067  0.00  0.00    +0.460 C 
ATOM     27  F   LIG    1       -5.678  10.910  -1.067  0.00  0.00    -0.180 F 
ATOM     28  F   LIG    1       -7.586  10.926  -2.323  0.00  0.00    -0.180 F 
ATOM     29  F   LIG    1       -5.625  10.189  -3.235  0.00  0.00    -0.170 F 
ENDBRANCH  25  26
ENDBRANCH  22  25
ENDBRANCH  18  19
ENDBRANCH  17  18
ENDBRANCH   5  17
TORSDOF 6
