REMARK  Name = ZINCtV00000tRSgg.0
REMARK                            x       y       z     vdW  Elec       q    Type
REMARK                         _______ _______ _______ _____ _____    ______ ____
ROOT
ATOM      1  C   LIG    1       -2.938   1.763   2.280  0.00  0.00    +0.290 C 
ATOM      2  C   LIG    1       -2.200   1.293   1.027  0.00  0.00    +0.030 C 
ATOM      3  C   LIG    1       -0.746   1.778   1.097  0.00  0.00    +0.240 C 
ATOM      4  N   LIG    1       -0.114   1.140   2.260  0.00  0.00    -0.610 N 
ATOM      5  C   LIG    1       -0.816   1.094   3.471  0.00  0.00    +0.200 A 
ATOM      6  C   LIG    1       -0.136   0.752   4.635  0.00  0.00    -0.130 A 
ATOM      7  C   LIG    1       -0.810   0.697   5.838  0.00  0.00    +0.040 A 
ATOM      8  C   LIG    1       -2.162   0.983   5.885  0.00  0.00    -0.030 A 
ATOM      9  C   LIG    1       -2.840   1.324   4.730  0.00  0.00    +0.060 A 
ATOM     10  C   LIG    1        1.337   0.440   4.582  0.00  0.00    +0.090 C 
ATOM     11  C   LIG    1        1.121   0.608   2.162  0.00  0.00    +0.600 C 
ATOM     12  O   LIG    1        1.277  -0.591   2.284  0.00  0.00    -0.460 OA
ATOM     13  C   LIG    1       -0.005   1.379  -0.180  0.00  0.00    +0.060 C 
ATOM     14  C   LIG    1       -2.171   1.383   3.519  0.00  0.00    -0.150 A 
ENDROOT
BRANCH  11  15
ATOM     15  C   LIG    1        2.284   1.484   1.907  0.00  0.00    -0.120 A 
ATOM     16  C   LIG    1        2.127   2.870   1.885  0.00  0.00    +0.050 A 
ATOM     17  C   LIG    1        3.217   3.683   1.652  0.00  0.00    +0.040 A 
ATOM     18  C   LIG    1        4.463   3.127   1.429  0.00  0.00    +0.020 A 
ATOM     19  C   LIG    1        4.627   1.750   1.443  0.00  0.00    +0.100 A 
ATOM     20  F   LIG    1        5.848   1.214   1.225  0.00  0.00    -0.130 F 
ATOM     21  C   LIG    1        3.544   0.926   1.682  0.00  0.00    +0.050 A 
ENDBRANCH  11  15
BRANCH   1  22
ATOM     22  N   LIG    1       -4.264   1.141   2.322  0.00  0.00    -0.740 N 
ATOM     23  H   LIG    1       -4.417   0.293   1.878  0.00  0.00    +0.400 HD
BRANCH  22  30
ATOM     24  C   LIG    1       -6.810  -0.130   2.344  0.00  0.00    +0.090 C 
ATOM     25  C   LIG    1       -6.569   1.185   3.039  0.00  0.00    -0.160 A 
ATOM     26  C   LIG    1       -7.598   1.808   3.717  0.00  0.00    +0.050 A 
ATOM     27  C   LIG    1       -7.379   3.018   4.351  0.00  0.00    -0.050 A 
ATOM     28  C   LIG    1       -6.128   3.605   4.312  0.00  0.00    +0.040 A 
ATOM     29  C   LIG    1       -5.093   2.985   3.641  0.00  0.00    -0.080 A 
ATOM     30  C   LIG    1       -5.309   1.770   3.003  0.00  0.00    +0.220 A 
ENDBRANCH  22  30
ENDBRANCH   1  22
TORSDOF 3
