REMARK  Name = ZINCpe000000TtUs.0
REMARK                            x       y       z     vdW  Elec       q    Type
REMARK                         _______ _______ _______ _____ _____    ______ ____
ROOT
ATOM      1  N   LIG    1       -4.021   0.046   1.688  0.00  0.00    -0.720 N 
ATOM      2  H   LIG    1       -4.565  -0.274   0.952  0.00  0.00    +0.410 HD
ATOM      3  C   LIG    1       -2.886   0.728   1.440  0.00  0.00    +0.500 C 
ATOM      4  O   LIG    1       -2.205   1.128   2.361  0.00  0.00    -0.520 OA
ENDROOT
BRANCH   1   5
ATOM      5  C   LIG    1       -4.434  -0.213   3.070  0.00  0.00    +0.320 C 
BRANCH   5   9
ATOM      6  C   LIG    1       -8.102  -2.408   3.076  0.00  0.00    +0.070 A 
ATOM      7  C   LIG    1       -8.121  -1.020   3.084  0.00  0.00    +0.010 A 
ATOM      8  C   LIG    1       -6.933  -0.314   3.087  0.00  0.00    +0.030 A 
ATOM      9  C   LIG    1       -5.726  -0.987   3.072  0.00  0.00    -0.090 A 
ATOM     10  C   LIG    1       -5.702  -2.370   3.064  0.00  0.00    +0.010 A 
ATOM     11  C   LIG    1       -6.886  -3.084   3.066  0.00  0.00    +0.120 A 
ATOM     12  F   LIG    1       -6.862  -4.434   3.059  0.00  0.00    -0.120 F 
BRANCH   6  13
ATOM     13  N   LIG    1       -9.303  -3.126   3.078  0.00  0.00    -0.500 N 
BRANCH  13  15
ATOM     14  C   LIG    1      -11.275  -3.789   4.369  0.00  0.00    +0.040 C 
ATOM     15  C   LIG    1      -10.100  -2.814   4.272  0.00  0.00    +0.180 C 
ENDBRANCH  13  15
BRANCH  13  16
ATOM     16  C   LIG    1      -10.070  -2.872   1.851  0.00  0.00    +0.180 C 
ATOM     17  C   LIG    1       -9.359  -3.522   0.662  0.00  0.00    +0.030 C 
ENDBRANCH  13  16
ENDBRANCH   6  13
ENDBRANCH   5   9
ENDBRANCH   1   5
BRANCH   3  18
ATOM     18  C   LIG    1       -2.462   0.994   0.019  0.00  0.00    +0.360 C 
BRANCH  18  19
ATOM     19  N   LIG    1       -1.205   1.747   0.017  0.00  0.00    -0.520 N 
ATOM     20  C   LIG    1       -0.013   1.076   0.008  0.00  0.00    +0.360 A 
ATOM     21  C   LIG    1        1.145   1.770   0.001  0.00  0.00    -0.120 A 
ATOM     22  C   LIG    1        1.101   3.185   0.008  0.00  0.00    +0.550 A 
ATOM     23  N   LIG    1       -0.095   3.809   0.022  0.00  0.00    -0.660 N 
ATOM     24  H   LIG    1       -0.134   4.778   0.028  0.00  0.00    +0.430 HD
ATOM     25  O   LIG    1        2.132   3.833   0.002  0.00  0.00    -0.510 OA
ATOM     26  C   LIG    1       -1.234   3.092   0.029  0.00  0.00    +0.700 A 
ATOM     27  O   LIG    1       -2.304   3.668   0.042  0.00  0.00    -0.540 OA
ENDBRANCH  18  19
ENDBRANCH   3  18
TORSDOF 7
