REMARK  Name = ZINCtV00000L6jqO.0
REMARK                            x       y       z     vdW  Elec       q    Type
REMARK                         _______ _______ _______ _____ _____    ______ ____
ROOT
ATOM      1  C   LIG    1        1.294   1.351   2.606  0.00  0.00    +0.540 C 
ATOM      2  N   LIG    1       -0.021   1.095   2.455  0.00  0.00    -0.600 N 
ATOM      3  O   LIG    1        1.901   0.873   3.540  0.00  0.00    -0.520 OA
ENDROOT
BRANCH   2   4
ATOM      4  C   LIG    1       -0.740   0.328   3.474  0.00  0.00    +0.250 C 
ATOM      5  C   LIG    1       -0.658   1.059   4.816  0.00  0.00    -0.000 C 
ATOM      6  C   LIG    1       -1.409   0.258   5.881  0.00  0.00    +0.010 C 
ATOM      7  C   LIG    1       -0.775  -1.129   6.016  0.00  0.00    +0.000 C 
ATOM      8  C   LIG    1       -0.858  -1.860   4.675  0.00  0.00    +0.010 C 
ATOM      9  C   LIG    1       -0.107  -1.058   3.610  0.00  0.00    +0.010 C 
ENDBRANCH   2   4
BRANCH   2  10
ATOM     10  C   LIG    1       -0.731   1.585   1.270  0.00  0.00    +0.230 C 
ATOM     11  C   LIG    1       -1.937   2.419   1.707  0.00  0.00    +0.010 C 
ATOM     12  C   LIG    1       -2.678   2.930   0.470  0.00  0.00    +0.020 C 
ATOM     13  C   LIG    1       -3.156   1.741  -0.366  0.00  0.00    +0.010 C 
ATOM     14  C   LIG    1       -1.950   0.907  -0.802  0.00  0.00    +0.020 C 
ATOM     15  C   LIG    1       -1.208   0.396   0.434  0.00  0.00    +0.010 C 
ENDBRANCH   2  10
BRANCH   1  16
ATOM     16  C   LIG    1        2.009   2.233   1.615  0.00  0.00    +0.110 C 
BRANCH  16  17
ATOM     17  S   LIG    1        3.776   2.267   2.003  0.00  0.00    +0.070 S 
BRANCH  17  26
ATOM     18  N   LIG    1        5.650   3.716   0.544  0.00  0.00    -0.470 N 
ATOM     19  C   LIG    1        5.682   4.555  -0.558  0.00  0.00    +0.060 A 
ATOM     20  C   LIG    1        6.693   5.238  -1.216  0.00  0.00    +0.010 A 
ATOM     21  C   LIG    1        6.393   6.014  -2.318  0.00  0.00    +0.030 A 
ATOM     22  C   LIG    1        5.087   6.115  -2.772  0.00  0.00    +0.000 A 
ATOM     23  C   LIG    1        4.070   5.443  -2.130  0.00  0.00    +0.060 A 
ATOM     24  C   LIG    1        4.357   4.653  -1.014  0.00  0.00    +0.060 A 
ATOM     25  N   LIG    1        3.594   3.885  -0.194  0.00  0.00    -0.500 NA
ATOM     26  C   LIG    1        4.350   3.337   0.727  0.00  0.00    +0.250 A 
BRANCH  18  27
ATOM     27  C   LIG    1        6.796   3.312   1.363  0.00  0.00    +0.300 C 
BRANCH  27  29
ATOM     28  C   LIG    1        8.603   1.610   1.643  0.00  0.00    +0.030 C 
ATOM     29  C   LIG    1        7.407   2.032   0.788  0.00  0.00    +0.000 C 
ENDBRANCH  27  29
ENDBRANCH  18  27
ENDBRANCH  17  26
ENDBRANCH  16  17
ENDBRANCH   1  16
TORSDOF 7
