REMARK  Name = ZINCrH00000tj13J.0
REMARK                            x       y       z     vdW  Elec       q    Type
REMARK                         _______ _______ _______ _____ _____    ______ ____
ROOT
ATOM      1  C   LIG    1       -3.735   1.736   0.035  0.00  0.00    +0.130 A 
ATOM      2  N   LIG    1       -4.604   0.759   0.028  0.00  0.00    -0.260 NA
ATOM      3  O   LIG    1       -3.884  -0.461   0.018  0.00  0.00    +0.030 OA
ATOM      4  N   LIG    1       -2.503  -0.145   0.014  0.00  0.00    -0.260 NA
ATOM      5  C   LIG    1       -2.388   1.153   0.020  0.00  0.00    +0.300 A 
ENDROOT
BRANCH   1   9
ATOM      6  C   LIG    1       -4.654   5.888   0.082  0.00  0.00    +0.160 A 
ATOM      7  C   LIG    1       -5.472   5.005  -0.611  0.00  0.00    -0.010 A 
ATOM      8  C   LIG    1       -5.176   3.658  -0.628  0.00  0.00    +0.110 A 
ATOM      9  C   LIG    1       -4.055   3.183   0.051  0.00  0.00    -0.090 A 
ATOM     10  C   LIG    1       -3.239   4.072   0.751  0.00  0.00    +0.080 A 
ATOM     11  C   LIG    1       -3.537   5.418   0.759  0.00  0.00    -0.070 A 
BRANCH   6  12
ATOM     12  O   LIG    1       -4.948   7.214   0.097  0.00  0.00    -0.310 OA
BRANCH  12  13
ATOM     13  C   LIG    1       -4.064   8.066   0.829  0.00  0.00    +0.190 C 
BRANCH  13  15
ATOM     14  C   LIG    1       -3.607  10.424   1.516  0.00  0.00    +0.040 C 
ATOM     15  C   LIG    1       -4.553   9.512   0.732  0.00  0.00    +0.030 C 
ENDBRANCH  13  15
ENDBRANCH  12  13
ENDBRANCH   6  12
ENDBRANCH   1   9
BRANCH   5  16
ATOM     16  N   LIG    1       -1.191   1.867   0.018  0.00  0.00    -0.640 N 
ATOM     17  H   LIG    1       -1.204   2.836   0.023  0.00  0.00    +0.430 HD
ATOM     18  C   LIG    1       -0.014   1.209   0.009  0.00  0.00    +0.500 C 
ATOM     19  O   LIG    1        0.002  -0.004   0.002  0.00  0.00    -0.460 OA
BRANCH  18  20
ATOM     20  C   LIG    1        1.280   1.980   0.001  0.00  0.00    +0.130 C 
BRANCH  20  21
ATOM     21  C   LIG    1        2.439   1.016  -0.016  0.00  0.00    -0.120 A 
ATOM     22  C   LIG    1        2.985   0.573   1.175  0.00  0.00    +0.060 A 
ATOM     23  C   LIG    1        4.043  -0.315   1.163  0.00  0.00    -0.080 A 
ATOM     24  C   LIG    1        4.566  -0.752  -0.046  0.00  0.00    +0.130 A 
ATOM     25  C   LIG    1        4.020  -0.302  -1.239  0.00  0.00    -0.020 A 
ATOM     26  C   LIG    1        2.958   0.581  -1.221  0.00  0.00    +0.070 A 
BRANCH  24  27
ATOM     27  O   LIG    1        5.611  -1.621  -0.060  0.00  0.00    -0.320 OA
ATOM     28  C   LIG    1        6.122  -2.042   1.206  0.00  0.00    +0.250 C 
ENDBRANCH  24  27
ENDBRANCH  20  21
ENDBRANCH  18  20
ENDBRANCH   5  16
TORSDOF 8
