REMARK  Name = ZINCrH000004pC7c.0
REMARK                            x       y       z     vdW  Elec       q    Type
REMARK                         _______ _______ _______ _____ _____    ______ ____
ROOT
ATOM      1  C   LIG    1        2.028   1.134  -1.242  0.00  0.00    +0.500 C 
ATOM      2  N   LIG    1        1.348   0.852  -2.371  0.00  0.00    -0.600 N 
ATOM      3  C   LIG    1       -0.106   1.060  -2.449  0.00  0.00    +0.310 C 
ATOM      4  C   LIG    1       -0.401   2.145  -3.490  0.00  0.00    +0.100 C 
ATOM      5  C   LIG    1        0.416   1.872  -4.731  0.00  0.00    +0.090 A 
ATOM      6  C   LIG    1        1.502   1.070  -4.761  0.00  0.00    -0.190 A 
ATOM      7  C   LIG    1        2.001   1.073  -6.119  0.00  0.00    -0.070 A 
ATOM      8  C   LIG    1        3.084   0.436  -6.734  0.00  0.00    +0.040 A 
ATOM      9  C   LIG    1        3.263   0.676  -8.086  0.00  0.00    +0.070 A 
ATOM     10  C   LIG    1        2.414   1.507  -8.802  0.00  0.00    +0.010 A 
ATOM     11  C   LIG    1        1.337   2.147  -8.212  0.00  0.00    +0.040 A 
ATOM     12  F   LIG    1        4.294   0.084  -8.727  0.00  0.00    -0.140 F 
ATOM     13  C   LIG    1        1.133   1.923  -6.852  0.00  0.00    +0.090 A 
ATOM     14  N   LIG    1        0.188   2.386  -5.981  0.00  0.00    -0.580 N 
ATOM     15  H   LIG    1       -0.536   2.988  -6.213  0.00  0.00    +0.420 HD
ATOM     16  C   LIG    1        2.042   0.334  -3.563  0.00  0.00    +0.370 C 
ATOM     17  O   LIG    1        3.239   1.058  -1.228  0.00  0.00    -0.520 OA
ENDROOT
BRANCH   1  18
ATOM     18  C   LIG    1        1.285   1.543   0.004  0.00  0.00    +0.130 C 
ATOM     19  C   LIG    1        0.829   2.998  -0.129  0.00  0.00    +0.090 C 
BRANCH  18  21
ATOM     20  C   LIG    1        2.663  -0.048   1.349  0.00  0.00    +0.030 C 
ATOM     21  C   LIG    1        2.208   1.406   1.216  0.00  0.00    +0.040 C 
BRANCH  21  22
ATOM     22  C   LIG    1        1.464   1.815   2.462  0.00  0.00    -0.080 A 
ATOM     23  C   LIG    1        0.315   1.143   2.833  0.00  0.00    +0.030 A 
ATOM     24  C   LIG    1       -0.364   1.515   3.978  0.00  0.00    +0.000 A 
ATOM     25  C   LIG    1        0.100   2.566   4.747  0.00  0.00    +0.000 A 
ATOM     26  C   LIG    1        1.247   3.242   4.372  0.00  0.00    +0.000 A 
ATOM     27  C   LIG    1        1.928   2.867   3.230  0.00  0.00    +0.000 A 
ENDBRANCH  21  22
ENDBRANCH  18  21
BRANCH  18  28
ATOM     28  O   LIG    1        0.144   0.700   0.176  0.00  0.00    -0.540 OA
ATOM     29  H   LIG    1        0.358  -0.238   0.267  0.00  0.00    +0.380 HD
ENDBRANCH  18  28
ENDBRANCH   1  18
TORSDOF 4
