REMARK  Name = ZINCvU0000000Ii7.0
REMARK                            x       y       z     vdW  Elec       q    Type
REMARK                         _______ _______ _______ _____ _____    ______ ____
ROOT
ATOM      1  O   LIG    1        1.094   2.273   0.353  0.00  0.00    -0.560 OA
ATOM      2  C   LIG    1        1.209   1.132  -0.049  0.00  0.00    +0.700 C 
ATOM      3  N   LIG    1        2.323   0.427   0.232  0.00  0.00    -0.610 N 
ATOM      4  C   LIG    1        2.499  -0.898  -0.394  0.00  0.00    +0.250 C 
ATOM      5  C   LIG    1        3.051  -1.940   0.591  0.00  0.00    +0.020 C 
ATOM      6  C   LIG    1        2.390  -1.776   1.937  0.00  0.00    +0.000 C 
ATOM      7  C   LIG    1        3.229  -0.839   2.801  0.00  0.00    +0.000 C 
ATOM      8  C   LIG    1        2.950   0.590   2.592  0.00  0.00    +0.020 C 
ATOM      9  C   LIG    1        3.294   0.999   1.139  0.00  0.00    +0.250 C 
ATOM     10  N   LIG    1        0.222   0.571  -0.776  0.00  0.00    -0.690 N 
ATOM     11  H   LIG    1        0.321  -0.335  -1.109  0.00  0.00    +0.400 HD
ENDROOT
BRANCH   9  12
ATOM     12  C   LIG    1        3.268   2.524   1.018  0.00  0.00    +0.020 C 
ATOM     13  C   LIG    1        3.398   2.923  -0.454  0.00  0.00    +0.040 C 
ATOM     14  C   LIG    1        3.433   4.449  -0.563  0.00  0.00    +0.200 C 
ATOM     15  N   LIG    1        4.570   4.970   0.207  0.00  0.00    -0.470 N 
ATOM     16  C   LIG    1        4.443   4.639   1.632  0.00  0.00    +0.220 C 
ATOM     17  C   LIG    1        4.438   3.119   1.806  0.00  0.00    +0.030 C 
BRANCH  15  18
ATOM     18  C   LIG    1        4.709   6.336   0.025  0.00  0.00    +0.420 A 
ATOM     19  C   LIG    1        4.846   6.874  -1.265  0.00  0.00    -0.280 A 
ATOM     20  S   LIG    1        4.885   6.114  -2.850  0.00  0.00    +0.160 S 
ATOM     21  C   LIG    1        5.082   7.670  -3.641  0.00  0.00    +0.020 A 
ATOM     22  C   LIG    1        5.112   8.648  -2.750  0.00  0.00    +0.030 A 
ATOM     23  C   LIG    1        4.984   8.257  -1.408  0.00  0.00    +0.190 A 
ATOM     24  N   LIG    1        4.976   9.011  -0.285  0.00  0.00    -0.520 NA
ATOM     25  C   LIG    1        4.845   8.463   0.897  0.00  0.00    +0.530 A 
ATOM     26  N   LIG    1        4.709   7.160   1.066  0.00  0.00    -0.550 NA
ENDBRANCH  15  18
ENDBRANCH   9  12
BRANCH  10  27
ATOM     27  C   LIG    1       -0.942   1.297  -1.054  0.00  0.00    +0.160 A 
ATOM     28  C   LIG    1       -0.887   2.679  -1.177  0.00  0.00    +0.020 A 
ATOM     29  C   LIG    1       -2.036   3.392  -1.456  0.00  0.00    +0.020 A 
ATOM     30  C   LIG    1       -3.242   2.732  -1.604  0.00  0.00    -0.020 A 
ATOM     31  C   LIG    1       -3.301   1.356  -1.477  0.00  0.00    +0.020 A 
ATOM     32  C   LIG    1       -2.154   0.637  -1.202  0.00  0.00    -0.030 A 
ENDBRANCH  10  27
TORSDOF 3
