REMARK  Name = ZINCpe000000YBmT.0
REMARK                            x       y       z     vdW  Elec       q    Type
REMARK                         _______ _______ _______ _____ _____    ______ ____
ROOT
ATOM      1  C   LIG    1        0.015   1.024  -0.024  0.00  0.00    +0.210 C 
ATOM      2  C   LIG    1        1.445   1.600  -0.029  0.00  0.00    +0.140 C 
ATOM      3  C   LIG    1        1.504   2.419  -1.298  0.00  0.00    +0.030 C 
ATOM      4  N   LIG    1        0.366   2.348  -1.911  0.00  0.00    -0.170 NA
ATOM      5  N   LIG    1       -0.580   1.560  -1.258  0.00  0.00    -0.440 N 
ENDROOT
BRANCH   3   6
ATOM      6  C   LIG    1        2.667   3.176  -1.762  0.00  0.00    +0.600 C 
ATOM      7  N   LIG    1        2.649   3.765  -2.974  0.00  0.00    -0.570 N 
ATOM      8  C   LIG    1        1.429   3.774  -3.801  0.00  0.00    +0.260 C 
ATOM      9  C   LIG    1        1.802   3.340  -5.218  0.00  0.00    +0.210 C 
ATOM     10  O   LIG    1        2.865   4.160  -5.709  0.00  0.00    -0.380 OA
ATOM     11  C   LIG    1        4.090   4.028  -4.979  0.00  0.00    +0.240 C 
ATOM     12  C   LIG    1        3.843   4.417  -3.522  0.00  0.00    +0.110 C 
ATOM     13  C   LIG    1        5.080   4.290  -2.628  0.00  0.00    +0.050 C 
ATOM     14  C   LIG    1        4.627   5.598  -1.956  0.00  0.00    +0.020 C 
ATOM     15  C   LIG    1        3.892   5.927  -3.268  0.00  0.00    +0.020 C 
ATOM     16  O   LIG    1        3.652   3.274  -1.053  0.00  0.00    -0.510 OA
ENDBRANCH   3   6
BRANCH   5  17
ATOM     17  C   LIG    1       -1.880   1.317  -1.704  0.00  0.00    +0.220 A 
ATOM     18  C   LIG    1       -2.730   0.505  -0.964  0.00  0.00    -0.050 A 
ATOM     19  C   LIG    1       -4.018   0.272  -1.404  0.00  0.00    +0.050 A 
ATOM     20  C   LIG    1       -4.458   0.837  -2.587  0.00  0.00    -0.030 A 
ATOM     21  C   LIG    1       -3.613   1.642  -3.330  0.00  0.00    +0.050 A 
ATOM     22  C   LIG    1       -2.326   1.884  -2.892  0.00  0.00    -0.020 A 
ENDBRANCH   5  17
BRANCH   1  26
ATOM     23  N   LIG    1       -0.585   0.884   2.372  0.00  0.00    -0.850 N 
ATOM     24  H   LIG    1       -1.074   1.193   3.150  0.00  0.00    +0.410 HD
ATOM     25  H   LIG    1        0.020   0.129   2.447  0.00  0.00    +0.400 HD
ATOM     26  C   LIG    1       -0.745   1.504   1.186  0.00  0.00    +0.510 C 
ATOM     27  O   LIG    1       -1.501   2.448   1.092  0.00  0.00    -0.510 OA
ENDBRANCH   1  26
TORSDOF 3
