REMARK  Name = ZINCtj00000nxn3k.0
REMARK                            x       y       z     vdW  Elec       q    Type
REMARK                         _______ _______ _______ _____ _____    ______ ____
ROOT
ATOM      1  N   LIG    1       -2.226   3.927   2.213  0.00  0.00    -0.730 N 
ATOM      2  H   LIG    1       -3.148   3.853   1.923  0.00  0.00    +0.410 HD
ATOM      3  C   LIG    1       -1.940   4.449   3.423  0.00  0.00    +0.570 C 
ATOM      4  O   LIG    1       -0.783   4.542   3.786  0.00  0.00    -0.510 OA
ENDROOT
BRANCH   1   8
ATOM      5  N   LIG    1       -0.207   1.579  -0.646  0.00  0.00    -0.380 N 
ATOM      6  C   LIG    1        0.309   1.535   0.728  0.00  0.00    +0.260 C 
ATOM      7  C   LIG    1       -0.766   2.031   1.696  0.00  0.00    +0.050 C 
ATOM      8  C   LIG    1       -1.143   3.471   1.338  0.00  0.00    +0.250 C 
ATOM      9  C   LIG    1       -1.610   3.518  -0.120  0.00  0.00    +0.060 C 
ATOM     10  C   LIG    1       -0.504   2.966  -1.022  0.00  0.00    +0.270 C 
ATOM     11  H   LIG    1       -1.051   1.028  -0.705  0.00  0.00    +0.430 HD
BRANCH   5  12
ATOM     12  C   LIG    1        0.799   1.028  -1.564  0.00  0.00    +0.240 C 
BRANCH  12  13
ATOM     13  C   LIG    1        0.994  -0.461  -1.274  0.00  0.00    +0.210 C 
BRANCH  13  14
ATOM     14  O   LIG    1       -0.253  -1.143  -1.429  0.00  0.00    -0.540 OA
ATOM     15  H   LIG    1       -0.633  -1.072  -2.315  0.00  0.00    +0.390 HD
ENDBRANCH  13  14
BRANCH  13  16
ATOM     16  C   LIG    1        2.017  -1.042  -2.252  0.00  0.00    +0.160 C 
BRANCH  16  18
ATOM     17  C   LIG    1        3.235  -3.042  -2.764  0.00  0.00    +0.230 C 
ATOM     18  O   LIG    1        2.286  -2.402  -1.908  0.00  0.00    -0.380 OA
ENDBRANCH  16  18
ENDBRANCH  13  16
ENDBRANCH  12  13
ENDBRANCH   5  12
ENDBRANCH   1   8
BRANCH   3  19
ATOM     19  C   LIG    1       -3.030   4.908   4.304  0.00  0.00    -0.150 A 
ATOM     20  C   LIG    1       -4.359   4.802   3.888  0.00  0.00    +0.110 A 
ATOM     21  C   LIG    1       -5.374   5.231   4.713  0.00  0.00    -0.010 A 
ATOM     22  C   LIG    1       -5.077   5.770   5.961  0.00  0.00    +0.190 A 
ATOM     23  C   LIG    1       -3.753   5.877   6.379  0.00  0.00    -0.030 A 
ATOM     24  C   LIG    1       -2.735   5.445   5.561  0.00  0.00    +0.180 A 
BRANCH  22  25
ATOM     25  N   LIG    1       -6.104   6.203   6.792  0.00  0.00    -0.480 N 
ATOM     26  C   LIG    1       -7.008   7.139   6.077  0.00  0.00    +0.180 C 
ATOM     27  C   LIG    1       -8.308   7.090   6.919  0.00  0.00    +0.050 C 
ATOM     28  C   LIG    1       -8.393   5.603   7.336  0.00  0.00    +0.020 C 
ATOM     29  C   LIG    1       -6.953   5.070   7.220  0.00  0.00    +0.180 C 
ENDBRANCH  22  25
BRANCH  23  30
ATOM     30  N   LIG    1       -3.442   6.451   7.708  0.00  0.00    +0.020 N 
ATOM     31  O   LIG    1       -4.331   6.928   8.389  0.00  0.00    -0.090 OA
ATOM     32  O   LIG    1       -2.295   6.445   8.120  0.00  0.00    -0.180 OA
ENDBRANCH  23  30
ENDBRANCH   3  19
TORSDOF 9
