REMARK  Name = ZINCvU0000000Iak.0
REMARK                            x       y       z     vdW  Elec       q    Type
REMARK                         _______ _______ _______ _____ _____    ______ ____
ROOT
ATOM      1  C   LIG    1        1.238   1.898  -0.626  0.00  0.00    +0.300 C 
ATOM      2  N   LIG    1       -0.057   1.343  -0.223  0.00  0.00    -0.600 N 
ATOM      3  C   LIG    1       -0.161   0.036   0.090  0.00  0.00    +0.530 C 
ATOM      4  O   LIG    1       -1.215  -0.408   0.493  0.00  0.00    -0.530 OA
ENDROOT
BRANCH   3   5
ATOM      5  C   LIG    1        1.031  -0.873  -0.062  0.00  0.00    -0.060 C 
ATOM      6  C   LIG    1        1.658  -0.666  -1.442  0.00  0.00    +0.030 C 
ATOM      7  C   LIG    1        2.869  -1.589  -1.596  0.00  0.00    +0.000 C 
ATOM      8  C   LIG    1        3.899  -1.263  -0.513  0.00  0.00    +0.020 C 
ATOM      9  C   LIG    1        3.272  -1.470   0.867  0.00  0.00    +0.000 C 
ATOM     10  C   LIG    1        2.825  -2.926   1.010  0.00  0.00    +0.030 C 
ATOM     11  C   LIG    1        1.794  -3.252  -0.072  0.00  0.00    -0.010 C 
ATOM     12  C   LIG    1        2.421  -3.045  -1.452  0.00  0.00    +0.040 C 
ATOM     13  C   LIG    1        0.584  -2.329   0.082  0.00  0.00    +0.060 C 
ATOM     14  C   LIG    1        2.062  -0.547   1.021  0.00  0.00    +0.040 C 
BRANCH  11  15
ATOM     15  C   LIG    1        1.353  -4.686   0.069  0.00  0.00    -0.070 A 
ATOM     16  C   LIG    1        1.887  -5.478   1.069  0.00  0.00    +0.010 A 
ATOM     17  C   LIG    1        1.480  -6.792   1.201  0.00  0.00    +0.000 A 
ATOM     18  C   LIG    1        0.546  -7.317   0.328  0.00  0.00    -0.010 A 
ATOM     19  C   LIG    1        0.015  -6.527  -0.675  0.00  0.00    +0.000 A 
ATOM     20  C   LIG    1        0.420  -5.212  -0.804  0.00  0.00    +0.010 A 
ENDBRANCH  11  15
ENDBRANCH   3   5
BRANCH   2  21
ATOM     21  C   LIG    1       -1.238   2.207  -0.166  0.00  0.00    +0.330 C 
BRANCH  21  22
ATOM     22  C   LIG    1       -1.357   2.805   1.212  0.00  0.00    +0.500 C 
ATOM     23  N   LIG    1       -2.377   3.639   1.498  0.00  0.00    -0.670 N 
ATOM     24  H   LIG    1       -2.996   3.906   0.801  0.00  0.00    +0.410 HD
ATOM     25  O   LIG    1       -0.536   2.537   2.062  0.00  0.00    -0.500 OA
BRANCH  23  26
ATOM     26  C   LIG    1       -2.542   4.119   2.803  0.00  0.00    +0.160 A 
ATOM     27  C   LIG    1       -1.432   4.379   3.595  0.00  0.00    +0.040 A 
ATOM     28  C   LIG    1       -1.599   4.854   4.881  0.00  0.00    +0.030 A 
ATOM     29  C   LIG    1       -2.870   5.069   5.381  0.00  0.00    +0.010 A 
ATOM     30  C   LIG    1       -3.978   4.812   4.596  0.00  0.00    +0.050 A 
ATOM     31  C   LIG    1       -3.819   4.342   3.306  0.00  0.00    -0.060 A 
ATOM     32 CL   LIG    1       -5.210   4.025   2.318  0.00  0.00    -0.060 Cl
ENDBRANCH  23  26
ENDBRANCH  21  22
ENDBRANCH   2  21
TORSDOF 5
