REMARK  Name = ZINCtV00000L6k5N.0
REMARK                            x       y       z     vdW  Elec       q    Type
REMARK                         _______ _______ _______ _____ _____    ______ ____
ROOT
ATOM      1  C   LIG    1        0.709  -2.064  -0.016  0.00  0.00    +0.060 A 
ATOM      2  C   LIG    1       -0.646  -2.063  -0.003  0.00  0.00    -0.540 A 
ATOM      3  N   LIG    1       -1.055  -0.785   0.008  0.00  0.00    -0.390 NA
ATOM      4  C   LIG    1        0.002  -0.004   0.002  0.00  0.00    +0.280 A 
ATOM      5  O   LIG    1        1.108  -0.775  -0.018  0.00  0.00    -0.180 OA
ENDROOT
BRANCH   4   6
ATOM      6  C   LIG    1       -0.018   1.466   0.010  0.00  0.00    -0.150 A 
ATOM      7  C   LIG    1        1.082   2.268   0.004  0.00  0.00    +0.060 A 
ATOM      8  C   LIG    1        0.803   3.618   0.014  0.00  0.00    +0.010 A 
ATOM      9  C   LIG    1       -0.496   3.930   0.028  0.00  0.00    -0.020 A 
ATOM     10  S   LIG    1       -1.466   2.463   0.022  0.00  0.00    +0.220 S 
ENDBRANCH   4   6
BRANCH   2  11
ATOM     11  S   LIG    1       -1.686  -3.486  -0.001  0.00  0.00    +2.610 S 
ATOM     12  O   LIG    1       -2.927  -3.075   0.557  0.00  0.00    -0.910 OA
ATOM     13  O   LIG    1       -0.909  -4.550   0.531  0.00  0.00    -0.910 OA
BRANCH  11  14
ATOM     14  C   LIG    1       -2.009  -3.898  -1.683  0.00  0.00    -0.650 A 
ATOM     15  C   LIG    1       -3.106  -3.358  -2.328  0.00  0.00    +0.150 A 
ATOM     16  C   LIG    1       -3.357  -3.677  -3.650  0.00  0.00    +0.040 A 
ATOM     17  C   LIG    1       -2.516  -4.546  -4.323  0.00  0.00    -0.040 A 
ATOM     18  C   LIG    1       -1.423  -5.090  -3.675  0.00  0.00    +0.040 A 
ATOM     19 BR   LIG    1       -2.864  -4.989  -6.128  0.00  0.00    -0.030 Br
ATOM     20  C   LIG    1       -1.169  -4.766  -2.355  0.00  0.00    +0.140 A 
ENDBRANCH  11  14
ENDBRANCH   2  11
BRANCH   1  21
ATOM     21  S   LIG    1        1.753  -3.483  -0.033  0.00  0.00    +0.080 S 
BRANCH  21  22
ATOM     22  C   LIG    1        3.418  -2.763  -0.045  0.00  0.00    +0.130 C 
BRANCH  22  27
ATOM     23  C   LIG    1        7.348  -7.000  -0.104  0.00  0.00    +0.090 C 
ATOM     24  C   LIG    1        6.324  -5.894  -0.088  0.00  0.00    -0.070 A 
ATOM     25  C   LIG    1        5.842  -5.382  -1.279  0.00  0.00    +0.010 A 
ATOM     26  C   LIG    1        4.902  -4.369  -1.264  0.00  0.00    +0.040 A 
ATOM     27  C   LIG    1        4.443  -3.868  -0.060  0.00  0.00    -0.100 A 
ATOM     28  C   LIG    1        4.929  -4.377   1.130  0.00  0.00    +0.040 A 
ATOM     29  C   LIG    1        5.865  -5.393   1.116  0.00  0.00    +0.010 A 
ENDBRANCH  22  27
ENDBRANCH  21  22
ENDBRANCH   1  21
TORSDOF 6
