REMARK  Name = ZINCpk000004Fchu.0
REMARK                            x       y       z     vdW  Elec       q    Type
REMARK                         _______ _______ _______ _____ _____    ______ ____
ROOT
ATOM      1  C   LIG    1        9.963   1.985  -1.370  0.00  0.00    +0.100 C 
ATOM      2  C   LIG    1        8.984   2.111  -2.508  0.00  0.00    +0.510 C 
ATOM      3  N   LIG    1        7.678   2.323  -2.253  0.00  0.00    -0.620 N 
ATOM      4  C   LIG    1        7.176   2.321  -0.872  0.00  0.00    +0.270 C 
ATOM      5  C   LIG    1        6.447   3.645  -0.613  0.00  0.00    +0.270 C 
ATOM      6  N   LIG    1        5.499   3.882  -1.711  0.00  0.00    -0.620 N 
ATOM      7  C   LIG    1        6.001   3.879  -3.093  0.00  0.00    +0.220 C 
ATOM      8  C   LIG    1        4.193   4.093  -1.456  0.00  0.00    +0.510 C 
ATOM      9  O   LIG    1        3.405   4.196  -2.373  0.00  0.00    -0.500 OA
ATOM     10  C   LIG    1        6.730   2.560  -3.351  0.00  0.00    +0.270 C 
ATOM     11  O   LIG    1        9.372   2.023  -3.654  0.00  0.00    -0.540 OA
ENDROOT
BRANCH   7  12
ATOM     12  C   LIG    1        4.827   4.013  -4.065  0.00  0.00    +0.080 C 
BRANCH  12  13
ATOM     13  C   LIG    1        5.355   4.036  -5.501  0.00  0.00    +0.150 C 
BRANCH  13  14
ATOM     14  O   LIG    1        4.273   4.282  -6.402  0.00  0.00    -0.570 OA
ATOM     15  H   LIG    1        4.535   4.309  -7.333  0.00  0.00    +0.380 HD
ENDBRANCH  13  14
ENDBRANCH  12  13
ENDBRANCH   7  12
BRANCH   8  16
ATOM     16  C   LIG    1        3.711   4.200  -0.032  0.00  0.00    +0.130 C 
BRANCH  16  17
ATOM     17  C   LIG    1        2.222   4.434  -0.022  0.00  0.00    -0.160 A 
ATOM     18  C   LIG    1        1.270   3.512   0.188  0.00  0.00    +0.240 A 
ATOM     19  N   LIG    1        0.034   4.094   0.123  0.00  0.00    -0.590 N 
ATOM     20  H   LIG    1       -0.809   3.628   0.243  0.00  0.00    +0.420 HD
ATOM     21  C   LIG    1        0.163   5.440  -0.137  0.00  0.00    +0.100 A 
ATOM     22  C   LIG    1       -0.751   6.476  -0.300  0.00  0.00    -0.020 A 
ATOM     23  C   LIG    1       -0.300   7.753  -0.553  0.00  0.00    +0.030 A 
ATOM     24  C   LIG    1        1.059   8.015  -0.659  0.00  0.00    -0.030 A 
ATOM     25  C   LIG    1        1.974   7.012  -0.502  0.00  0.00    -0.030 A 
ATOM     26  C   LIG    1        3.448   7.309  -0.613  0.00  0.00    +0.080 C 
ATOM     27  C   LIG    1        1.539   5.712  -0.239  0.00  0.00    -0.090 A 
ENDBRANCH  16  17
ENDBRANCH   8  16
TORSDOF 5
