REMARK  Name = ZINCpk000000nnH2.0
REMARK                            x       y       z     vdW  Elec       q    Type
REMARK                         _______ _______ _______ _____ _____    ______ ____
ROOT
ATOM      1  N   LIG    1        0.999  -1.873   3.650  0.00  0.00    -0.720 N 
ATOM      2  H   LIG    1        0.206  -1.316   3.599  0.00  0.00    +0.410 HD
ATOM      3  C   LIG    1        1.553  -2.150   4.846  0.00  0.00    +0.510 C 
ATOM      4  O   LIG    1        2.544  -2.847   4.909  0.00  0.00    -0.520 OA
ENDROOT
BRANCH   3   5
ATOM      5  C   LIG    1        0.943  -1.594   6.107  0.00  0.00    +0.070 C 
ATOM      6  C   LIG    1       -0.496  -2.095   6.240  0.00  0.00    +0.100 C 
ATOM      7  C   LIG    1       -0.498  -3.561   6.582  0.00  0.00    +0.520 C 
ATOM      8  N   LIG    1        0.454  -4.083   7.378  0.00  0.00    -0.660 N 
ATOM      9  H   LIG    1        0.432  -5.028   7.598  0.00  0.00    +0.420 HD
ATOM     10  C   LIG    1        1.474  -3.275   7.888  0.00  0.00    +0.210 A 
ATOM     11  C   LIG    1        2.214  -3.695   8.984  0.00  0.00    -0.050 A 
ATOM     12  C   LIG    1        3.222  -2.889   9.485  0.00  0.00    +0.140 A 
ATOM     13  C   LIG    1        3.490  -1.666   8.892  0.00  0.00    -0.030 A 
ATOM     14  C   LIG    1        2.753  -1.247   7.800  0.00  0.00    +0.100 A 
ATOM     15  F   LIG    1        3.944  -3.295  10.551  0.00  0.00    -0.130 F 
ATOM     16  O   LIG    1       -1.367  -4.279   6.136  0.00  0.00    -0.520 OA
ATOM     17  C   LIG    1        1.747  -2.048   7.297  0.00  0.00    -0.120 A 
ENDBRANCH   3   5
BRANCH   1  18
ATOM     18  C   LIG    1        1.592  -2.414   2.424  0.00  0.00    +0.270 C 
BRANCH  18  20
ATOM     19  C   LIG    1       -0.663  -2.455   1.350  0.00  0.00    +0.050 C 
ATOM     20  C   LIG    1        0.776  -1.952   1.215  0.00  0.00    +0.090 C 
ATOM     21  C   LIG    1        1.396  -2.518  -0.064  0.00  0.00    +0.020 C 
BRANCH  20  22
ATOM     22  N   LIG    1        0.779  -0.485   1.154  0.00  0.00    -0.520 NA
ATOM     23  C   LIG    1        0.002  -0.004   0.002  0.00  0.00    +0.150 C 
ATOM     24  C   LIG    1       -0.019   1.527   0.010  0.00  0.00    +0.220 C 
ATOM     25  O   LIG    1        1.325   2.017   0.000  0.00  0.00    -0.380 OA
ATOM     26  C   LIG    1        2.110   1.569   1.109  0.00  0.00    +0.230 C 
ATOM     27  C   LIG    1        2.152   0.038   1.111  0.00  0.00    +0.150 C 
ENDBRANCH  20  22
ENDBRANCH  18  20
ENDBRANCH   1  18
TORSDOF 4
