REMARK  Name = ZINCpk00000xIkKN.0
REMARK                            x       y       z     vdW  Elec       q    Type
REMARK                         _______ _______ _______ _____ _____    ______ ____
ROOT
ATOM      1  C   LIG    1        0.002  -0.004   0.002  0.00  0.00    +0.090 C 
ENDROOT
BRANCH   1   3
ATOM      2  O   LIG    1        1.024   2.123   0.004  0.00  0.00    -0.520 OA
ATOM      3  C   LIG    1       -0.018   1.503   0.010  0.00  0.00    +0.540 C 
ATOM      4  N   LIG    1       -1.195   2.161   0.019  0.00  0.00    -0.720 N 
ATOM      5  H   LIG    1       -2.028   1.664   0.021  0.00  0.00    +0.410 HD
BRANCH   4   6
ATOM      6  C   LIG    1       -1.214   3.626   0.028  0.00  0.00    +0.260 C 
BRANCH   6   7
ATOM      7  C   LIG    1       -2.664   4.116   0.037  0.00  0.00    +0.070 C 
BRANCH   7   8
ATOM      8  C   LIG    1       -2.684   5.623   0.045  0.00  0.00    -0.090 A 
ATOM      9  C   LIG    1       -2.694   6.307   1.246  0.00  0.00    +0.010 A 
ATOM     10  C   LIG    1       -2.707   7.689   1.254  0.00  0.00    +0.000 A 
ATOM     11  C   LIG    1       -2.723   8.387   0.060  0.00  0.00    +0.000 A 
ATOM     12  C   LIG    1       -2.718   7.702  -1.140  0.00  0.00    +0.000 A 
ATOM     13  C   LIG    1       -2.699   6.320  -1.148  0.00  0.00    +0.010 A 
ENDBRANCH   7   8
ENDBRANCH   6   7
ENDBRANCH   4   6
ENDBRANCH   1   3
BRANCH   1  14
ATOM     14  S   LIG    1        1.716  -0.584  -0.018  0.00  0.00    +0.160 S 
BRANCH  14  15
ATOM     15  C   LIG    1        1.450  -2.326  -0.024  0.00  0.00    +0.120 A 
ATOM     16  N   LIG    1        0.289  -2.935  -0.017  0.00  0.00    -0.290 NA
ATOM     17  N   LIG    1        0.476  -4.208  -0.025  0.00  0.00    -0.260 NA
ATOM     18  C   LIG    1        1.752  -4.460  -0.038  0.00  0.00    +0.180 A 
ATOM     19  O   LIG    1        2.401  -3.279  -0.044  0.00  0.00    -0.200 OA
BRANCH  18  20
ATOM     20  C   LIG    1        2.390  -5.826  -0.052  0.00  0.00    +0.140 C 
ATOM     21  C   LIG    1        1.956  -6.622   1.191  0.00  0.00    +0.090 C 
ATOM     22  C   LIG    1        2.334  -8.103   0.987  0.00  0.00    -0.290 C 
ATOM     23  S   LIG    1        2.307  -8.355  -0.825  0.00  0.00    +2.400 S 
ATOM     24  O   LIG    1        1.220  -9.204  -1.166  0.00  0.00    -0.920 OA
ATOM     25  O   LIG    1        3.618  -8.666  -1.276  0.00  0.00    -0.930 OA
ATOM     26  C   LIG    1        1.901  -6.628  -1.286  0.00  0.00    -0.290 C 
ENDBRANCH  18  20
ENDBRANCH  14  15
ENDBRANCH   1  14
TORSDOF 7
