REMARK  Name = ZINCqH00000021QL.0
REMARK                            x       y       z     vdW  Elec       q    Type
REMARK                         _______ _______ _______ _____ _____    ______ ____
ROOT
ATOM      1  C   LIG    1       -0.742   1.585  -1.213  0.00  0.00    +0.520 C 
ATOM      2  N   LIG    1       -0.288   1.272  -2.443  0.00  0.00    -0.650 N 
ATOM      3  H   LIG    1        0.507   0.726  -2.543  0.00  0.00    +0.410 HD
ATOM      4  O   LIG    1       -1.736   2.268  -1.088  0.00  0.00    -0.470 OA
ENDROOT
BRANCH   2   5
ATOM      5  C   LIG    1       -0.963   1.734  -3.573  0.00  0.00    +0.300 A 
ATOM      6  C   LIG    1       -2.085   2.505  -3.581  0.00  0.00    -0.110 A 
ATOM      7  C   LIG    1       -2.432   2.742  -4.914  0.00  0.00    +0.250 A 
ATOM      8  N   LIG    1       -1.558   2.140  -5.679  0.00  0.00    -0.280 NA
ATOM      9  N   LIG    1       -0.618   1.502  -4.860  0.00  0.00    -0.380 N 
BRANCH   9  10
ATOM     10  C   LIG    1        0.533   0.720  -5.317  0.00  0.00    +0.250 C 
ATOM     11  C   LIG    1        1.442   1.588  -6.210  0.00  0.00    +0.030 C 
ATOM     12  C   LIG    1        1.941   0.612  -7.306  0.00  0.00    +0.020 C 
ATOM     13  C   LIG    1        0.694  -0.266  -7.576  0.00  0.00    +0.020 C 
ATOM     14  C   LIG    1        0.058  -0.459  -6.184  0.00  0.00    +0.020 C 
ENDBRANCH   9  10
ENDBRANCH   2   5
BRANCH   1  15
ATOM     15  C   LIG    1       -0.013   1.086   0.008  0.00  0.00    +0.250 C 
BRANCH  15  16
ATOM     16  O   LIG    1       -0.682   1.547   1.184  0.00  0.00    -0.280 OA
BRANCH  16  24
ATOM     17  C   LIG    1       -3.373   1.042   5.134  0.00  0.00    +0.050 C 
ATOM     18  C   LIG    1       -2.345   2.175   5.099  0.00  0.00    +0.100 C 
ATOM     19  C   LIG    1       -1.068   1.781   5.877  0.00  0.00    +0.100 C 
ATOM     20  C   LIG    1       -0.195   1.207   4.777  0.00  0.00    -0.130 A 
ATOM     21  C   LIG    1        0.943   0.430   4.811  0.00  0.00    +0.030 A 
ATOM     22  C   LIG    1        1.539   0.022   3.631  0.00  0.00    +0.020 A 
ATOM     23  C   LIG    1        0.989   0.394   2.418  0.00  0.00    -0.040 A 
ATOM     24  C   LIG    1       -0.148   1.182   2.380  0.00  0.00    +0.110 A 
ATOM     25  C   LIG    1       -0.753   1.599   3.569  0.00  0.00    +0.090 A 
ATOM     26  C   LIG    1       -2.945   3.466   5.660  0.00  0.00    +0.080 C 
ATOM     27  O   LIG    1       -1.854   2.377   3.763  0.00  0.00    -0.280 OA
ENDBRANCH  16  24
ENDBRANCH  15  16
ENDBRANCH   1  15
TORSDOF 5
