REMARK  Name = ZINCah0000002kYF.0
REMARK                            x       y       z     vdW  Elec       q    Type
REMARK                         _______ _______ _______ _____ _____    ______ ____
ROOT
ATOM      1  C   LIG    1       -3.570   6.561  -0.608  0.00  0.00    +0.210 C 
ATOM      2  C   LIG    1       -2.981   5.228  -0.223  0.00  0.00    +0.200 A 
ATOM      3  N   LIG    1       -3.442   4.059  -0.557  0.00  0.00    -0.400 NA
ATOM      4  O   LIG    1       -2.747   3.180  -0.093  0.00  0.00    +0.040 OA
ATOM      5  C   LIG    1       -1.739   3.721   0.606  0.00  0.00    +0.430 A 
ATOM      6  N   LIG    1       -1.886   5.032   0.530  0.00  0.00    -0.540 NA
ENDROOT
BRANCH   5   7
ATOM      7  N   LIG    1       -0.749   3.044   1.275  0.00  0.00    -0.660 N 
ATOM      8  H   LIG    1       -0.063   3.536   1.753  0.00  0.00    +0.430 HD
BRANCH   7   9
ATOM      9  C   LIG    1       -0.729   1.579   1.267  0.00  0.00    +0.230 C 
ATOM     10  C   LIG    1        0.011   1.072   2.506  0.00  0.00    +0.060 C 
ATOM     11  C   LIG    1       -0.013   1.086   0.008  0.00  0.00    +0.020 C 
ENDBRANCH   7   9
ENDBRANCH   5   7
TORSDOF 2
