REMARK  Name = ZINCpk00001AZjfC.0
REMARK                            x       y       z     vdW  Elec       q    Type
REMARK                         _______ _______ _______ _____ _____    ______ ____
ROOT
ATOM      1  C   LIG    1        0.884   0.945   6.588  0.00  0.00    +0.100 C 
ATOM      2  C   LIG    1        1.829   1.211   5.415  0.00  0.00    +0.000 C 
ATOM      3  C   LIG    1        2.525   2.583   5.476  0.00  0.00    +0.320 C 
ATOM      4  N   LIG    1        3.600   1.892   6.214  0.00  0.00    -0.630 N 
ATOM      5  C   LIG    1        4.541   2.281   7.097  0.00  0.00    +0.590 C 
ATOM      6  O   LIG    1        5.317   1.468   7.555  0.00  0.00    -0.530 OA
ATOM      7  C   LIG    1        3.231   0.603   5.598  0.00  0.00    +0.320 C 
ENDROOT
BRANCH   5   8
ATOM      8  C   LIG    1        4.630   3.726   7.516  0.00  0.00    -0.060 C 
ATOM      9  C   LIG    1        4.648   4.027   9.010  0.00  0.00    -0.010 C 
ATOM     10  C   LIG    1        4.618   2.891  10.011  0.00  0.00    +0.060 C 
ATOM     11  C   LIG    1        3.488   1.925   9.646  0.00  0.00    -0.010 C 
ATOM     12  C   LIG    1        2.190   2.729   9.506  0.00  0.00    +0.220 C 
ATOM     13  O   LIG    1        2.254   3.502   8.308  0.00  0.00    -0.350 OA
ATOM     14  C   LIG    1        3.400   4.345   8.196  0.00  0.00    +0.190 C 
ENDBRANCH   5   8
BRANCH   2  15
ATOM     15  C   LIG    1        1.204   0.907   4.077  0.00  0.00    +0.170 A 
ATOM     16  N   LIG    1        0.940  -0.276   3.601  0.00  0.00    -0.270 NA
ATOM     17  N   LIG    1        0.405  -0.158   2.437  0.00  0.00    -0.280 NA
ATOM     18  C   LIG    1        0.320   1.104   2.126  0.00  0.00    +0.170 A 
ATOM     19  O   LIG    1        0.819   1.807   3.157  0.00  0.00    -0.220 OA
BRANCH  18  20
ATOM     20  C   LIG    1       -0.242   1.672   0.849  0.00  0.00    +0.110 C 
ATOM     21  C   LIG    1        0.567   1.152  -0.343  0.00  0.00    +0.020 C 
ATOM     22  C   LIG    1       -0.057   1.670  -1.641  0.00  0.00    +0.220 C 
ATOM     23  O   LIG    1       -1.422   1.253  -1.712  0.00  0.00    -0.380 OA
ATOM     24  C   LIG    1       -2.239   1.748  -0.649  0.00  0.00    +0.220 C 
ATOM     25  C   LIG    1       -1.702   1.233   0.689  0.00  0.00    +0.020 C 
ENDBRANCH  18  20
ENDBRANCH   2  15
TORSDOF 3
