REMARK  Name = ZINCvU00000004fV.0
REMARK                            x       y       z     vdW  Elec       q    Type
REMARK                         _______ _______ _______ _____ _____    ______ ____
ROOT
ATOM      1  C   LIG    1       -2.182   5.021  -1.499  0.00  0.00    +0.220 C 
ENDROOT
BRANCH   1   2
ATOM      2  C   LIG    1       -3.180   4.210  -2.284  0.00  0.00    +0.380 C 
ATOM      3  O   LIG    1       -3.027   3.010  -2.406  0.00  0.00    -0.480 OA
BRANCH   2  16
ATOM      4  C   LIG    1       -3.432   2.457  -4.465  0.00  0.00    +0.330 C 
ATOM      5  N   LIG    1       -4.771   3.050  -4.439  0.00  0.00    -0.500 N 
ATOM      6  C   LIG    1       -5.854   2.566  -5.171  0.00  0.00    +0.130 A 
ATOM      7  C   LIG    1       -5.948   1.484  -6.046  0.00  0.00    -0.010 A 
ATOM      8  C   LIG    1       -7.145   1.199  -6.668  0.00  0.00    +0.050 A 
ATOM      9  C   LIG    1       -8.261   1.981  -6.430  0.00  0.00    -0.010 A 
ATOM     10  C   LIG    1       -8.175   3.057  -5.562  0.00  0.00    +0.070 A 
ATOM     11  C   LIG    1       -6.981   3.344  -4.940  0.00  0.00    -0.130 A 
ATOM     12  C   LIG    1       -6.569   4.420  -3.962  0.00  0.00    -0.010 C 
ATOM     13  C   LIG    1       -6.742   5.806  -4.588  0.00  0.00    +0.070 C 
ATOM     14  C   LIG    1       -7.381   4.310  -2.670  0.00  0.00    +0.070 C 
ATOM     15  C   LIG    1       -5.106   4.138  -3.694  0.00  0.00    +0.280 C 
ATOM     16  C   LIG    1       -4.286   4.839  -2.874  0.00  0.00    -0.230 C 
ENDBRANCH   2  16
ENDBRANCH   1   2
BRANCH   1  17
ATOM     17  O   LIG    1       -1.139   4.146  -0.993  0.00  0.00    -0.330 OA
BRANCH  17  18
ATOM     18  C   LIG    1       -0.164   4.717  -0.267  0.00  0.00    +0.480 C 
ATOM     19  O   LIG    1       -0.183   5.907  -0.061  0.00  0.00    -0.500 OA
BRANCH  18  20
ATOM     20  C   LIG    1        0.952   3.873   0.290  0.00  0.00    -0.010 C 
ATOM     21  C   LIG    1        1.746   3.220  -0.860  0.00  0.00    +0.060 C 
ATOM     22  C   LIG    1        2.946   4.175  -1.083  0.00  0.00    +0.020 C 
ATOM     23  C   LIG    1        3.309   4.610   0.359  0.00  0.00    +0.020 C 
ATOM     24  C   LIG    1        1.946   4.757   1.065  0.00  0.00    +0.050 C 
BRANCH  20  25
ATOM     25  C   LIG    1        0.391   2.809   1.199  0.00  0.00    -0.110 A 
ATOM     26  C   LIG    1       -0.971   2.737   1.418  0.00  0.00    +0.050 A 
ATOM     27  C   LIG    1       -1.487   1.761   2.252  0.00  0.00    +0.010 A 
ATOM     28  C   LIG    1       -0.640   0.857   2.866  0.00  0.00    +0.040 A 
ATOM     29  C   LIG    1        0.723   0.928   2.648  0.00  0.00    -0.010 A 
ATOM     30  C   LIG    1        1.240   1.905   1.814  0.00  0.00    +0.110 A 
ATOM     31  F   LIG    1        2.572   1.974   1.599  0.00  0.00    -0.130 F 
ENDBRANCH  20  25
ENDBRANCH  18  20
ENDBRANCH  17  18
ENDBRANCH   1  17
TORSDOF 6
