REMARK  Name = ZINCkj000005hBMD.0
REMARK                            x       y       z     vdW  Elec       q    Type
REMARK                         _______ _______ _______ _____ _____    ______ ____
ROOT
ATOM      1  N   LIG    1       -0.012   1.005   0.008  0.00  0.00    -0.500 N 
ATOM      2  H   LIG    1        0.876   1.483   0.029  0.00  0.00    +0.430 HD
ATOM      3  H   LIG    1        0.144   0.009  -0.041  0.00  0.00    +0.430 HD
ENDROOT
BRANCH   1   7
ATOM      4  C   LIG    1       -0.956   2.952  -3.673  0.00  0.00    +0.030 C 
ATOM      5  C   LIG    1       -1.673   3.417  -2.404  0.00  0.00    +0.090 C 
ATOM      6  C   LIG    1       -0.880   2.965  -1.176  0.00  0.00    +0.040 C 
ATOM      7  C   LIG    1       -0.773   1.439  -1.171  0.00  0.00    +0.160 C 
ATOM      8  C   LIG    1       -0.057   0.974  -2.441  0.00  0.00    +0.050 C 
ATOM      9  C   LIG    1       -0.850   1.426  -3.668  0.00  0.00    +0.070 C 
BRANCH   4  10
ATOM     10  C   LIG    1       -1.738   3.398  -4.883  0.00  0.00    +0.460 C 
ATOM     11  O   LIG    1       -2.762   4.023  -4.743  0.00  0.00    -0.500 OA
BRANCH  10  13
ATOM     12  C   LIG    1       -2.099   3.561  -7.232  0.00  0.00    +0.280 C 
ATOM     13  O   LIG    1       -1.295   3.100  -6.114  0.00  0.00    -0.360 OA
ENDBRANCH  10  13
ENDBRANCH   4  10
ENDBRANCH   1   7
BRANCH   1  14
ATOM     14  C   LIG    1       -0.769   1.324   1.225  0.00  0.00    +0.160 C 
ATOM     15  C   LIG    1       -2.049   0.485   1.264  0.00  0.00    +0.040 C 
ATOM     16  C   LIG    1       -2.838   0.818   2.531  0.00  0.00    +0.060 C 
ATOM     17  C   LIG    1       -1.984   0.503   3.761  0.00  0.00    +0.050 C 
ATOM     18  C   LIG    1       -0.705   1.341   3.722  0.00  0.00    +0.010 C 
ATOM     19  C   LIG    1        0.085   1.009   2.455  0.00  0.00    +0.080 C 
BRANCH  18  20
ATOM     20  C   LIG    1        0.136   1.031   4.934  0.00  0.00    +0.520 C 
ATOM     21  O   LIG    1        1.257   0.587   4.796  0.00  0.00    -0.540 OA
ATOM     22  N   LIG    1       -0.357   1.246   6.170  0.00  0.00    -0.850 N 
ATOM     23  H   LIG    1        0.185   1.046   6.949  0.00  0.00    +0.410 HD
ATOM     24  H   LIG    1       -1.253   1.601   6.279  0.00  0.00    +0.400 HD
ENDBRANCH  18  20
ENDBRANCH   1  14
TORSDOF 5
