REMARK  Name = ZINCah0000006kTK.0
REMARK                            x       y       z     vdW  Elec       q    Type
REMARK                         _______ _______ _______ _____ _____    ______ ____
ROOT
ATOM      1  C   LIG    1        0.002  -0.004   0.002  0.00  0.00    +0.190 A 
ATOM      2  C   LIG    1       -0.664  -0.720   0.983  0.00  0.00    -0.030 A 
ATOM      3  C   LIG    1       -0.617  -2.107   0.934  0.00  0.00    +0.220 A 
ATOM      4  N   LIG    1        0.059  -2.694  -0.042  0.00  0.00    -0.510 NA
ATOM      5  C   LIG    1        0.680  -1.978  -0.958  0.00  0.00    +0.540 A 
ATOM      6 CL   LIG    1       -1.432  -3.058   2.136  0.00  0.00    -0.000 Cl
ATOM      7  N   LIG    1        0.652  -0.661  -0.946  0.00  0.00    -0.510 NA
ENDROOT
BRANCH   1   8
ATOM      8  C   LIG    1       -0.018   1.503   0.010  0.00  0.00    +0.310 C 
BRANCH   8  10
ATOM      9  N   LIG    1        2.428   2.405  -0.008  0.00  0.00    -0.410 NA
ATOM     10  C   LIG    1        1.363   2.012  -0.000  0.00  0.00    +0.210 C 
ENDBRANCH   8  10
ENDBRANCH   1   8
TORSDOF 2
