REMARK  Name = ZINCpk00000xIlns.0
REMARK                            x       y       z     vdW  Elec       q    Type
REMARK                         _______ _______ _______ _____ _____    ______ ____
ROOT
ATOM      1  O   LIG    1        0.777   0.546   2.530  0.00  0.00    -0.580 OA
ATOM      2  C   LIG    1       -0.222   1.232   2.431  0.00  0.00    +0.710 C 
ATOM      3  N   LIG    1       -0.853   1.667   3.540  0.00  0.00    -0.740 N 
ATOM      4  H   LIG    1       -1.650   2.214   3.462  0.00  0.00    +0.400 HD
ATOM      5  N   LIG    1       -0.698   1.558   1.213  0.00  0.00    -0.740 N 
ATOM      6  H   LIG    1       -1.495   2.106   1.135  0.00  0.00    +0.400 HD
ENDROOT
BRANCH   3   7
ATOM      7  C   LIG    1       -0.335   1.313   4.864  0.00  0.00    +0.260 C 
ATOM      8  C   LIG    1       -1.474   1.356   5.886  0.00  0.00    +0.040 C 
ATOM      9  C   LIG    1       -0.985   0.767   7.215  0.00  0.00    +0.180 C 
ATOM     10  C   LIG    1        0.338   1.409   7.557  0.00  0.00    +0.270 A 
ATOM     11  N   LIG    1        0.952   1.416   8.707  0.00  0.00    -0.540 NA
ATOM     12  C   LIG    1        2.097   2.092   8.602  0.00  0.00    +0.420 A 
ATOM     13  N   LIG    1        2.226   2.526   7.372  0.00  0.00    -0.310 NA
ATOM     14  N   LIG    1        1.094   2.092   6.676  0.00  0.00    -0.370 N 
ATOM     15  C   LIG    1        0.755   2.312   5.270  0.00  0.00    +0.310 C 
ENDBRANCH   3   7
BRANCH   5  16
ATOM     16  C   LIG    1       -0.013   1.086   0.008  0.00  0.00    +0.280 C 
BRANCH  16  17
ATOM     17  C   LIG    1       -0.753   1.593  -1.232  0.00  0.00    +0.040 C 
BRANCH  17  18
ATOM     18  C   LIG    1       -0.037   1.099  -2.490  0.00  0.00    +0.150 C 
BRANCH  18  19
ATOM     19  C   LIG    1       -0.765   1.598  -3.711  0.00  0.00    +0.290 A 
ATOM     20  N   LIG    1       -2.029   1.407  -3.955  0.00  0.00    -0.490 NA
ATOM     21  C   LIG    1       -2.359   1.988  -5.137  0.00  0.00    +0.050 A 
ATOM     22  C   LIG    1       -3.549   2.088  -5.863  0.00  0.00    +0.070 A 
ATOM     23  C   LIG    1       -3.565   2.756  -7.054  0.00  0.00    +0.000 A 
ATOM     24  C   LIG    1       -2.410   3.340  -7.554  0.00  0.00    +0.030 A 
ATOM     25  C   LIG    1       -1.225   3.254  -6.856  0.00  0.00    +0.010 A 
ATOM     26  C   LIG    1       -1.189   2.579  -5.643  0.00  0.00    +0.050 A 
ATOM     27  N   LIG    1       -0.199   2.320  -4.716  0.00  0.00    -0.600 N 
ATOM     28  H   LIG    1        0.728   2.599  -4.771  0.00  0.00    +0.420 HD
ENDBRANCH  18  19
ENDBRANCH  17  18
ENDBRANCH  16  17
ENDBRANCH   5  16
TORSDOF 5
