REMARK  Name = ZINCpk00000y6vvJ.0
REMARK                            x       y       z     vdW  Elec       q    Type
REMARK                         _______ _______ _______ _____ _____    ______ ____
ROOT
ATOM      1  C   LIG    1       -0.013   1.086   0.008  0.00  0.00    +0.280 C 
ATOM      2  C   LIG    1       -0.684   1.595   1.301  0.00  0.00    +0.080 C 
ATOM      3  C   LIG    1        0.525   1.903   2.223  0.00  0.00    +0.180 C 
ATOM      4  C   LIG    1        1.567   2.428   1.204  0.00  0.00    +0.220 C 
ATOM      5  N   LIG    1        1.363   1.605  -0.002  0.00  0.00    -0.610 N 
ATOM      6  C   LIG    1        2.285   1.368  -0.957  0.00  0.00    +0.520 C 
ATOM      7  O   LIG    1        2.005   0.672  -1.910  0.00  0.00    -0.510 OA
ENDROOT
BRANCH   1  12
ATOM      8  C   LIG    1       -2.339   1.237  -2.966  0.00  0.00    +0.130 A 
ATOM      9  C   LIG    1       -2.134   2.536  -3.409  0.00  0.00    -0.080 A 
ATOM     10  C   LIG    1       -1.245   3.359  -2.745  0.00  0.00    +0.040 A 
ATOM     11  C   LIG    1       -0.563   2.890  -1.637  0.00  0.00    -0.020 A 
ATOM     12  C   LIG    1       -0.761   1.595  -1.197  0.00  0.00    -0.050 A 
ATOM     13  C   LIG    1       -1.649   0.768  -1.857  0.00  0.00    -0.010 A 
BRANCH   8  15
ATOM     14  C   LIG    1       -3.887   0.976  -4.751  0.00  0.00    +0.250 C 
ATOM     15  O   LIG    1       -3.213   0.426  -3.618  0.00  0.00    -0.320 OA
ENDBRANCH   8  15
ENDBRANCH   1  12
BRANCH   3  16
ATOM     16  O   LIG    1        0.992   0.717   2.869  0.00  0.00    -0.550 OA
ATOM     17  H   LIG    1        1.805   0.841   3.378  0.00  0.00    +0.380 HD
ENDBRANCH   3  16
BRANCH   6  18
ATOM     18  C   LIG    1        3.663   1.966  -0.839  0.00  0.00    +0.330 C 
BRANCH  18  19
ATOM     19  N   LIG    1        4.471   1.563  -1.992  0.00  0.00    -0.480 N 
ATOM     20  C   LIG    1        5.210   0.426  -1.929  0.00  0.00    +0.290 A 
ATOM     21  C   LIG    1        5.960   0.031  -2.984  0.00  0.00    -0.070 A 
ATOM     22  C   LIG    1        5.988   0.804  -4.153  0.00  0.00    +0.120 A 
ATOM     23  C   LIG    1        5.248   1.949  -4.212  0.00  0.00    -0.210 A 
ATOM     24  C   LIG    1        5.260   2.799  -5.457  0.00  0.00    +0.120 C 
ATOM     25  C   LIG    1        4.476   2.328  -3.101  0.00  0.00    +0.520 A 
ATOM     26  O   LIG    1        3.810   3.350  -3.141  0.00  0.00    -0.550 OA
ENDBRANCH  18  19
ENDBRANCH   6  18
TORSDOF 5
