REMARK  Name = ZINCrH000004mLeF.0
REMARK                            x       y       z     vdW  Elec       q    Type
REMARK                         _______ _______ _______ _____ _____    ______ ____
ROOT
ATOM      1  N   LIG    1        2.213   7.031  -1.932  0.00  0.00    -0.350 N 
ATOM      2  N   LIG    1        2.365   8.286  -1.329  0.00  0.00    -0.280 NA
ATOM      3  C   LIG    1        3.103   8.143  -0.258  0.00  0.00    +0.250 A 
ATOM      4  C   LIG    1        3.455   6.795  -0.144  0.00  0.00    -0.250 A 
ATOM      5  C   LIG    1        4.305   6.189   0.943  0.00  0.00    +0.120 C 
ATOM      6  C   LIG    1        2.894   6.128  -1.190  0.00  0.00    +0.330 A 
ENDROOT
BRANCH   6   7
ATOM      7  N   LIG    1        3.002   4.761  -1.448  0.00  0.00    -0.670 N 
ATOM      8  H   LIG    1        3.874   4.337  -1.459  0.00  0.00    +0.420 HD
ATOM      9  C   LIG    1        1.894   4.031  -1.683  0.00  0.00    +0.700 C 
ATOM     10  N   LIG    1        1.990   2.698  -1.856  0.00  0.00    -0.730 N 
ATOM     11  H   LIG    1        2.844   2.254  -1.740  0.00  0.00    +0.400 HD
ATOM     12  O   LIG    1        0.807   4.575  -1.738  0.00  0.00    -0.570 OA
BRANCH  10  13
ATOM     13  C   LIG    1        0.803   1.919  -2.219  0.00  0.00    +0.260 C 
ATOM     14  C   LIG    1        0.359   1.079  -1.020  0.00  0.00    +0.000 C 
ATOM     15  C   LIG    1       -0.881   0.265  -1.399  0.00  0.00    +0.020 C 
ATOM     16  C   LIG    1       -0.546  -0.657  -2.573  0.00  0.00    +0.010 C 
ATOM     17  C   LIG    1       -0.102   0.183  -3.771  0.00  0.00    +0.020 C 
ATOM     18  C   LIG    1        1.137   0.997  -3.393  0.00  0.00    +0.010 C 
ENDBRANCH  10  13
ENDBRANCH   6   7
BRANCH   1  19
ATOM     19  C   LIG    1        1.456   6.747  -3.154  0.00  0.00    +0.390 C 
BRANCH  19  23
ATOM     20  C   LIG    1        3.882   7.611  -6.568  0.00  0.00    +0.110 A 
ATOM     21  C   LIG    1        3.904   6.347  -6.001  0.00  0.00    -0.040 A 
ATOM     22  C   LIG    1        3.119   6.071  -4.897  0.00  0.00    +0.030 A 
ATOM     23  C   LIG    1        2.311   7.053  -4.356  0.00  0.00    -0.110 A 
ATOM     24  C   LIG    1        2.289   8.319  -4.914  0.00  0.00    +0.000 A 
ATOM     25  C   LIG    1        3.068   8.601  -6.024  0.00  0.00    +0.100 A 
BRANCH  20  27
ATOM     26  C   LIG    1        5.464   6.821  -8.159  0.00  0.00    +0.240 C 
ATOM     27  O   LIG    1        4.654   7.884  -7.654  0.00  0.00    -0.300 OA
ENDBRANCH  20  27
BRANCH  25  28
ATOM     28  O   LIG    1        3.043   9.843  -6.577  0.00  0.00    -0.310 OA
ATOM     29  C   LIG    1        2.400  10.874  -5.825  0.00  0.00    +0.240 C 
ENDBRANCH  25  28
ENDBRANCH  19  23
ENDBRANCH   1  19
TORSDOF 6
