REMARK  Name = ZINCtV00000L6kIH.0
REMARK                            x       y       z     vdW  Elec       q    Type
REMARK                         _______ _______ _______ _____ _____    ______ ____
ROOT
ATOM      1  C   LIG    1       -4.344   0.612   0.215  0.00  0.00    +0.130 A 
ATOM      2  C   LIG    1       -5.243   0.995  -0.770  0.00  0.00    -0.050 A 
ATOM      3  C   LIG    1       -5.033   2.145  -1.510  0.00  0.00    +0.040 A 
ATOM      4  C   LIG    1       -3.915   2.926  -1.281  0.00  0.00    +0.060 A 
ATOM      5  C   LIG    1       -3.010   2.545  -0.301  0.00  0.00    -0.030 A 
ATOM      6  C   LIG    1       -1.772   3.367  -0.036  0.00  0.00    -0.080 A 
ATOM      7  C   LIG    1       -1.647   4.650  -0.579  0.00  0.00    +0.050 A 
ATOM      8  S   LIG    1       -0.207   5.440  -0.100  0.00  0.00    +0.120 S 
ATOM      9  S   LIG    1        0.513   3.880   1.051  0.00  0.00    +0.100 S 
ATOM     10  S   LIG    1       -2.814   5.356  -1.613  0.00  0.00    -0.320 S 
ATOM     11  C   LIG    1       -0.801   2.818   0.765  0.00  0.00    -0.080 A 
ATOM     12  C   LIG    1       -0.898   1.411   1.333  0.00  0.00    +0.240 C 
ATOM     13  C   LIG    1       -0.216   1.362   2.702  0.00  0.00    +0.080 C 
ATOM     14  C   LIG    1       -0.214   0.426   0.384  0.00  0.00    +0.080 C 
ATOM     15  N   LIG    1       -2.314   1.054   1.477  0.00  0.00    -0.540 N 
ATOM     16  C   LIG    1       -2.740   0.404   2.578  0.00  0.00    +0.510 C 
ATOM     17  O   LIG    1       -3.928   0.235   2.761  0.00  0.00    -0.440 OA
ATOM     18  C   LIG    1       -3.220   1.395   0.459  0.00  0.00    +0.130 A 
ENDROOT
BRANCH   1  19
ATOM     19  O   LIG    1       -4.559  -0.520   0.937  0.00  0.00    -0.280 OA
BRANCH  19  21
ATOM     20  C   LIG    1       -5.747  -2.557   1.467  0.00  0.00    +0.060 C 
ATOM     21  C   LIG    1       -5.660  -1.341   0.542  0.00  0.00    +0.170 C 
ENDBRANCH  19  21
ENDBRANCH   1  19
BRANCH  16  22
ATOM     22  C   LIG    1       -1.742  -0.111   3.582  0.00  0.00    +0.240 C 
BRANCH  22  23
ATOM     23  O   LIG    1       -2.416  -0.913   4.555  0.00  0.00    -0.300 OA
BRANCH  23  24
ATOM     24  C   LIG    1       -1.657  -1.443   5.550  0.00  0.00    +0.130 A 
ATOM     25  C   LIG    1       -0.314  -1.109   5.653  0.00  0.00    -0.090 A 
ATOM     26  C   LIG    1        0.454  -1.645   6.668  0.00  0.00    +0.050 A 
ATOM     27  C   LIG    1       -0.112  -2.523   7.575  0.00  0.00    -0.030 A 
ATOM     28  C   LIG    1       -1.448  -2.862   7.471  0.00  0.00    +0.050 A 
ATOM     29  C   LIG    1       -2.222  -2.324   6.460  0.00  0.00    -0.020 A 
ENDBRANCH  23  24
ENDBRANCH  22  23
ENDBRANCH  16  22
TORSDOF 5
