REMARK  Name = ZINCpk000000mRPd.0
REMARK                            x       y       z     vdW  Elec       q    Type
REMARK                         _______ _______ _______ _____ _____    ______ ____
ROOT
ATOM      1  C   LIG    1       -1.925   3.083  -8.038  0.00  0.00    +0.090 C 
ATOM      2  C   LIG    1       -2.305   3.621  -6.682  0.00  0.00    +0.510 C 
ATOM      3  N   LIG    1       -1.603   3.256  -5.591  0.00  0.00    -0.620 N 
ATOM      4  C   LIG    1       -0.404   2.417  -5.720  0.00  0.00    +0.270 C 
ATOM      5  C   LIG    1       -0.576   1.176  -4.836  0.00  0.00    +0.290 C 
ATOM      6  N   LIG    1       -0.997   1.608  -3.496  0.00  0.00    -0.630 N 
ATOM      7  C   LIG    1       -2.200   2.442  -3.367  0.00  0.00    +0.270 C 
ATOM      8  C   LIG    1       -0.296   1.242  -2.405  0.00  0.00    +0.710 C 
ATOM      9  N   LIG    1       -0.750   1.555  -1.176  0.00  0.00    -0.740 N 
ATOM     10  H   LIG    1       -1.542   2.106  -1.077  0.00  0.00    +0.400 HD
ATOM     11  O   LIG    1        0.747   0.628  -2.530  0.00  0.00    -0.580 OA
ATOM     12  C   LIG    1       -2.025   3.688  -4.251  0.00  0.00    +0.280 C 
ATOM     13  O   LIG    1       -3.243   4.383  -6.573  0.00  0.00    -0.540 OA
ENDROOT
BRANCH   9  14
ATOM     14  C   LIG    1       -0.047   1.063   0.012  0.00  0.00    +0.340 C 
BRANCH  14  15
ATOM     15  C   LIG    1       -0.753   1.551   1.251  0.00  0.00    -0.040 A 
ATOM     16  C   LIG    1       -1.766   0.802   1.833  0.00  0.00    -0.040 A 
ATOM     17  C   LIG    1       -2.393   1.276   2.968  0.00  0.00    +0.290 A 
ATOM     18  N   LIG    1       -2.039   2.429   3.503  0.00  0.00    -0.510 NA
ATOM     19  C   LIG    1       -1.078   3.173   2.978  0.00  0.00    +0.310 A 
ATOM     20  C   LIG    1       -0.401   2.754   1.838  0.00  0.00    -0.030 A 
BRANCH  19  21
ATOM     21  N   LIG    1       -0.738   4.381   3.576  0.00  0.00    -0.480 N 
ATOM     22  C   LIG    1        0.692   4.421   3.906  0.00  0.00    +0.190 C 
ATOM     23  C   LIG    1        1.059   5.814   4.426  0.00  0.00    +0.020 C 
ATOM     24  C   LIG    1        0.220   6.126   5.668  0.00  0.00    +0.000 C 
ATOM     25  C   LIG    1       -1.265   6.031   5.309  0.00  0.00    +0.020 C 
ATOM     26  C   LIG    1       -1.564   4.632   4.764  0.00  0.00    +0.210 C 
ENDBRANCH  19  21
ENDBRANCH  14  15
ENDBRANCH   9  14
TORSDOF 3
