REMARK  Name = ZINCrH000004uvg1.0
REMARK                            x       y       z     vdW  Elec       q    Type
REMARK                         _______ _______ _______ _____ _____    ______ ____
ROOT
ATOM      1  O   LIG    1       -3.058  -0.257  -4.842  0.00  0.00    -0.580 OA
ATOM      2  C   LIG    1       -3.082   0.926  -4.561  0.00  0.00    +0.710 C 
ATOM      3  N   LIG    1       -4.090   1.704  -5.004  0.00  0.00    -0.730 N 
ATOM      4  H   LIG    1       -4.109   2.647  -4.779  0.00  0.00    +0.400 HD
ATOM      5  N   LIG    1       -2.101   1.459  -3.806  0.00  0.00    -0.740 N 
ATOM      6  H   LIG    1       -2.120   2.403  -3.581  0.00  0.00    +0.400 HD
ENDROOT
BRANCH   3   7
ATOM      7  C   LIG    1       -5.156   1.124  -5.824  0.00  0.00    +0.270 C 
ATOM      8  C   LIG    1       -6.438   1.984  -5.732  0.00  0.00    +0.070 C 
ATOM      9  C   LIG    1       -6.988   1.882  -7.174  0.00  0.00    +0.280 C 
ATOM     10  N   LIG    1       -5.822   1.602  -8.020  0.00  0.00    -0.560 N 
ATOM     11  C   LIG    1       -4.781   1.170  -7.289  0.00  0.00    +0.500 C 
ATOM     12  O   LIG    1       -3.697   0.862  -7.739  0.00  0.00    -0.480 OA
BRANCH  10  13
ATOM     13  C   LIG    1       -5.799   1.764  -9.411  0.00  0.00    +0.170 A 
ATOM     14  C   LIG    1       -4.612   1.593 -10.111  0.00  0.00    +0.050 A 
ATOM     15  C   LIG    1       -4.591   1.749 -11.483  0.00  0.00    +0.040 A 
ATOM     16  C   LIG    1       -5.750   2.085 -12.160  0.00  0.00    +0.080 A 
ATOM     17  C   LIG    1       -6.936   2.261 -11.464  0.00  0.00    -0.050 A 
ATOM     18 CL   LIG    1       -8.388   2.683 -12.316  0.00  0.00    -0.040 Cl
ATOM     19  F   LIG    1       -5.726   2.242 -13.502  0.00  0.00    -0.130 F 
ATOM     20  C   LIG    1       -6.961   2.102 -10.091  0.00  0.00    +0.030 A 
ENDBRANCH  10  13
ENDBRANCH   3   7
BRANCH   5  21
ATOM     21  C   LIG    1       -1.006   0.614  -3.324  0.00  0.00    +0.280 C 
BRANCH  21  22
ATOM     22  C   LIG    1       -0.035   1.459  -2.497  0.00  0.00    -0.010 C 
ATOM     23  C   LIG    1       -0.743   1.962  -1.237  0.00  0.00    +0.020 C 
ATOM     24  C   LIG    1       -0.007   1.445   0.001  0.00  0.00    -0.020 C 
ATOM     25  C   LIG    1        1.435   1.954  -0.012  0.00  0.00    +0.010 C 
ATOM     26  C   LIG    1        2.142   1.452  -1.272  0.00  0.00    +0.010 C 
ATOM     27  C   LIG    1       -0.008  -0.085  -0.008  0.00  0.00    +0.010 C 
ATOM     28  C   LIG    1        0.700  -0.588  -1.268  0.00  0.00    +0.010 C 
ATOM     29  C   LIG    1        1.171   0.607  -2.099  0.00  0.00    -0.010 C 
ENDBRANCH  21  22
ENDBRANCH   5  21
TORSDOF 4
