REMARK  Name = ZINCpk00000y6ySL.0
REMARK                            x       y       z     vdW  Elec       q    Type
REMARK                         _______ _______ _______ _____ _____    ______ ____
ROOT
ATOM      1  C   LIG    1        0.435   3.138  -3.301  0.00  0.00    +0.580 C 
ATOM      2  N   LIG    1        0.152   1.998  -2.639  0.00  0.00    -0.620 N 
ATOM      3  C   LIG    1        0.952   0.761  -2.679  0.00  0.00    +0.270 C 
ATOM      4  C   LIG    1        0.610   0.025  -1.359  0.00  0.00    +0.090 C 
ATOM      5  C   LIG    1       -0.900   0.347  -1.205  0.00  0.00    +0.210 C 
ATOM      6  C   LIG    1       -1.005   1.784  -1.758  0.00  0.00    +0.260 C 
ATOM      7  O   LIG    1       -0.347   4.069  -3.271  0.00  0.00    -0.510 OA
ENDROOT
BRANCH   1  13
ATOM      8  C   LIG    1        5.392   2.667  -3.539  0.00  0.00    +0.100 C 
ATOM      9  C   LIG    1        4.080   3.030  -4.185  0.00  0.00    -0.110 A 
ATOM     10  C   LIG    1        4.058   3.476  -5.497  0.00  0.00    +0.060 A 
ATOM     11  C   LIG    1        2.863   3.813  -6.100  0.00  0.00    -0.030 A 
ATOM     12  C   LIG    1        1.671   3.701  -5.394  0.00  0.00    +0.150 A 
ATOM     13  C   LIG    1        1.691   3.255  -4.064  0.00  0.00    -0.140 A 
ATOM     14  C   LIG    1        2.909   2.918  -3.467  0.00  0.00    +0.060 A 
BRANCH  12  15
ATOM     15  N   LIG    1        0.467   4.033  -6.001  0.00  0.00    -0.460 N 
ATOM     16  C   LIG    1        0.684   4.498  -7.395  0.00  0.00    +0.180 C 
ATOM     17  C   LIG    1       -0.707   4.310  -8.052  0.00  0.00    +0.040 C 
ATOM     18  C   LIG    1       -1.217   2.999  -7.412  0.00  0.00    +0.020 C 
ATOM     19  C   LIG    1       -0.418   2.853  -6.103  0.00  0.00    +0.180 C 
ENDBRANCH  12  15
ENDBRANCH   1  13
BRANCH   5  20
ATOM     20  C   LIG    1       -1.310   0.298   0.245  0.00  0.00    -0.020 A 
ATOM     21  N   LIG    1       -0.533   0.073   1.280  0.00  0.00    -0.260 NA
ATOM     22  N   LIG    1       -1.248   0.110   2.348  0.00  0.00    -0.240 N 
ATOM     23  H   LIG    1       -0.905  -0.026   3.245  0.00  0.00    +0.470 HD
ATOM     24  N   LIG    1       -2.478   0.353   2.065  0.00  0.00    -0.280 NA
ATOM     25  C   LIG    1       -2.592   0.489   0.763  0.00  0.00    +0.190 A 
ENDBRANCH   5  20
BRANCH   5  26
ATOM     26  O   LIG    1       -1.691  -0.553  -1.983  0.00  0.00    -0.530 OA
ATOM     27  H   LIG    1       -2.643  -0.394  -1.921  0.00  0.00    +0.380 HD
ENDBRANCH   5  26
TORSDOF 4
