REMARK  Name = ZINCpk00000y6ySL.1
REMARK                            x       y       z     vdW  Elec       q    Type
REMARK                         _______ _______ _______ _____ _____    ______ ____
ROOT
ATOM      1  C   LIG    1       -2.872   0.071  -2.326  0.00  0.00    +0.580 C 
ATOM      2  N   LIG    1       -3.932   0.397  -3.091  0.00  0.00    -0.620 N 
ATOM      3  C   LIG    1       -3.891   0.695  -4.535  0.00  0.00    +0.270 C 
ATOM      4  C   LIG    1       -5.324   0.389  -5.042  0.00  0.00    +0.090 C 
ATOM      5  C   LIG    1       -6.186   0.882  -3.850  0.00  0.00    +0.210 C 
ATOM      6  C   LIG    1       -5.321   0.520  -2.624  0.00  0.00    +0.260 C 
ATOM      7  O   LIG    1       -3.033  -0.225  -1.158  0.00  0.00    -0.510 OA
ENDROOT
BRANCH   1  13
ATOM      8  C   LIG    1        0.318  -1.444  -5.845  0.00  0.00    +0.100 C 
ATOM      9  C   LIG    1        0.026  -0.651  -4.598  0.00  0.00    -0.110 A 
ATOM     10  C   LIG    1        1.038   0.077  -3.992  0.00  0.00    +0.060 A 
ATOM     11  C   LIG    1        0.784   0.808  -2.849  0.00  0.00    -0.030 A 
ATOM     12  C   LIG    1       -0.490   0.817  -2.297  0.00  0.00    +0.140 A 
ATOM     13  C   LIG    1       -1.516   0.075  -2.905  0.00  0.00    -0.140 A 
ATOM     14  C   LIG    1       -1.244  -0.655  -4.064  0.00  0.00    +0.060 A 
BRANCH  12  15
ATOM     15  N   LIG    1       -0.747   1.551  -1.146  0.00  0.00    -0.460 N 
ATOM     16  C   LIG    1       -1.707   2.651  -1.420  0.00  0.00    +0.170 C 
ATOM     17  C   LIG    1       -1.485   3.659  -0.272  0.00  0.00    +0.030 C 
ATOM     18  C   LIG    1       -0.044   3.390   0.220  0.00  0.00    +0.030 C 
ATOM     19  C   LIG    1        0.478   2.244  -0.672  0.00  0.00    +0.170 C 
ENDBRANCH  12  15
ENDBRANCH   1  13
BRANCH   5  20
ATOM     20  C   LIG    1       -7.504   0.153  -3.806  0.00  0.00    -0.040 A 
ATOM     21  C   LIG    1       -8.497   0.329  -2.903  0.00  0.00    +0.170 A 
ATOM     22  N   LIG    1       -9.480  -0.533  -3.252  0.00  0.00    -0.390 N 
ATOM     23  H   LIG    1      -10.328  -0.644  -2.794  0.00  0.00    +0.450 HD
ATOM     24  N   LIG    1       -9.097  -1.181  -4.296  0.00  0.00    -0.070 NA
ATOM     25  N   LIG    1       -7.925  -0.791  -4.655  0.00  0.00    -0.240 NA
ENDBRANCH   5  20
BRANCH   5  26
ATOM     26  O   LIG    1       -6.390   2.295  -3.925  0.00  0.00    -0.530 OA
ATOM     27  H   LIG    1       -6.857   2.666  -3.163  0.00  0.00    +0.380 HD
ENDBRANCH   5  26
TORSDOF 4
