REMARK  Name = ZINCrD000000fU6Z.0
REMARK                            x       y       z     vdW  Elec       q    Type
REMARK                         _______ _______ _______ _____ _____    ______ ____
ROOT
ATOM      1  C   LIG    1       -2.206   1.108  -1.183  0.00  0.00    +0.000 C 
ATOM      2  C   LIG    1       -0.755   1.594  -1.231  0.00  0.00    +0.000 C 
ATOM      3  C   LIG    1       -0.013   1.086   0.008  0.00  0.00    +0.030 C 
ATOM      4  C   LIG    1       -0.731   1.580   1.266  0.00  0.00    +0.180 C 
ATOM      5  N   LIG    1       -2.115   1.088   1.265  0.00  0.00    -0.530 NA
ATOM      6  C   LIG    1       -2.861   1.601   0.109  0.00  0.00    +0.180 C 
ENDROOT
BRANCH   1   7
ATOM      7  C   LIG    1       -2.971   1.661  -2.387  0.00  0.00    +0.260 C 
BRANCH   7   9
ATOM      8  C   LIG    1       -2.934   1.444  -4.813  0.00  0.00    +0.520 C 
ATOM      9  N   LIG    1       -2.415   1.097  -3.619  0.00  0.00    -0.730 N 
ATOM     10  H   LIG    1       -1.672   0.474  -3.576  0.00  0.00    +0.400 HD
ATOM     11  O   LIG    1       -3.862   2.223  -4.868  0.00  0.00    -0.540 OA
BRANCH   8  13
ATOM     12  C   LIG    1       -3.127   1.417  -7.285  0.00  0.00    +0.050 C 
ATOM     13  C   LIG    1       -2.362   0.864  -6.081  0.00  0.00    -0.090 C 
ATOM     14  C   LIG    1       -2.494  -0.660  -6.050  0.00  0.00    +0.050 C 
ATOM     15  C   LIG    1       -0.885   1.246  -6.196  0.00  0.00    +0.050 C 
ENDBRANCH   8  13
ENDBRANCH   7   9
ENDBRANCH   1   7
BRANCH   5  16
ATOM     16  C   LIG    1       -2.794   1.427   2.523  0.00  0.00    +0.300 C 
BRANCH  16  17
ATOM     17  C   LIG    1       -1.890   1.106   3.685  0.00  0.00    +0.210 A 
ATOM     18  N   LIG    1       -1.028   1.923   4.226  0.00  0.00    -0.490 NA
ATOM     19  C   LIG    1       -0.400   1.300   5.234  0.00  0.00    +0.140 A 
ATOM     20  C   LIG    1       -0.891   0.049   5.321  0.00  0.00    +0.120 A 
ATOM     21  N   LIG    1       -1.840  -0.073   4.341  0.00  0.00    -0.440 N 
BRANCH  21  22
ATOM     22  C   LIG    1       -2.648  -1.262   4.057  0.00  0.00    +0.350 C 
BRANCH  22  23
ATOM     23  C   LIG    1       -1.989  -2.068   2.967  0.00  0.00    -0.120 A 
ATOM     24  C   LIG    1       -2.304  -1.827   1.643  0.00  0.00    +0.070 A 
ATOM     25  C   LIG    1       -1.696  -2.564   0.643  0.00  0.00    +0.000 A 
ATOM     26  C   LIG    1       -0.781  -3.547   0.969  0.00  0.00    +0.010 A 
ATOM     27  C   LIG    1       -0.470  -3.791   2.293  0.00  0.00    -0.010 A 
ATOM     28  C   LIG    1       -1.074  -3.052   3.293  0.00  0.00    +0.020 A 
ENDBRANCH  22  23
ENDBRANCH  21  22
ENDBRANCH  16  17
ENDBRANCH   5  16
TORSDOF 7
