REMARK  Name = ZINCkj00000y7Oqc.1
REMARK                            x       y       z     vdW  Elec       q    Type
REMARK                         _______ _______ _______ _____ _____    ______ ____
ROOT
ATOM      1  C   LIG    1       -0.013   1.086   0.008  0.00  0.00    +0.170 C 
ATOM      2  C   LIG    1       -0.641   1.627  -1.301  0.00  0.00    +0.050 C 
ATOM      3  C   LIG    1        0.535   1.540  -2.305  0.00  0.00    +0.060 C 
ATOM      4  C   LIG    1        1.773   1.934  -1.473  0.00  0.00    +0.040 C 
ATOM      5  C   LIG    1        1.425   1.645  -0.003  0.00  0.00    +0.250 C 
ENDROOT
BRANCH   1   9
ATOM      6  C   LIG    1       -1.232   0.845   3.409  0.00  0.00    +0.170 C 
ATOM      7  C   LIG    1       -2.312   0.244   2.470  0.00  0.00    +0.060 C 
ATOM      8  C   LIG    1       -2.122   1.045   1.165  0.00  0.00    +0.270 C 
ATOM      9  N   LIG    1       -0.749   1.582   1.178  0.00  0.00    -0.380 N 
ATOM     10  H   LIG    1       -0.779   2.591   1.159  0.00  0.00    +0.420 HD
ATOM     11  C   LIG    1       -0.079   1.131   2.416  0.00  0.00    +0.270 C 
BRANCH   6  13
ATOM     12  C   LIG    1       -1.585  -0.028   5.614  0.00  0.00    +0.230 C 
ATOM     13  O   LIG    1       -0.832  -0.103   4.401  0.00  0.00    -0.360 OA
ENDBRANCH   6  13
ENDBRANCH   1   9
BRANCH   5  14
ATOM     14  N   LIG    1        1.488   2.882   0.780  0.00  0.00    -0.750 N 
ATOM     15  H   LIG    1        0.690   3.420   0.902  0.00  0.00    +0.380 HD
ATOM     16  C   LIG    1        2.654   3.272   1.331  0.00  0.00    +0.600 C 
ATOM     17  O   LIG    1        3.655   2.597   1.178  0.00  0.00    -0.510 OA
BRANCH  16  18
ATOM     18  C   LIG    1        2.718   4.515   2.118  0.00  0.00    -0.240 A 
ATOM     19  C   LIG    1        1.689   5.380   2.373  0.00  0.00    +0.200 A 
ATOM     20  N   LIG    1        2.160   6.389   3.131  0.00  0.00    -0.540 N 
ATOM     21  H   LIG    1        1.630   7.135   3.452  0.00  0.00    +0.420 HD
ATOM     22  C   LIG    1        3.491   6.215   3.376  0.00  0.00    +0.170 A 
ATOM     23  C   LIG    1        3.898   5.080   2.781  0.00  0.00    +0.010 A 
ENDBRANCH  16  18
ENDBRANCH   5  14
TORSDOF 4
