REMARK  Name = ZINCkj00000y7Oqc.0
REMARK                            x       y       z     vdW  Elec       q    Type
REMARK                         _______ _______ _______ _____ _____    ______ ____
ROOT
ATOM      1  C   LIG    1        4.920   4.970   0.561  0.00  0.00    +0.170 C 
ATOM      2  C   LIG    1        5.828   4.965  -0.694  0.00  0.00    +0.050 C 
ATOM      3  C   LIG    1        5.018   5.813  -1.705  0.00  0.00    +0.060 C 
ATOM      4  C   LIG    1        3.551   5.411  -1.447  0.00  0.00    +0.040 C 
ATOM      5  C   LIG    1        3.489   4.875  -0.006  0.00  0.00    +0.250 C 
ENDROOT
BRANCH   1   9
ATOM      6  C   LIG    1        6.477   3.928   3.485  0.00  0.00    +0.170 C 
ATOM      7  C   LIG    1        5.105   3.252   3.744  0.00  0.00    +0.060 C 
ATOM      8  C   LIG    1        4.269   3.775   2.550  0.00  0.00    +0.270 C 
ATOM      9  N   LIG    1        5.214   3.810   1.413  0.00  0.00    -0.380 N 
ATOM     10  H   LIG    1        5.125   2.961   0.875  0.00  0.00    +0.420 HD
ATOM     11  C   LIG    1        6.584   3.919   1.946  0.00  0.00    +0.270 C 
BRANCH   6  13
ATOM     12  C   LIG    1        7.939   3.629   5.361  0.00  0.00    +0.230 C 
ATOM     13  O   LIG    1        7.537   3.168   4.070  0.00  0.00    -0.370 OA
ENDBRANCH   6  13
ENDBRANCH   1   9
BRANCH   5  14
ATOM     14  N   LIG    1        3.042   3.480  -0.009  0.00  0.00    -0.750 N 
ATOM     15  H   LIG    1        3.694   2.761  -0.018  0.00  0.00    +0.390 HD
ATOM     16  C   LIG    1        1.725   3.194   0.002  0.00  0.00    +0.600 C 
ATOM     17  O   LIG    1        0.907   4.095   0.014  0.00  0.00    -0.520 OA
BRANCH  16  18
ATOM     18  C   LIG    1        1.276   1.792  -0.001  0.00  0.00    -0.260 A 
ATOM     19  C   LIG    1       -0.016   1.342   0.009  0.00  0.00    +0.280 A 
ATOM     20  N   LIG    1        0.002  -0.004   0.002  0.00  0.00    -0.550 N 
ATOM     21  H   LIG    1       -0.786  -0.569   0.006  0.00  0.00    +0.430 HD
ATOM     22  C   LIG    1        1.288  -0.460  -0.013  0.00  0.00    +0.170 A 
ATOM     23  C   LIG    1        2.123   0.594  -0.015  0.00  0.00    -0.040 A 
ENDBRANCH  16  18
ENDBRANCH   5  14
TORSDOF 4
