REMARK  Name = ZINCnE000001CFOu.1
REMARK                            x       y       z     vdW  Elec       q    Type
REMARK                         _______ _______ _______ _____ _____    ______ ____
ROOT
ATOM      1  C   LIG    1        2.447   1.337  -0.014  0.00  0.00    +0.610 C 
ATOM      2  N   LIG    1        3.499   2.180  -0.019  0.00  0.00    -0.560 N 
ATOM      3  C   LIG    1        4.860   1.662  -0.035  0.00  0.00    +0.250 C 
ATOM      4  C   LIG    1        5.782   2.529  -0.885  0.00  0.00    +0.020 C 
ATOM      5  C   LIG    1        5.483   2.123  -2.316  0.00  0.00    +0.010 C 
ATOM      6  C   LIG    1        4.035   2.465  -2.686  0.00  0.00    +0.010 C 
ATOM      7  C   LIG    1        3.792   3.958  -2.537  0.00  0.00    +0.070 C 
ATOM      8  C   LIG    1        3.426   4.368  -1.128  0.00  0.00    -0.070 A 
ATOM      9  C   LIG    1        3.196   5.741  -0.983  0.00  0.00    -0.010 A 
ATOM     10  C   LIG    1        2.854   6.289   0.231  0.00  0.00    +0.010 A 
ATOM     11  C   LIG    1        2.731   5.482   1.347  0.00  0.00    +0.010 A 
ATOM     12  C   LIG    1        2.953   4.128   1.222  0.00  0.00    +0.030 A 
ATOM     13  C   LIG    1        3.299   3.572  -0.016  0.00  0.00    +0.180 A 
ATOM     14  O   LIG    1        2.631   0.135  -0.021  0.00  0.00    -0.550 OA
ENDROOT
BRANCH   1  17
ATOM     15  C   LIG    1       -0.437   3.507   0.025  0.00  0.00    +0.360 A 
ATOM     16  N   LIG    1        0.817   3.183   0.011  0.00  0.00    -0.510 NA
ATOM     17  C   LIG    1        1.076   1.872   0.002  0.00  0.00    +0.030 A 
ATOM     18  C   LIG    1       -0.013   1.076   0.008  0.00  0.00    -0.150 A 
ATOM     19  S   LIG    1       -1.419   2.047   0.019  0.00  0.00    +0.040 S 
BRANCH  15  22
ATOM     20  C   LIG    1       -2.795   6.430   0.062  0.00  0.00    +0.070 C 
ATOM     21  C   LIG    1       -2.260   5.021   0.050  0.00  0.00    +0.440 C 
ATOM     22  N   LIG    1       -0.930   4.806   0.036  0.00  0.00    -0.650 NA
ATOM     23  O   LIG    1       -3.027   4.082   0.053  0.00  0.00    -0.620 OA
ENDBRANCH  15  22
ENDBRANCH   1  17
TORSDOF 2
