REMARK  Name = ZINC5c0000003ZsF.0
REMARK                            x       y       z     vdW  Elec       q    Type
REMARK                         _______ _______ _______ _____ _____    ______ ____
ROOT
ATOM      1  C   LIG    1       -0.013   1.086   0.008  0.00  0.00    +0.120 C 
ATOM      2  C   LIG    1        0.540   1.800   1.244  0.00  0.00    +0.200 C 
ATOM      3  O   LIG    1        1.242   1.769  -0.000  0.00  0.00    -0.350 OA
ENDROOT
BRANCH   1   5
ATOM      4 CL   LIG    1       -1.719   0.665  -2.075  0.00  0.00    -0.170 Cl
ATOM      5  C   LIG    1       -1.184   1.738  -0.729  0.00  0.00    +0.180 C 
ENDBRANCH   1   5
TORSDOF 1
