REMARK  Name = ZINCpe000000SoAi.0
REMARK                            x       y       z     vdW  Elec       q    Type
REMARK                         _______ _______ _______ _____ _____    ______ ____
ROOT
ATOM      1  N   LIG    1       -3.608   1.789   0.029  0.00  0.00    -0.560 N 
ATOM      2  C   LIG    1       -4.185   2.260   1.141  0.00  0.00    +0.710 C 
ATOM      3  N   LIG    1       -5.196   3.107   0.877  0.00  0.00    -0.710 N 
ATOM      4  H   LIG    1       -5.751   3.566   1.526  0.00  0.00    +0.440 HD
ATOM      5  C   LIG    1       -5.299   3.195  -0.590  0.00  0.00    +0.170 C 
ATOM      6  C   LIG    1       -6.665   2.695  -1.064  0.00  0.00    +0.100 C 
ATOM      7  O   LIG    1       -3.832   1.958   2.264  0.00  0.00    -0.530 OA
ATOM      8  C   LIG    1       -4.196   2.280  -1.081  0.00  0.00    +0.540 C 
ATOM      9  O   LIG    1       -3.903   2.038  -2.232  0.00  0.00    -0.460 OA
ENDROOT
BRANCH   5  10
ATOM     10  C   LIG    1       -5.062   4.609  -1.056  0.00  0.00    -0.120 A 
ATOM     11  C   LIG    1       -4.395   4.840  -2.245  0.00  0.00    +0.090 A 
ATOM     12  C   LIG    1       -4.182   6.134  -2.678  0.00  0.00    -0.040 A 
ATOM     13  C   LIG    1       -4.627   7.203  -1.913  0.00  0.00    +0.120 A 
ATOM     14  C   LIG    1       -5.292   6.968  -0.718  0.00  0.00    +0.010 A 
ATOM     15  C   LIG    1       -5.508   5.671  -0.293  0.00  0.00    +0.070 A 
BRANCH  13  16
ATOM     16  O   LIG    1       -4.413   8.477  -2.334  0.00  0.00    -0.320 OA
BRANCH  16  17
ATOM     17  C   LIG    1       -3.722   8.643  -3.574  0.00  0.00    +0.590 C 
ATOM     18  F   LIG    1       -4.448   8.027  -4.598  0.00  0.00    -0.200 F 
ATOM     19  F   LIG    1       -2.454   8.059  -3.483  0.00  0.00    -0.200 F 
ENDBRANCH  16  17
ENDBRANCH  13  16
ENDBRANCH   5  10
BRANCH   1  20
ATOM     20  C   LIG    1       -2.482   0.853   0.018  0.00  0.00    +0.360 C 
BRANCH  20  23
ATOM     21  N   LIG    1       -0.011   0.966   0.007  0.00  0.00    -0.720 N 
ATOM     22  H   LIG    1        0.002  -0.004   0.002  0.00  0.00    +0.410 HD
ATOM     23  C   LIG    1       -1.187   1.624   0.017  0.00  0.00    +0.500 C 
ATOM     24  O   LIG    1       -1.204   2.837   0.023  0.00  0.00    -0.520 OA
BRANCH  21  25
ATOM     25  C   LIG    1        1.248   1.716  -0.001  0.00  0.00    +0.410 C 
BRANCH  25  27
ATOM     26  C   LIG    1        3.282   0.024  -0.029  0.00  0.00    +0.060 C 
ATOM     27  C   LIG    1        2.379   0.774  -0.017  0.00  0.00    -0.220 C 
ENDBRANCH  25  27
ENDBRANCH  21  25
ENDBRANCH  20  23
ENDBRANCH   1  20
TORSDOF 7
