REMARK  Name = ZINCpk000000n23t.0
REMARK                            x       y       z     vdW  Elec       q    Type
REMARK                         _______ _______ _______ _____ _____    ______ ____
ROOT
ATOM      1  C   LIG    1       -0.722  -0.701  -0.896  0.00  0.00    +0.520 C 
ATOM      2  N   LIG    1        0.002  -0.004   0.002  0.00  0.00    -0.620 N 
ATOM      3  C   LIG    1       -0.018   1.467   0.010  0.00  0.00    +0.320 C 
ATOM      4  C   LIG    1        1.428   1.973  -0.001  0.00  0.00    +0.200 C 
ATOM      5  N   LIG    1        2.168   1.356   1.108  0.00  0.00    -0.470 N 
ATOM      6  C   LIG    1        2.246  -0.103   0.950  0.00  0.00    +0.210 C 
ATOM      7  C   LIG    1        0.833  -0.694   1.000  0.00  0.00    +0.290 C 
ATOM      8  O   LIG    1       -1.403  -0.115  -1.712  0.00  0.00    -0.510 OA
ENDROOT
BRANCH   5   9
ATOM      9  C   LIG    1        3.437   1.912   1.230  0.00  0.00    +0.260 A 
ATOM     10  C   LIG    1        3.584   3.288   1.390  0.00  0.00    +0.210 A 
ATOM     11  N   LIG    1        4.789   3.811   1.507  0.00  0.00    -0.420 NA
ATOM     12  C   LIG    1        5.857   3.031   1.472  0.00  0.00    +0.190 A 
ATOM     13  C   LIG    1        5.715   1.665   1.315  0.00  0.00    +0.250 A 
ATOM     14  N   LIG    1        4.510   1.132   1.202  0.00  0.00    -0.480 NA
ENDBRANCH   5   9
BRANCH   1  15
ATOM     15  C   LIG    1       -0.687  -2.207  -0.886  0.00  0.00    +0.230 C 
BRANCH  15  16
ATOM     16  O   LIG    1       -1.531  -2.710  -1.925  0.00  0.00    -0.290 OA
BRANCH  16  21
ATOM     17  C   LIG    1       -2.491  -6.004  -3.168  0.00  0.00    -0.130 A 
ATOM     18  C   LIG    1       -1.763  -6.824  -2.300  0.00  0.00    +0.030 A 
ATOM     19  C   LIG    1       -0.971  -6.259  -1.322  0.00  0.00    +0.050 A 
ATOM     20  C   LIG    1       -0.889  -4.884  -1.200  0.00  0.00    -0.050 A 
ATOM     21  C   LIG    1       -1.612  -4.061  -2.054  0.00  0.00    +0.120 A 
ATOM     22  C   LIG    1       -2.411  -4.614  -3.039  0.00  0.00    +0.050 A 
BRANCH  17  24
ATOM     23  C   LIG    1       -3.423  -8.100  -4.349  0.00  0.00    +0.090 C 
ATOM     24  C   LIG    1       -3.339  -6.601  -4.213  0.00  0.00    +0.390 C 
ATOM     25  O   LIG    1       -3.969  -5.888  -4.963  0.00  0.00    -0.450 OA
ENDBRANCH  17  24
ENDBRANCH  16  21
ENDBRANCH  15  16
ENDBRANCH   1  15
TORSDOF 5
