REMARK  Name = ZINCpe000000Ug6K.0
REMARK                            x       y       z     vdW  Elec       q    Type
REMARK                         _______ _______ _______ _____ _____    ______ ____
ROOT
ATOM      1  N   LIG    1        3.656  -1.667  -1.709  0.00  0.00    -0.720 N 
ATOM      2  H   LIG    1        3.883  -2.261  -0.978  0.00  0.00    +0.410 HD
ATOM      3  C   LIG    1        3.194  -0.427  -1.452  0.00  0.00    +0.500 C 
ATOM      4  O   LIG    1        2.910   0.317  -2.367  0.00  0.00    -0.510 OA
ENDROOT
BRANCH   1  11
ATOM      5  C   LIG    1        5.802  -4.571  -5.090  0.00  0.00    +0.190 A 
ATOM      6  N   LIG    1        5.350  -4.873  -6.280  0.00  0.00    -0.290 NA
ATOM      7  N   LIG    1        4.187  -4.345  -6.451  0.00  0.00    -0.280 NA
ATOM      8  C   LIG    1        3.848  -3.688  -5.383  0.00  0.00    +0.170 A 
ATOM      9  C   LIG    1        2.582  -2.913  -5.119  0.00  0.00    +0.180 C 
ATOM     10  C   LIG    1        2.480  -2.665  -3.608  0.00  0.00    +0.030 C 
ATOM     11  C   LIG    1        3.814  -2.116  -3.095  0.00  0.00    +0.240 C 
ATOM     12  C   LIG    1        4.880  -3.216  -3.156  0.00  0.00    +0.300 C 
ATOM     13  N   LIG    1        4.863  -3.813  -4.491  0.00  0.00    -0.470 N 
BRANCH   5  15
ATOM     14  C   LIG    1        6.951  -6.324  -3.764  0.00  0.00    +0.040 C 
ATOM     15  C   LIG    1        7.123  -4.993  -4.499  0.00  0.00    +0.140 C 
ENDBRANCH   5  15
ENDBRANCH   1  11
BRANCH   3  16
ATOM     16  C   LIG    1        3.032   0.036  -0.027  0.00  0.00    +0.380 C 
BRANCH  16  17
ATOM     17  N   LIG    1        2.519   1.408  -0.014  0.00  0.00    -0.530 N 
ATOM     18  C   LIG    1        3.258   2.535  -0.015  0.00  0.00    +0.640 A 
ATOM     19  O   LIG    1        2.445   3.603  -0.002  0.00  0.00    -0.230 OA
ATOM     20  C   LIG    1        1.157   3.182   0.008  0.00  0.00    +0.040 A 
ATOM     21  C   LIG    1       -0.057   3.851   0.023  0.00  0.00    +0.060 A 
ATOM     22  C   LIG    1       -1.238   3.136   0.030  0.00  0.00    +0.030 A 
ATOM     23  C   LIG    1       -1.217   1.752   0.017  0.00  0.00    +0.040 A 
ATOM     24  C   LIG    1       -0.013   1.076   0.008  0.00  0.00    +0.030 A 
ATOM     25  O   LIG    1        4.473   2.578  -0.026  0.00  0.00    -0.480 OA
ATOM     26  C   LIG    1        1.177   1.787   0.000  0.00  0.00    +0.080 A 
ENDBRANCH  16  17
ENDBRANCH   3  16
TORSDOF 4
