REMARK  Name = ZINCrD00000F5Lib.2
REMARK                            x       y       z     vdW  Elec       q    Type
REMARK                         _______ _______ _______ _____ _____    ______ ____
ROOT
ATOM      1  C   LIG    1       -1.687   7.703   4.257  0.00  0.00    -0.000 A 
ATOM      2  C   LIG    1       -1.278   8.993   4.267  0.00  0.00    +0.150 A 
ATOM      3  N   LIG    1       -1.734   9.523   5.436  0.00  0.00    -0.250 N 
ATOM      4  N   LIG    1       -2.369   8.601   6.071  0.00  0.00    -0.070 NA
ATOM      5  N   LIG    1       -2.363   7.508   5.394  0.00  0.00    -0.240 NA
ENDROOT
BRANCH   3   6
ATOM      6  C   LIG    1       -1.544  10.843   5.871  0.00  0.00    +0.140 A 
ATOM      7  C   LIG    1       -0.831  11.738   5.085  0.00  0.00    +0.110 A 
ATOM      8  C   LIG    1       -0.650  13.039   5.514  0.00  0.00    +0.080 A 
ATOM      9  C   LIG    1       -1.169  13.446   6.730  0.00  0.00    +0.020 A 
ATOM     10  C   LIG    1       -1.876  12.554   7.517  0.00  0.00    -0.020 A 
ATOM     11 CL   LIG    1       -0.933  15.080   7.268  0.00  0.00    +0.010 Cl
ATOM     12  C   LIG    1       -2.064  11.254   7.090  0.00  0.00    +0.150 A 
BRANCH  10  13
ATOM     13  N   LIG    1       -2.431  12.994   8.817  0.00  0.00    +0.020 N 
ATOM     14  O   LIG    1       -2.265  14.140   9.193  0.00  0.00    -0.120 OA
ATOM     15  O   LIG    1       -3.053  12.209   9.510  0.00  0.00    -0.140 OA
ENDBRANCH  10  13
ENDBRANCH   3   6
BRANCH   1  16
ATOM     16  C   LIG    1       -1.434   6.686   3.173  0.00  0.00    +0.140 C 
BRANCH  16  17
ATOM     17  C   LIG    1       -0.760   5.453   3.778  0.00  0.00    +0.030 C 
BRANCH  17  18
ATOM     18  C   LIG    1       -0.504   4.421   2.678  0.00  0.00    +0.020 C 
BRANCH  18  19
ATOM     19  C   LIG    1        0.170   3.187   3.283  0.00  0.00    +0.160 C 
BRANCH  19  24
ATOM     20  C   LIG    1        3.035   1.545  -0.109  0.00  0.00    +0.080 C 
ATOM     21  C   LIG    1        1.609   1.350   0.409  0.00  0.00    +0.030 C 
ATOM     22  C   LIG    1        1.580   0.264   1.504  0.00  0.00    +0.060 C 
ATOM     23  C   LIG    1        1.066   0.982   2.770  0.00  0.00    +0.170 C 
ATOM     24  N   LIG    1        0.302   2.147   2.254  0.00  0.00    -0.510 NA
ATOM     25  C   LIG    1        1.110   2.634   1.106  0.00  0.00    +0.200 C 
BRANCH  21  26
ATOM     26  C   LIG    1        0.709   0.986  -0.697  0.00  0.00    +0.220 C 
ATOM     27  N   LIG    1        0.015   0.704  -1.551  0.00  0.00    -0.430 NA
ENDBRANCH  21  26
ENDBRANCH  19  24
ENDBRANCH  18  19
ENDBRANCH  17  18
ENDBRANCH  16  17
ENDBRANCH   1  16
TORSDOF 8
