REMARK  Name = ZINCrD00000476fx.0
REMARK                            x       y       z     vdW  Elec       q    Type
REMARK                         _______ _______ _______ _____ _____    ______ ____
ROOT
ATOM      1  C   LIG    1       -1.454   3.634  -0.001  0.00  0.00    +0.240 C 
ATOM      2  C   LIG    1       -0.562   3.129   1.138  0.00  0.00    +0.020 C 
ATOM      3  C   LIG    1       -0.594   1.599   1.165  0.00  0.00    +0.020 C 
ATOM      4  C   LIG    1       -0.048   1.052  -0.156  0.00  0.00    +0.010 C 
ATOM      5  C   LIG    1       -0.935   1.534  -1.309  0.00  0.00    +0.270 C 
ATOM      6  N   LIG    1       -1.026   2.999  -1.254  0.00  0.00    -0.610 N 
ATOM      7  C   LIG    1       -0.724   3.747  -2.334  0.00  0.00    +0.510 C 
ATOM      8  O   LIG    1       -0.908   4.945  -2.313  0.00  0.00    -0.520 OA
ENDROOT
BRANCH   1  14
ATOM      9  O   LIG    1        2.065   7.594  -0.720  0.00  0.00    -0.520 OA
ATOM     10  C   LIG    1        1.135   7.883   0.008  0.00  0.00    +0.650 C 
ATOM     11  N   LIG    1        0.195   6.963   0.299  0.00  0.00    -0.600 N 
ATOM     12  C   LIG    1       -0.976   7.177   1.161  0.00  0.00    +0.240 C 
ATOM     13  C   LIG    1       -1.779   5.859   1.180  0.00  0.00    +0.020 C 
ATOM     14  C   LIG    1       -1.319   5.153  -0.122  0.00  0.00    +0.030 C 
ATOM     15  C   LIG    1        0.171   5.574  -0.195  0.00  0.00    +0.270 C 
BRANCH  10  16
ATOM     16  C   LIG    1        1.039   9.203   0.556  0.00  0.00    -0.220 C 
ATOM     17  C   LIG    1        0.961  10.284   1.006  0.00  0.00    -0.050 C 
BRANCH  17  18
ATOM     18  C   LIG    1        0.862  11.641   1.570  0.00  0.00    +0.070 C 
ATOM     19  C   LIG    1        0.560  12.787   0.603  0.00  0.00    +0.050 C 
ATOM     20  C   LIG    1        1.960  12.640   1.202  0.00  0.00    +0.050 C 
ENDBRANCH  17  18
ENDBRANCH  10  16
ENDBRANCH   1  14
BRANCH   7  21
ATOM     21  C   LIG    1       -0.157   3.093  -3.568  0.00  0.00    +0.060 C 
BRANCH  21  22
ATOM     22  C   LIG    1        0.096   4.157  -4.638  0.00  0.00    +0.140 C 
BRANCH  22  23
ATOM     23  C   LIG    1        0.663   3.504  -5.872  0.00  0.00    -0.180 A 
ATOM     24  C   LIG    1       -0.057   3.018  -6.885  0.00  0.00    +0.000 A 
ATOM     25  C   LIG    1        0.685   2.464  -7.915  0.00  0.00    +0.010 A 
ATOM     26  C   LIG    1        2.006   2.493  -7.734  0.00  0.00    -0.050 A 
ATOM     27  S   LIG    1        2.375   3.259  -6.194  0.00  0.00    +0.100 S 
ENDBRANCH  22  23
ENDBRANCH  21  22
ENDBRANCH   7  21
TORSDOF 6
