REMARK  Name = ZINCpk00000y65dP.0
REMARK                            x       y       z     vdW  Elec       q    Type
REMARK                         _______ _______ _______ _____ _____    ______ ____
ROOT
ATOM      1  O   LIG    1       -0.130  -0.032   0.724  0.00  0.00    -0.560 OA
ATOM      2  C   LIG    1       -0.157   1.184   0.723  0.00  0.00    +0.710 C 
ATOM      3  N   LIG    1       -1.243   1.834   0.260  0.00  0.00    -0.630 N 
ATOM      4  C   LIG    1       -1.253   3.300   0.136  0.00  0.00    +0.250 C 
ATOM      5  C   LIG    1       -1.725   3.663  -1.276  0.00  0.00    +0.210 C 
ATOM      6  O   LIG    1       -2.960   2.995  -1.546  0.00  0.00    -0.370 OA
ATOM      7  C   LIG    1       -2.868   1.568  -1.536  0.00  0.00    +0.240 C 
ATOM      8  C   LIG    1       -2.452   1.098  -0.143  0.00  0.00    +0.340 C 
ATOM      9  N   LIG    1        0.902   1.881   1.180  0.00  0.00    -0.750 N 
ATOM     10  H   LIG    1        0.908   2.849   1.118  0.00  0.00    +0.390 HD
ENDROOT
BRANCH   8  11
ATOM     11  C   LIG    1       -2.159  -0.380  -0.174  0.00  0.00    +0.240 A 
ATOM     12  N   LIG    1       -1.267  -0.962  -0.932  0.00  0.00    -0.270 NA
ATOM     13  N   LIG    1       -1.322  -2.335  -0.642  0.00  0.00    -0.470 N 
ATOM     14  H   LIG    1       -0.781  -3.035  -1.040  0.00  0.00    +0.440 HD
ATOM     15  C   LIG    1       -2.278  -2.487   0.290  0.00  0.00    +0.480 A 
ATOM     16  N   LIG    1       -2.772  -1.307   0.562  0.00  0.00    -0.540 NA
ENDBRANCH   8  11
BRANCH   9  17
ATOM     17  C   LIG    1        2.043   1.178   1.771  0.00  0.00    +0.290 C 
BRANCH  17  18
ATOM     18  C   LIG    1        3.045   2.198   2.315  0.00  0.00    +0.040 C 
ATOM     19  C   LIG    1        3.630   3.007   1.155  0.00  0.00    +0.000 C 
ATOM     20  C   LIG    1        4.829   3.806   1.682  0.00  0.00    +0.240 C 
ATOM     21  O   LIG    1        5.842   2.885   2.087  0.00  0.00    -0.310 OA
ATOM     22  C   LIG    1        5.477   1.853   2.892  0.00  0.00    +0.140 A 
ATOM     23  C   LIG    1        6.470   1.165   3.581  0.00  0.00    -0.020 A 
ATOM     24  C   LIG    1        6.139   0.109   4.405  0.00  0.00    +0.050 A 
ATOM     25  C   LIG    1        4.817  -0.268   4.547  0.00  0.00    -0.020 A 
ATOM     26  C   LIG    1        3.828   0.414   3.866  0.00  0.00    +0.050 A 
ATOM     27  C   LIG    1        4.153   1.476   3.039  0.00  0.00    -0.160 A 
ENDBRANCH  17  18
ENDBRANCH   9  17
TORSDOF 3
