REMARK  Name = ZINCpk00000y65dP.1
REMARK                            x       y       z     vdW  Elec       q    Type
REMARK                         _______ _______ _______ _____ _____    ______ ____
ROOT
ATOM      1  O   LIG    1       -1.547   3.314  -1.088  0.00  0.00    -0.550 OA
ATOM      2  C   LIG    1       -1.522   2.119  -1.307  0.00  0.00    +0.710 C 
ATOM      3  N   LIG    1       -2.460   1.315  -0.769  0.00  0.00    -0.630 N 
ATOM      4  C   LIG    1       -2.407  -0.144  -0.958  0.00  0.00    +0.250 C 
ATOM      5  C   LIG    1       -2.541  -0.811   0.420  0.00  0.00    +0.210 C 
ATOM      6  O   LIG    1       -3.701  -0.298   1.079  0.00  0.00    -0.370 OA
ATOM      7  C   LIG    1       -3.650   1.105   1.347  0.00  0.00    +0.240 C 
ATOM      8  C   LIG    1       -3.570   1.870   0.021  0.00  0.00    +0.320 C 
ATOM      9  N   LIG    1       -0.555   1.597  -2.089  0.00  0.00    -0.750 N 
ATOM     10  H   LIG    1       -0.580   0.658  -2.329  0.00  0.00    +0.390 HD
ENDROOT
BRANCH   8  11
ATOM     11  C   LIG    1       -3.320   3.331   0.292  0.00  0.00    +0.170 A 
ATOM     12  N   LIG    1       -2.228   3.850   0.786  0.00  0.00    -0.220 NA
ATOM     13  N   LIG    1       -2.360   5.126   0.879  0.00  0.00    -0.290 NA
ATOM     14  C   LIG    1       -3.545   5.478   0.459  0.00  0.00    +0.370 A 
ATOM     15  N   LIG    1       -4.187   4.348   0.074  0.00  0.00    -0.580 N 
ATOM     16  H   LIG    1       -5.086   4.282  -0.285  0.00  0.00    +0.420 HD
ENDBRANCH   8  11
BRANCH   9  17
ATOM     17  C   LIG    1        0.530   2.450  -2.580  0.00  0.00    +0.290 C 
BRANCH  17  18
ATOM     18  C   LIG    1        1.548   1.596  -3.337  0.00  0.00    +0.040 C 
ATOM     19  C   LIG    1        2.169   0.576  -2.378  0.00  0.00    +0.000 C 
ATOM     20  C   LIG    1        3.380  -0.062  -3.072  0.00  0.00    +0.240 C 
ATOM     21  O   LIG    1        4.364   0.952  -3.282  0.00  0.00    -0.310 OA
ATOM     22  C   LIG    1        3.962   2.119  -3.848  0.00  0.00    +0.140 A 
ATOM     23  C   LIG    1        4.929   2.964  -4.385  0.00  0.00    -0.020 A 
ATOM     24  C   LIG    1        4.561   4.161  -4.965  0.00  0.00    +0.050 A 
ATOM     25  C   LIG    1        3.228   4.523  -5.013  0.00  0.00    -0.020 A 
ATOM     26  C   LIG    1        2.265   3.687  -4.482  0.00  0.00    +0.050 A 
ATOM     27  C   LIG    1        2.628   2.484  -3.901  0.00  0.00    -0.160 A 
ENDBRANCH  17  18
ENDBRANCH   9  17
TORSDOF 3
