REMARK  Name = ZINCpe000000ZFnP.0
REMARK                            x       y       z     vdW  Elec       q    Type
REMARK                         _______ _______ _______ _____ _____    ______ ____
ROOT
ATOM      1  N   LIG    1        2.318   3.899   0.001  0.00  0.00    -0.690 N 
ATOM      2  H   LIG    1        3.164   3.424  -0.010  0.00  0.00    +0.420 HD
ENDROOT
BRANCH   1   3
ATOM      3  C   LIG    1        1.123   3.188   0.008  0.00  0.00    +0.420 A 
ATOM      4  N   LIG    1       -0.017   3.839   0.022  0.00  0.00    -0.330 NA
ATOM      5  N   LIG    1       -1.229   3.145   0.030  0.00  0.00    -0.250 N 
ATOM      6  C   LIG    1       -1.236   1.772   0.018  0.00  0.00    +0.130 A 
ATOM      7  C   LIG    1       -0.013   1.076   0.008  0.00  0.00    +0.200 A 
ATOM      8  N   LIG    1       -2.505   1.395   0.033  0.00  0.00    -0.240 NA
ATOM      9  N   LIG    1       -3.258   2.439   0.046  0.00  0.00    -0.220 NA
ATOM     10  C   LIG    1       -2.524   3.525   0.044  0.00  0.00    +0.120 A 
ATOM     11  C   LIG    1        1.150   1.780   0.001  0.00  0.00    +0.000 A 
BRANCH  10  12
ATOM     12  C   LIG    1       -3.035   4.943   0.057  0.00  0.00    +0.520 C 
ATOM     13  F   LIG    1       -2.112   5.765   0.711  0.00  0.00    -0.180 F 
ATOM     14  F   LIG    1       -4.261   4.991   0.728  0.00  0.00    -0.170 F 
ENDBRANCH  10  12
ENDBRANCH   1   3
BRANCH   1  15
ATOM     15  C   LIG    1        2.300   5.364   0.009  0.00  0.00    +0.290 C 
BRANCH  15  16
ATOM     16  C   LIG    1        3.737   5.891  -0.002  0.00  0.00    +0.260 C 
BRANCH  16  17
ATOM     17  N   LIG    1        3.719   7.356   0.006  0.00  0.00    -1.110 NA
ATOM     18  H   LIG    1        2.899   7.832  -0.201  0.00  0.00    +0.430 HD
BRANCH  17  20
ATOM     19  O   LIG    1        4.766   9.576   0.259  0.00  0.00    -0.940 OA
ATOM     20  S   LIG    1        5.097   8.199   0.368  0.00  0.00    +2.710 S 
ATOM     21  O   LIG    1        5.623   7.618   1.554  0.00  0.00    -0.950 OA
BRANCH  20  22
ATOM     22  C   LIG    1        6.264   7.865  -0.909  0.00  0.00    -0.740 A 
ATOM     23  C   LIG    1        7.143   6.799  -0.796  0.00  0.00    +0.170 A 
ATOM     24  C   LIG    1        8.040   6.570  -1.828  0.00  0.00    -0.040 A 
ATOM     25  C   LIG    1        8.036   7.414  -2.922  0.00  0.00    +0.330 A 
ATOM     26  N   LIG    1        7.189   8.423  -2.994  0.00  0.00    -0.490 NA
ATOM     27  C   LIG    1        6.319   8.666  -2.034  0.00  0.00    +0.370 A 
ENDBRANCH  20  22
ENDBRANCH  17  20
ENDBRANCH  16  17
ENDBRANCH  15  16
ENDBRANCH   1  15
TORSDOF 7
