REMARK  Name = ZINCrH000004mxnL.0
REMARK                            x       y       z     vdW  Elec       q    Type
REMARK                         _______ _______ _______ _____ _____    ______ ____
ROOT
ATOM      1  C   LIG    1       -0.078   5.635   0.034  0.00  0.00    -0.030 C 
ATOM      2  C   LIG    1        0.659   5.911   1.361  0.00  0.00    +0.050 C 
ATOM      3  C   LIG    1        0.027   7.228   1.878  0.00  0.00    +0.010 C 
ATOM      4  C   LIG    1       -1.464   7.067   1.494  0.00  0.00    +0.020 C 
ATOM      5  C   LIG    1       -1.427   6.370   0.118  0.00  0.00    +0.050 C 
ENDROOT
BRANCH   1   9
ATOM      6  C   LIG    1       -0.728   1.434  -0.432  0.00  0.00    +0.100 A 
ATOM      7  C   LIG    1       -1.150   2.080   0.718  0.00  0.00    -0.030 A 
ATOM      8  C   LIG    1       -0.933   3.437   0.868  0.00  0.00    +0.030 A 
ATOM      9  C   LIG    1       -0.305   4.155  -0.132  0.00  0.00    -0.070 A 
ATOM     10  C   LIG    1        0.114   3.517  -1.286  0.00  0.00    -0.040 A 
ATOM     11  C   LIG    1       -0.095   2.157  -1.440  0.00  0.00    +0.110 A 
BRANCH   6  13
ATOM     12  C   LIG    1       -1.590  -0.579   0.495  0.00  0.00    +0.250 C 
ATOM     13  O   LIG    1       -0.935   0.098  -0.579  0.00  0.00    -0.310 OA
ENDBRANCH   6  13
BRANCH  11  14
ATOM     14  O   LIG    1        0.316   1.528  -2.574  0.00  0.00    -0.300 OA
ATOM     15  C   LIG    1        0.958   2.333  -3.565  0.00  0.00    +0.230 C 
ENDBRANCH  11  14
ENDBRANCH   1   9
BRANCH   1  16
ATOM     16  C   LIG    1        0.728   6.166  -1.124  0.00  0.00    +0.530 C 
ATOM     17  N   LIG    1        2.008   5.778  -1.288  0.00  0.00    -0.640 N 
ATOM     18  H   LIG    1        2.388   5.101  -0.707  0.00  0.00    +0.410 HD
ATOM     19  O   LIG    1        0.224   6.943  -1.908  0.00  0.00    -0.520 OA
BRANCH  17  20
ATOM     20  C   LIG    1        2.794   6.356  -2.303  0.00  0.00    -0.000 A 
ATOM     21  C   LIG    1        4.091   6.064  -2.574  0.00  0.00    +0.200 A 
ATOM     22  N   LIG    1        4.475   6.835  -3.624  0.00  0.00    -0.370 N 
ATOM     23  N   LIG    1        3.381   7.626  -3.999  0.00  0.00    -0.280 NA
ATOM     24  C   LIG    1        2.377   7.341  -3.211  0.00  0.00    +0.250 A 
BRANCH  22  25
ATOM     25  C   LIG    1        5.799   6.842  -4.251  0.00  0.00    +0.360 C 
BRANCH  25  26
ATOM     26  C   LIG    1        5.655   6.583  -5.752  0.00  0.00    -0.050 C 
ATOM     27  C   LIG    1        6.283   5.306  -6.312  0.00  0.00    +0.020 C 
ATOM     28  C   LIG    1        6.920   6.666  -6.608  0.00  0.00    +0.030 C 
ENDBRANCH  25  26
ENDBRANCH  22  25
ENDBRANCH  17  20
ENDBRANCH   1  16
TORSDOF 7
