REMARK  Name = ZINCrD000000ACdm.0
REMARK                            x       y       z     vdW  Elec       q    Type
REMARK                         _______ _______ _______ _____ _____    ______ ____
ROOT
ATOM      1  C   LIG    1       -4.268  -1.561  -1.990  0.00  0.00    +0.150 C 
ENDROOT
BRANCH   1   3
ATOM      2  O   LIG    1       -3.805   0.660  -2.639  0.00  0.00    -0.510 OA
ATOM      3  C   LIG    1       -4.404  -0.363  -2.894  0.00  0.00    +0.520 C 
ATOM      4  N   LIG    1       -5.192  -0.429  -3.986  0.00  0.00    -0.620 N 
ATOM      5  C   LIG    1       -5.919  -1.663  -4.311  0.00  0.00    +0.290 C 
ATOM      6  C   LIG    1       -5.591  -2.070  -5.747  0.00  0.00    +0.020 C 
ATOM      7  C   LIG    1       -5.888  -0.899  -6.687  0.00  0.00    +0.270 C 
ATOM      8  C   LIG    1       -5.010   0.296  -6.309  0.00  0.00    +0.020 C 
ATOM      9  C   LIG    1       -5.335   0.731  -4.877  0.00  0.00    +0.290 C 
BRANCH   7  10
ATOM     10  N   LIG    1       -5.603  -1.298  -8.068  0.00  0.00    -0.370 N 
ATOM     11  C   LIG    1       -4.613  -2.123  -8.467  0.00  0.00    +0.220 A 
ATOM     12  C   LIG    1       -4.689  -2.235  -9.814  0.00  0.00    -0.120 A 
ATOM     13  C   LIG    1       -5.761  -1.452 -10.252  0.00  0.00    +0.230 A 
ATOM     14  N   LIG    1       -6.314  -0.894  -9.205  0.00  0.00    -0.300 NA
ENDBRANCH   7  10
ENDBRANCH   1   3
BRANCH   1  15
ATOM     15  C   LIG    1       -3.338  -1.228  -0.852  0.00  0.00    +0.080 A 
ATOM     16  C   LIG    1       -3.686  -1.368   0.431  0.00  0.00    -0.070 A 
ATOM     17  S   LIG    1       -2.317  -0.871   1.422  0.00  0.00    +0.160 S 
ATOM     18  C   LIG    1       -1.412  -0.526   0.013  0.00  0.00    +0.030 A 
ATOM     19  N   LIG    1       -2.116  -0.771  -1.040  0.00  0.00    -0.420 NA
BRANCH  18  20
ATOM     20  C   LIG    1        0.002  -0.004   0.002  0.00  0.00    +0.320 C 
BRANCH  20  21
ATOM     21  O   LIG    1       -0.017   1.425   0.010  0.00  0.00    -0.310 OA
BRANCH  21  22
ATOM     22  C   LIG    1        1.185   2.058   0.002  0.00  0.00    +0.130 A 
ATOM     23  C   LIG    1        2.359   1.320  -0.008  0.00  0.00    -0.080 A 
ATOM     24  C   LIG    1        3.580   1.966  -0.021  0.00  0.00    +0.050 A 
ATOM     25  C   LIG    1        3.633   3.348  -0.015  0.00  0.00    -0.040 A 
ATOM     26  C   LIG    1        2.464   4.086   0.000  0.00  0.00    +0.050 A 
ATOM     27  C   LIG    1        1.240   3.444   0.009  0.00  0.00    -0.020 A 
ENDBRANCH  21  22
ENDBRANCH  20  21
ENDBRANCH  18  20
ENDBRANCH   1  15
TORSDOF 6
