REMARK  Name = ZINCnE000001UvWi.0
REMARK                            x       y       z     vdW  Elec       q    Type
REMARK                         _______ _______ _______ _____ _____    ______ ____
ROOT
ATOM      1  C   LIG    1       -0.718   1.572   1.248  0.00  0.00    +0.080 A 
ATOM      2  N   LIG    1       -1.778   2.307   1.259  0.00  0.00    -0.280 NA
ATOM      3  N   LIG    1       -2.131   2.544   2.596  0.00  0.00    -0.540 NA
ATOM      4  C   LIG    1       -1.195   1.902   3.363  0.00  0.00    +0.440 A 
ATOM      5  N   LIG    1       -1.147   1.870   4.669  0.00  0.00    -0.690 NA
ATOM      6  O   LIG    1       -0.333   1.309   2.513  0.00  0.00    -0.300 OA
ENDROOT
BRANCH   5   7
ATOM      7  C   LIG    1       -2.165   2.571   5.456  0.00  0.00    +0.170 C 
ATOM      8  C   LIG    1       -1.493   3.623   6.343  0.00  0.00    -0.010 C 
ATOM      9  C   LIG    1       -2.554   4.293   7.220  0.00  0.00    +0.190 C 
ATOM     10  O   LIG    1       -3.226   3.300   7.997  0.00  0.00    -0.390 OA
ATOM     11  C   LIG    1       -3.913   2.317   7.220  0.00  0.00    +0.190 C 
ATOM     12  C   LIG    1       -2.906   1.567   6.345  0.00  0.00    -0.010 C 
ENDBRANCH   5   7
BRANCH   1  13
ATOM     13  C   LIG    1       -0.013   1.086   0.008  0.00  0.00    +0.210 C 
BRANCH  13  19
ATOM     14  C   LIG    1       -3.733   2.249  -5.141  0.00  0.00    +0.000 A 
ATOM     15  C   LIG    1       -2.739   3.003  -4.599  0.00  0.00    +0.010 A 
ATOM     16  C   LIG    1       -2.057   2.541  -3.460  0.00  0.00    -0.050 A 
ATOM     17  C   LIG    1       -1.025   3.292  -2.873  0.00  0.00    +0.010 A 
ATOM     18  C   LIG    1       -0.387   2.812  -1.770  0.00  0.00    +0.030 A 
ATOM     19  C   LIG    1       -0.742   1.585  -1.213  0.00  0.00    -0.050 A 
ATOM     20  C   LIG    1       -1.733   0.828  -1.758  0.00  0.00    +0.030 A 
ATOM     21  C   LIG    1       -2.418   1.293  -2.893  0.00  0.00    -0.050 A 
ATOM     22  C   LIG    1       -3.450   0.542  -3.481  0.00  0.00    +0.020 A 
ATOM     23  C   LIG    1       -4.088   1.022  -4.584  0.00  0.00    -0.010 A 
ENDBRANCH  13  19
ENDBRANCH   1  13
TORSDOF 3
