REMARK  Name = ZINCrg000000saEX.0
REMARK                            x       y       z     vdW  Elec       q    Type
REMARK                         _______ _______ _______ _____ _____    ______ ____
ROOT
ATOM      1  N   LIG    1        4.081   0.884  -2.268  0.00  0.00    -0.670 N 
ATOM      2  H   LIG    1        4.743   0.349  -1.803  0.00  0.00    +0.420 HD
ATOM      3  C   LIG    1        3.049   1.420  -1.586  0.00  0.00    +0.500 C 
ATOM      4  O   LIG    1        2.274   2.165  -2.147  0.00  0.00    -0.500 OA
ENDROOT
BRANCH   1   9
ATOM      5  C   LIG    1        4.536   1.754  -7.859  0.00  0.00    +0.120 C 
ATOM      6  C   LIG    1        4.417   1.523  -6.375  0.00  0.00    -0.070 A 
ATOM      7  C   LIG    1        3.169   1.423  -5.790  0.00  0.00    +0.060 A 
ATOM      8  C   LIG    1        3.055   1.205  -4.431  0.00  0.00    +0.040 A 
ATOM      9  C   LIG    1        4.196   1.098  -3.646  0.00  0.00    +0.170 A 
ATOM     10  C   LIG    1        5.451   1.199  -4.230  0.00  0.00    +0.000 A 
ATOM     11  C   LIG    1        5.561   1.412  -5.596  0.00  0.00    +0.140 A 
BRANCH  11  12
ATOM     12  N   LIG    1        6.827   1.515  -6.190  0.00  0.00    -0.320 N 
ATOM     13  C   LIG    1        8.025   1.548  -5.568  0.00  0.00    +0.460 A 
ATOM     14  N   LIG    1        8.942   1.649  -6.494  0.00  0.00    -0.330 NA
ATOM     15  N   LIG    1        8.405   1.682  -7.660  0.00  0.00    -0.040 NA
ATOM     16  N   LIG    1        7.122   1.600  -7.563  0.00  0.00    -0.070 NA
ENDBRANCH  11  12
ENDBRANCH   1   9
BRANCH   3  17
ATOM     17  C   LIG    1        2.858   1.094  -0.127  0.00  0.00    +0.340 C 
BRANCH  17  18
ATOM     18  N   LIG    1        1.677   1.795   0.380  0.00  0.00    -0.580 N 
ATOM     19  C   LIG    1        0.425   1.264   0.355  0.00  0.00    +0.550 C 
ATOM     20  C   LIG    1       -0.509   2.393   0.654  0.00  0.00    +0.000 C 
ATOM     21  C   LIG    1       -1.783   2.129   1.421  0.00  0.00    +0.060 C 
ATOM     22  C   LIG    1       -2.478   3.490   1.607  0.00  0.00    +0.020 C 
ATOM     23  C   LIG    1       -1.576   4.504   2.303  0.00  0.00    +0.020 C 
ATOM     24  C   LIG    1       -0.210   4.639   1.603  0.00  0.00    +0.060 C 
ATOM     25  C   LIG    1        0.400   3.254   1.586  0.00  0.00    +0.000 C 
ATOM     26  O   LIG    1        0.126   0.110   0.130  0.00  0.00    -0.460 OA
ATOM     27  C   LIG    1        1.724   3.042   0.922  0.00  0.00    +0.550 C 
ATOM     28  O   LIG    1        2.650   3.823   0.876  0.00  0.00    -0.460 OA
ENDBRANCH  17  18
ENDBRANCH   3  17
TORSDOF 4
