REMARK  Name = ZINCrD000000fnzI.0
REMARK                            x       y       z     vdW  Elec       q    Type
REMARK                         _______ _______ _______ _____ _____    ______ ____
ROOT
ATOM      1  C   LIG    1        0.163   7.941   1.975  0.00  0.00    +0.360 A 
ATOM      2  N   LIG    1        0.207   9.250   2.025  0.00  0.00    -0.530 NA
ATOM      3  C   LIG    1       -0.720  10.014   1.400  0.00  0.00    +0.170 A 
ATOM      4  C   LIG    1       -0.673  11.410   1.454  0.00  0.00    +0.030 A 
ATOM      5  C   LIG    1       -1.635  12.150   0.806  0.00  0.00    +0.070 A 
ATOM      6  C   LIG    1       -2.654  11.527   0.097  0.00  0.00    +0.000 A 
ATOM      7  C   LIG    1       -2.722  10.153   0.028  0.00  0.00    +0.100 A 
ATOM      8  C   LIG    1       -1.758   9.383   0.678  0.00  0.00    -0.200 A 
ATOM      9  C   LIG    1       -1.781   7.915   0.633  0.00  0.00    +0.560 A 
ATOM     10  O   LIG    1       -2.647   7.316   0.023  0.00  0.00    -0.490 OA
ATOM     11  N   LIG    1       -0.806   7.253   1.299  0.00  0.00    -0.480 N 
ENDROOT
BRANCH  11  12
ATOM     12  C   LIG    1       -0.787   5.853   1.291  0.00  0.00    +0.080 A 
ATOM     13  C   LIG    1       -1.459   5.142   2.276  0.00  0.00    +0.050 A 
ATOM     14  C   LIG    1       -1.438   3.761   2.266  0.00  0.00    +0.020 A 
ATOM     15  C   LIG    1       -0.749   3.086   1.275  0.00  0.00    -0.060 A 
ATOM     16  C   LIG    1       -0.074   3.791   0.295  0.00  0.00    +0.020 A 
ATOM     17  C   LIG    1       -0.096   5.172   0.297  0.00  0.00    +0.050 A 
BRANCH  15  18
ATOM     18  C   LIG    1       -0.728   1.579   1.266  0.00  0.00    +0.070 C 
ATOM     19  C   LIG    1       -1.909   1.057   0.446  0.00  0.00    +0.030 C 
ENDBRANCH  15  18
ENDBRANCH  11  12
BRANCH   1  20
ATOM     20  S   LIG    1        1.411   7.026   2.818  0.00  0.00    +0.100 S 
BRANCH  20  21
ATOM     21  C   LIG    1        2.386   8.385   3.508  0.00  0.00    +0.110 C 
BRANCH  21  24
ATOM     22  N   LIG    1        4.411   8.658   4.902  0.00  0.00    -0.720 N 
ATOM     23  H   LIG    1        4.291   9.618   4.834  0.00  0.00    +0.410 HD
ATOM     24  C   LIG    1        3.543   7.825   4.294  0.00  0.00    +0.530 C 
ATOM     25  O   LIG    1        3.694   6.624   4.379  0.00  0.00    -0.520 OA
BRANCH  22  26
ATOM     26  C   LIG    1        5.536   8.113   5.666  0.00  0.00    +0.310 C 
BRANCH  26  28
ATOM     27  C   LIG    1        6.581   9.296   7.529  0.00  0.00    +0.050 C 
ATOM     28  C   LIG    1        6.348   9.245   6.241  0.00  0.00    -0.060 C 
ENDBRANCH  26  28
ENDBRANCH  22  26
ENDBRANCH  21  24
ENDBRANCH  20  21
ENDBRANCH   1  20
TORSDOF 7
