REMARK  Name = ZINCqH00000386e2.0
REMARK                            x       y       z     vdW  Elec       q    Type
REMARK                         _______ _______ _______ _____ _____    ______ ____
ROOT
ATOM      1  C   LIG    1        5.681  -0.644  -0.081  0.00  0.00    +0.270 C 
ENDROOT
BRANCH   1   5
ATOM      2  N   LIG    1        8.001  -3.348  -0.929  0.00  0.00    -0.460 N 
ATOM      3  C   LIG    1        7.058  -3.217  -2.070  0.00  0.00    +0.170 C 
ATOM      4  C   LIG    1        5.726  -2.777  -1.426  0.00  0.00    +0.040 C 
ATOM      5  C   LIG    1        6.127  -2.108  -0.095  0.00  0.00    -0.010 C 
ATOM      6  C   LIG    1        7.667  -2.200  -0.046  0.00  0.00    +0.190 C 
BRANCH   2  14
ATOM      7  C   LIG    1        8.972  -5.421  -2.618  0.00  0.00    +0.100 C 
ATOM      8  C   LIG    1        9.842  -4.267  -2.190  0.00  0.00    -0.090 A 
ATOM      9  C   LIG    1       11.153  -4.193  -2.618  0.00  0.00    +0.040 A 
ATOM     10  C   LIG    1       11.952  -3.136  -2.225  0.00  0.00    +0.000 A 
ATOM     11  C   LIG    1       11.442  -2.147  -1.402  0.00  0.00    -0.020 A 
ATOM     12  C   LIG    1       10.129  -2.212  -0.975  0.00  0.00    -0.020 A 
ATOM     13 CL   LIG    1       12.449  -0.821  -0.912  0.00  0.00    -0.070 Cl
ATOM     14  C   LIG    1        9.326  -3.277  -1.363  0.00  0.00    +0.110 A 
ENDBRANCH   2  14
ENDBRANCH   1   5
BRANCH   1  15
ATOM     15  N   LIG    1        4.218  -0.579  -0.077  0.00  0.00    -0.730 N 
ATOM     16  H   LIG    1        3.696  -1.396  -0.083  0.00  0.00    +0.400 HD
ATOM     17  C   LIG    1        3.597   0.618  -0.065  0.00  0.00    +0.600 C 
ATOM     18  O   LIG    1        4.252   1.643  -0.058  0.00  0.00    -0.580 OA
BRANCH  17  19
ATOM     19  C   LIG    1        2.134   0.683  -0.061  0.00  0.00    -0.330 A 
ATOM     20  C   LIG    1        1.339   1.845  -0.049  0.00  0.00    +0.110 A 
ATOM     21  N   LIG    1        1.611   3.181  -0.038  0.00  0.00    -0.480 N 
ATOM     22  H   LIG    1        2.533   3.483  -0.038  0.00  0.00    +0.430 HD
ATOM     23  C   LIG    1        0.616   4.083  -0.027  0.00  0.00    +0.320 A 
ATOM     24  C   LIG    1       -0.690   3.696  -0.026  0.00  0.00    -0.040 A 
ATOM     25  C   LIG    1       -1.027   2.348  -0.033  0.00  0.00    +0.190 A 
ATOM     26  C   LIG    1       -0.003   1.396  -0.049  0.00  0.00    +0.020 A 
ATOM     27  N   LIG    1        0.008   0.050  -0.061  0.00  0.00    -0.510 NA
ATOM     28  C   LIG    1        1.239  -0.403  -0.068  0.00  0.00    +0.310 A 
ENDBRANCH  17  19
ENDBRANCH   1  15
TORSDOF 4
