REMARK  Name = ZINCrD0000075QDz.0
REMARK                            x       y       z     vdW  Elec       q    Type
REMARK                         _______ _______ _______ _____ _____    ______ ____
ROOT
ATOM      1  C   LIG    1       -1.594   3.817   2.542  0.00  0.00    -0.220 A 
ATOM      2  C   LIG    1       -1.716   5.191   2.770  0.00  0.00    +0.230 A 
ATOM      3  C   LIG    1       -1.119   6.085   1.909  0.00  0.00    -0.120 A 
ATOM      4  C   LIG    1       -0.396   5.631   0.818  0.00  0.00    +0.190 A 
ATOM      5  C   LIG    1       -0.262   4.278   0.582  0.00  0.00    -0.050 A 
ATOM      6  C   LIG    1       -0.861   3.360   1.435  0.00  0.00    +0.320 A 
ENDROOT
BRANCH   3   7
ATOM      7  N   LIG    1       -1.249   7.540   2.152  0.00  0.00    +0.040 N 
ATOM      8  O   LIG    1       -0.722   8.334   1.394  0.00  0.00    -0.170 OA
ATOM      9  O   LIG    1       -1.883   7.942   3.111  0.00  0.00    -0.170 OA
ENDBRANCH   3   7
BRANCH   1  11
ATOM     10  O   LIG    1       -2.036   1.663   3.319  0.00  0.00    -0.510 OA
ATOM     11  C   LIG    1       -2.231   2.855   3.458  0.00  0.00    +0.530 C 
BRANCH  11  12
ATOM     12  O   LIG    1       -3.029   3.296   4.450  0.00  0.00    -0.340 OA
BRANCH  12  13
ATOM     13  C   LIG    1       -3.622   2.291   5.314  0.00  0.00    +0.300 C 
BRANCH  13  14
ATOM     14  C   LIG    1       -4.476   2.966   6.357  0.00  0.00    -0.050 A 
ATOM     15  C   LIG    1       -4.584   4.344   6.376  0.00  0.00    +0.050 A 
ATOM     16  C   LIG    1       -5.372   4.963   7.329  0.00  0.00    +0.060 A 
ATOM     17  C   LIG    1       -6.042   4.204   8.270  0.00  0.00    +0.020 A 
ATOM     18  C   LIG    1       -5.930   2.826   8.254  0.00  0.00    +0.070 A 
ATOM     19  C   LIG    1       -5.147   2.207   7.298  0.00  0.00    -0.180 A 
BRANCH  19  20
ATOM     20  C   LIG    1       -5.025   0.705   7.281  0.00  0.00    +0.510 C 
ATOM     21  F   LIG    1       -3.683   0.345   7.450  0.00  0.00    -0.180 F 
ATOM     22  F   LIG    1       -5.489   0.213   6.057  0.00  0.00    -0.170 F 
ATOM     23  F   LIG    1       -5.788   0.164   8.321  0.00  0.00    -0.170 F 
ENDBRANCH  19  20
ENDBRANCH  13  14
ENDBRANCH  12  13
ENDBRANCH  11  12
ENDBRANCH   1  11
BRANCH   6  24
ATOM     24  N   LIG    1       -0.732   1.999   1.197  0.00  0.00    -0.690 N 
ATOM     25  H   LIG    1       -1.079   1.359   1.839  0.00  0.00    +0.430 HD
BRANCH  24  26
ATOM     26  C   LIG    1       -0.071   1.528  -0.022  0.00  0.00    +0.270 C 
BRANCH  26  27
ATOM     27  C   LIG    1       -0.061  -0.002  -0.039  0.00  0.00    +0.190 C 
BRANCH  27  28
ATOM     28  O   LIG    1       -1.403  -0.486  -0.125  0.00  0.00    -0.570 OA
ATOM     29  H   LIG    1       -1.473  -1.451  -0.140  0.00  0.00    +0.390 HD
ENDBRANCH  27  28
ENDBRANCH  26  27
ENDBRANCH  24  26
ENDBRANCH   6  24
TORSDOF 10
