REMARK  Name = ZINCpe00000MJJg3.0
REMARK                            x       y       z     vdW  Elec       q    Type
REMARK                         _______ _______ _______ _____ _____    ______ ____
ROOT
ATOM      1  C   LIG    1       -1.741   5.124  -2.143  0.00  0.00    +0.300 C 
ATOM      2  N   LIG    1       -2.347   5.125  -0.809  0.00  0.00    -0.620 N 
ATOM      3  C   LIG    1       -2.861   6.213  -0.210  0.00  0.00    +0.520 C 
ATOM      4  C   LIG    1       -3.391   5.852   1.159  0.00  0.00    +0.060 C 
ATOM      5  C   LIG    1       -2.748   4.479   1.465  0.00  0.00    +0.270 C 
ATOM      6  O   LIG    1       -2.894   7.324  -0.698  0.00  0.00    -0.510 OA
ATOM      7  C   LIG    1       -2.471   3.938   0.045  0.00  0.00    +0.280 C 
ENDROOT
BRANCH   7   8
ATOM      8  C   LIG    1       -1.188   3.147   0.029  0.00  0.00    -0.160 A 
ATOM      9  C   LIG    1       -1.218   1.762   0.017  0.00  0.00    +0.080 A 
ATOM     10  C   LIG    1       -0.013   1.076   0.008  0.00  0.00    -0.030 A 
ATOM     11  C   LIG    1        1.169   1.792   0.001  0.00  0.00    +0.270 A 
ATOM     12  N   LIG    1        1.159   3.110   0.007  0.00  0.00    -0.480 NA
ATOM     13  C   LIG    1        0.033   3.795   0.021  0.00  0.00    +0.270 A 
ENDBRANCH   7   8
BRANCH   5  14
ATOM     14  N   LIG    1       -3.684   3.611   2.184  0.00  0.00    -0.710 N 
ATOM     15  H   LIG    1       -4.306   3.054   1.690  0.00  0.00    +0.410 HD
ATOM     16  C   LIG    1       -3.680   3.585   3.531  0.00  0.00    +0.580 C 
ATOM     17  O   LIG    1       -2.900   4.282   4.150  0.00  0.00    -0.520 OA
BRANCH  16  18
ATOM     18  C   LIG    1       -4.623   2.710   4.255  0.00  0.00    -0.160 A 
ATOM     19  C   LIG    1       -4.618   2.684   5.620  0.00  0.00    +0.340 A 
ATOM     20  N   LIG    1       -5.482   1.881   6.295  0.00  0.00    -0.400 N 
ATOM     21  C   LIG    1       -5.707   1.648   7.618  0.00  0.00    +0.370 A 
ATOM     22  N   LIG    1       -6.671   0.768   7.703  0.00  0.00    -0.250 NA
ATOM     23  N   LIG    1       -7.071   0.429   6.528  0.00  0.00    -0.280 NA
ATOM     24  C   LIG    1       -6.373   1.084   5.616  0.00  0.00    +0.200 A 
ATOM     25  C   LIG    1       -6.395   1.095   4.206  0.00  0.00    +0.100 A 
ATOM     26  C   LIG    1       -5.536   1.900   3.533  0.00  0.00    +0.080 A 
ENDBRANCH  16  18
ENDBRANCH   5  14
TORSDOF 3
