REMARK  Name = ZINCpe000000UjOt.0
REMARK                            x       y       z     vdW  Elec       q    Type
REMARK                         _______ _______ _______ _____ _____    ______ ____
ROOT
ATOM      1  N   LIG    1       -1.684  -6.876   0.576  0.00  0.00    -0.740 N 
ATOM      2  H   LIG    1       -2.575  -6.493   0.586  0.00  0.00    +0.400 HD
ATOM      3  C   LIG    1       -0.609  -6.087   0.773  0.00  0.00    +0.720 C 
ATOM      4  N   LIG    1       -0.763  -4.752   0.873  0.00  0.00    -0.630 N 
ATOM      5  C   LIG    1       -2.105  -4.152   0.893  0.00  0.00    +0.270 C 
ATOM      6  C   LIG    1       -2.191  -3.107  -0.226  0.00  0.00    +0.290 C 
ATOM      7  N   LIG    1       -1.020  -2.224  -0.135  0.00  0.00    -0.610 N 
ATOM      8  C   LIG    1        0.322  -2.822  -0.160  0.00  0.00    +0.280 C 
ATOM      9  C   LIG    1       -1.174  -0.889  -0.036  0.00  0.00    +0.610 C 
ATOM     10  O   LIG    1       -2.284  -0.414   0.117  0.00  0.00    -0.520 OA
ATOM     11  C   LIG    1        0.408  -3.868   0.965  0.00  0.00    +0.300 C 
ATOM     12  O   LIG    1        0.499  -6.579   0.861  0.00  0.00    -0.580 OA
ENDROOT
BRANCH   9  13
ATOM     13  C   LIG    1       -0.004  -0.008  -0.113  0.00  0.00    -0.090 A 
ATOM     14  C   LIG    1        0.003   1.339   0.111  0.00  0.00    +0.050 A 
ATOM     15  C   LIG    1        1.326   1.772  -0.071  0.00  0.00    -0.060 A 
ATOM     16  C   LIG    1        2.059   0.684  -0.393  0.00  0.00    +0.020 A 
ATOM     17  C   LIG    1        3.539   0.676  -0.679  0.00  0.00    +0.180 C 
ATOM     18  O   LIG    1        1.255  -0.387  -0.417  0.00  0.00    -0.160 OA
ENDBRANCH   9  13
BRANCH   1  19
ATOM     19  C   LIG    1       -1.506  -8.312   0.346  0.00  0.00    +0.420 C 
BRANCH  19  24
ATOM     20  N   LIG    1       -3.632  -9.492   1.127  0.00  0.00    -0.470 N 
ATOM     21  C   LIG    1       -4.742  -9.958   0.504  0.00  0.00    +0.380 A 
ATOM     22  N   LIG    1       -4.603  -9.713  -0.770  0.00  0.00    -0.290 NA
ATOM     23  N   LIG    1       -3.481  -9.121  -0.978  0.00  0.00    -0.270 NA
ATOM     24  C   LIG    1       -2.852  -8.961   0.155  0.00  0.00    +0.150 A 
BRANCH  20  26
ATOM     25  C   LIG    1       -3.766  -8.236   3.222  0.00  0.00    +0.040 C 
ATOM     26  C   LIG    1       -3.338  -9.548   2.561  0.00  0.00    +0.300 C 
ENDBRANCH  20  26
ENDBRANCH  19  24
ENDBRANCH   1  19
TORSDOF 4
