REMARK  Name = ZINCrD00000rI1lS.0
REMARK                            x       y       z     vdW  Elec       q    Type
REMARK                         _______ _______ _______ _____ _____    ______ ____
ROOT
ATOM      1  C   LIG    1       -0.945  -2.181  -0.001  0.00  0.00    +0.560 C 
ATOM      2  N   LIG    1       -1.110  -0.843   0.008  0.00  0.00    -0.640 N 
ATOM      3  H   LIG    1       -2.003  -0.465   0.018  0.00  0.00    +0.410 HD
ATOM      4  O   LIG    1        0.176  -2.656  -0.014  0.00  0.00    -0.500 OA
ENDROOT
BRANCH   2   5
ATOM      5  C   LIG    1        0.002  -0.004   0.002  0.00  0.00    +0.300 A 
ATOM      6  C   LIG    1        1.306  -0.395  -0.013  0.00  0.00    -0.110 A 
ATOM      7  C   LIG    1        2.099   0.756  -0.014  0.00  0.00    +0.250 A 
ATOM      8  N   LIG    1        1.311   1.801  -0.001  0.00  0.00    -0.280 NA
ATOM      9  N   LIG    1       -0.016   1.354   0.009  0.00  0.00    -0.380 N 
BRANCH   9  10
ATOM     10  C   LIG    1       -1.212   2.201   0.020  0.00  0.00    +0.370 C 
BRANCH  10  11
ATOM     11  C   LIG    1       -1.615   2.483   1.444  0.00  0.00    -0.120 A 
ATOM     12  C   LIG    1       -2.496   1.639   2.094  0.00  0.00    +0.010 A 
ATOM     13  C   LIG    1       -2.862   1.896   3.402  0.00  0.00    +0.010 A 
ATOM     14  C   LIG    1       -2.354   3.002   4.057  0.00  0.00    +0.020 A 
ATOM     15  C   LIG    1       -1.477   3.849   3.406  0.00  0.00    +0.010 A 
ATOM     16  C   LIG    1       -1.107   3.590   2.099  0.00  0.00    +0.040 A 
ENDBRANCH  10  11
ENDBRANCH   9  10
ENDBRANCH   2   5
BRANCH   1  18
ATOM     17  C   LIG    1       -1.949  -4.401  -0.004  0.00  0.00    +0.140 C 
ATOM     18  C   LIG    1       -2.115  -3.064   0.005  0.00  0.00    -0.070 C 
BRANCH  17  22
ATOM     19  C   LIG    1       -5.339  -6.960   0.015  0.00  0.00    -0.110 A 
ATOM     20  C   LIG    1       -4.053  -7.505  -0.001  0.00  0.00    +0.080 A 
ATOM     21  C   LIG    1       -2.953  -6.677  -0.007  0.00  0.00    +0.040 A 
ATOM     22  C   LIG    1       -3.124  -5.288   0.002  0.00  0.00    -0.040 A 
ATOM     23  C   LIG    1       -4.413  -4.743   0.023  0.00  0.00    +0.030 A 
ATOM     24  C   LIG    1       -5.511  -5.573   0.024  0.00  0.00    +0.080 A 
BRANCH  19  25
ATOM     25  C   LIG    1       -6.518  -7.850   0.021  0.00  0.00    +0.510 C 
ATOM     26  O   LIG    1       -6.369  -9.056   0.013  0.00  0.00    -0.500 OA
BRANCH  25  28
ATOM     27  C   LIG    1       -8.870  -8.259   0.042  0.00  0.00    +0.290 C 
ATOM     28  O   LIG    1       -7.759  -7.325   0.036  0.00  0.00    -0.350 OA
ENDBRANCH  25  28
ENDBRANCH  19  25
ENDBRANCH  17  22
ENDBRANCH   1  18
TORSDOF 7
