REMARK  Name = ZINCkj00000dDco2.0
REMARK                            x       y       z     vdW  Elec       q    Type
REMARK                         _______ _______ _______ _____ _____    ______ ____
ROOT
ATOM      1  N   LIG    1        1.170   3.492   0.009  0.00  0.00    -0.650 N 
ATOM      2  H   LIG    1        0.327   3.969  -0.046  0.00  0.00    +0.420 HD
ATOM      3  C   LIG    1        2.327   4.176   0.103  0.00  0.00    +0.450 C 
ATOM      4  O   LIG    1        3.385   3.582   0.091  0.00  0.00    -0.490 OA
ENDROOT
BRANCH   1   9
ATOM      5  C   LIG    1        2.236   0.031  -0.644  0.00  0.00    -0.060 A 
ATOM      6  C   LIG    1        1.210  -0.679  -0.048  0.00  0.00    +0.040 A 
ATOM      7  C   LIG    1        0.169  -0.011   0.569  0.00  0.00    +0.020 A 
ATOM      8  C   LIG    1        0.150   1.374   0.591  0.00  0.00    +0.080 A 
ATOM      9  C   LIG    1        1.183   2.091  -0.009  0.00  0.00    +0.100 A 
ATOM     10  C   LIG    1        2.224   1.414  -0.626  0.00  0.00    +0.040 A 
BRANCH   5  12
ATOM     11  C   LIG    1        3.021  -0.941  -2.786  0.00  0.00    +0.020 C 
ATOM     12  C   LIG    1        3.368  -0.703  -1.315  0.00  0.00    +0.070 C 
ENDBRANCH   5  12
BRANCH   8  13
ATOM     13  O   LIG    1       -0.877   2.032   1.192  0.00  0.00    -0.490 OA
ATOM     14  H   LIG    1       -0.731   2.217   2.130  0.00  0.00    +0.380 HD
ENDBRANCH   8  13
ENDBRANCH   1   9
BRANCH   3  15
ATOM     15  C   LIG    1        2.307   5.678   0.225  0.00  0.00    +0.250 C 
BRANCH  15  16
ATOM     16  C   LIG    1        1.647   6.074   1.547  0.00  0.00    +0.150 C 
ATOM     17  C   LIG    1        1.627   7.599   1.670  0.00  0.00    +0.090 C 
ATOM     18  C   LIG    1        0.966   7.990   2.994  0.00  0.00    +0.040 C 
ATOM     19  C   LIG    1        1.723   7.325   4.148  0.00  0.00    +0.060 C 
ATOM     20  C   LIG    1        1.739   5.810   3.933  0.00  0.00    +0.260 C 
ATOM     21  N   LIG    1        2.407   5.500   2.664  0.00  0.00    -0.510 N 
ATOM     22  H   LIG    1        3.338   5.888   2.671  0.00  0.00    +0.430 HD
ATOM     23  H   LIG    1        2.464   4.498   2.551  0.00  0.00    +0.430 HD
ENDBRANCH  15  16
BRANCH  15  24
ATOM     24  O   LIG    1        3.646   6.176   0.192  0.00  0.00    -0.500 OA
ATOM     25  H   LIG    1        4.208   5.840   0.904  0.00  0.00    +0.380 HD
ENDBRANCH  15  24
ENDBRANCH   3  15
TORSDOF 6
