REMARK  Name = ZINCpe00000VVGDQ.0
REMARK                            x       y       z     vdW  Elec       q    Type
REMARK                         _______ _______ _______ _____ _____    ______ ____
ROOT
ATOM      1  C   LIG    1       -2.931   8.537   1.018  0.00  0.00    +0.170 C 
ENDROOT
BRANCH   1   5
ATOM      2  C   LIG    1       -4.516   7.196   5.446  0.00  0.00    +0.340 C 
ATOM      3  N   LIG    1       -4.572   8.183   4.365  0.00  0.00    -0.430 N 
ATOM      4  N   LIG    1       -3.797   7.983   3.223  0.00  0.00    -0.170 NA
ATOM      5  C   LIG    1       -3.793   8.813   2.223  0.00  0.00    +0.110 A 
ATOM      6  C   LIG    1       -4.620  10.019   2.270  0.00  0.00    -0.050 A 
ATOM      7  C   LIG    1       -4.649  10.933   1.215  0.00  0.00    +0.040 A 
ATOM      8  C   LIG    1       -5.451  12.049   1.305  0.00  0.00    +0.050 A 
ATOM      9  C   LIG    1       -6.233  12.273   2.431  0.00  0.00    +0.030 A 
ATOM     10  C   LIG    1       -6.224  11.382   3.482  0.00  0.00    +0.090 A 
ATOM     11  C   LIG    1       -5.421  10.245   3.412  0.00  0.00    -0.130 A 
ATOM     12  C   LIG    1       -5.372   9.261   4.501  0.00  0.00    +0.520 A 
ATOM     13  O   LIG    1       -6.040   9.415   5.508  0.00  0.00    -0.520 OA
ENDBRANCH   1   5
BRANCH   1  14
ATOM     14  C   LIG    1       -2.180   7.247   1.222  0.00  0.00    +0.510 C 
ATOM     15  N   LIG    1       -1.342   6.796   0.267  0.00  0.00    -0.730 N 
ATOM     16  H   LIG    1       -1.222   7.303  -0.551  0.00  0.00    +0.410 HD
ATOM     17  O   LIG    1       -2.330   6.613   2.245  0.00  0.00    -0.490 OA
BRANCH  15  18
ATOM     18  C   LIG    1       -0.612   5.542   0.466  0.00  0.00    +0.240 C 
ATOM     19  C   LIG    1        0.665   5.555  -0.379  0.00  0.00    +0.040 C 
ATOM     20  C   LIG    1        1.540   4.356   0.007  0.00  0.00    +0.160 C 
ATOM     21  C   LIG    1        0.672   3.120   0.011  0.00  0.00    +0.200 A 
ATOM     22  N   LIG    1        1.063   1.879   0.002  0.00  0.00    -0.490 NA
ATOM     23  C   LIG    1       -0.013   1.076   0.008  0.00  0.00    +0.140 A 
ATOM     24  C   LIG    1       -1.115   1.853   0.017  0.00  0.00    +0.130 A 
ATOM     25  N   LIG    1       -0.682   3.146   0.025  0.00  0.00    -0.450 N 
ATOM     26  C   LIG    1       -1.495   4.364   0.040  0.00  0.00    +0.280 C 
ENDBRANCH  15  18
ENDBRANCH   1  14
TORSDOF 3
