REMARK  Name = ZINCrH000004uNZm.0
REMARK                            x       y       z     vdW  Elec       q    Type
REMARK                         _______ _______ _______ _____ _____    ______ ____
ROOT
ATOM      1  O   LIG    1        1.667   7.495   0.144  0.00  0.00    -0.510 OA
ATOM      2  C   LIG    1        0.542   7.038   0.184  0.00  0.00    +0.580 C 
ATOM      3  N   LIG    1       -0.522   7.864   0.149  0.00  0.00    -0.690 N 
ATOM      4  H   LIG    1       -1.421   7.499   0.182  0.00  0.00    +0.420 HD
ENDROOT
BRANCH   2   5
ATOM      5  C   LIG    1        0.340   5.571   0.273  0.00  0.00    +0.150 A 
ATOM      6  N   LIG    1       -0.888   5.091   0.317  0.00  0.00    -0.420 NA
ATOM      7  C   LIG    1       -1.118   3.780   0.396  0.00  0.00    +0.250 A 
ATOM      8  N   LIG    1       -2.370   3.306   0.439  0.00  0.00    -0.410 NA
ATOM      9  C   LIG    1       -2.575   2.011   0.513  0.00  0.00    +0.300 A 
ATOM     10  C   LIG    1       -1.500   1.118   0.557  0.00  0.00    +0.280 A 
ATOM     11  N   LIG    1       -0.263   1.558   0.515  0.00  0.00    -0.410 NA
ATOM     12  C   LIG    1       -0.029   2.871   0.435  0.00  0.00    +0.040 A 
ATOM     13  C   LIG    1        1.286   3.374   0.389  0.00  0.00    +0.130 A 
ATOM     14  C   LIG    1        1.459   4.726   0.308  0.00  0.00    +0.060 A 
ENDBRANCH   2   5
BRANCH   3  15
ATOM     15  C   LIG    1       -0.323   9.313   0.062  0.00  0.00    +0.260 C 
BRANCH  15  16
ATOM     16  C   LIG    1       -1.538   9.950  -0.561  0.00  0.00    -0.070 A 
ATOM     17  C   LIG    1       -2.428  10.657   0.225  0.00  0.00    +0.040 A 
ATOM     18  C   LIG    1       -3.540  11.246  -0.348  0.00  0.00    +0.060 A 
ATOM     19  C   LIG    1       -3.766  11.120  -1.706  0.00  0.00    +0.040 A 
ATOM     20  C   LIG    1       -2.878  10.409  -2.491  0.00  0.00    +0.070 A 
ATOM     21  C   LIG    1       -1.764   9.824  -1.919  0.00  0.00    -0.160 A 
BRANCH  21  22
ATOM     22  C   LIG    1       -0.797   9.049  -2.776  0.00  0.00    +0.500 C 
ATOM     23  F   LIG    1       -0.811   7.703  -2.395  0.00  0.00    -0.170 F 
ATOM     24  F   LIG    1        0.492   9.566  -2.609  0.00  0.00    -0.170 F 
ATOM     25  F   LIG    1       -1.173   9.157  -4.119  0.00  0.00    -0.170 F 
ENDBRANCH  21  22
ENDBRANCH  15  16
BRANCH  15  26
ATOM     26  C   LIG    1       -0.111   9.884   1.466  0.00  0.00    +0.380 C 
ATOM     27  F   LIG    1       -1.197   9.540   2.278  0.00  0.00    -0.190 F 
ATOM     28  F   LIG    1       -0.006  11.277   1.391  0.00  0.00    -0.190 F 
ENDBRANCH  15  26
ENDBRANCH   3  15
TORSDOF 5
