REMARK  Name = ZINCvU00000003Mo.0
REMARK                            x       y       z     vdW  Elec       q    Type
REMARK                         _______ _______ _______ _____ _____    ______ ____
ROOT
ATOM      1  C   LIG    1       -0.001   1.079   2.488  0.00  0.00    +0.510 C 
ATOM      2  N   LIG    1       -0.453   1.393   3.718  0.00  0.00    -0.670 N 
ATOM      3  H   LIG    1       -1.204   1.999   3.819  0.00  0.00    +0.410 HD
ATOM      4  O   LIG    1        0.988   0.388   2.363  0.00  0.00    -0.520 OA
ENDROOT
BRANCH   2   5
ATOM      5  C   LIG    1        0.161   0.844   4.851  0.00  0.00    +0.090 A 
ATOM      6  C   LIG    1        1.532   0.620   4.859  0.00  0.00    +0.090 A 
ATOM      7  C   LIG    1        2.138   0.080   5.976  0.00  0.00    -0.040 A 
ATOM      8  C   LIG    1        1.377  -0.240   7.092  0.00  0.00    +0.220 A 
ATOM      9  C   LIG    1        0.005  -0.017   7.085  0.00  0.00    -0.100 A 
ATOM     10 CL   LIG    1       -0.947  -0.417   8.481  0.00  0.00    -0.070 Cl
ATOM     11  C   LIG    1       -0.600   0.528   5.970  0.00  0.00    +0.040 A 
BRANCH   8  12
ATOM     12  N   LIG    1        1.992  -0.788   8.224  0.00  0.00    -0.740 N 
ATOM     13  H   LIG    1        1.460  -1.012   9.004  0.00  0.00    +0.400 HD
BRANCH  12  14
ATOM     14  C   LIG    1        3.438  -1.024   8.231  0.00  0.00    +0.310 C 
BRANCH  14  15
ATOM     15  C   LIG    1        3.844  -1.615   9.556  0.00  0.00    -0.110 A 
ATOM     16  C   LIG    1        4.213  -0.786  10.599  0.00  0.00    +0.020 A 
ATOM     17  C   LIG    1        4.581  -1.328  11.816  0.00  0.00    +0.000 A 
ATOM     18  C   LIG    1        4.590  -2.699  11.987  0.00  0.00    +0.010 A 
ATOM     19  C   LIG    1        4.226  -3.529  10.943  0.00  0.00    +0.000 A 
ATOM     20  C   LIG    1        3.853  -2.987   9.728  0.00  0.00    +0.020 A 
ENDBRANCH  14  15
ENDBRANCH  12  14
ENDBRANCH   8  12
ENDBRANCH   2   5
BRANCH   1  21
ATOM     21  C   LIG    1       -0.725   1.585   1.267  0.00  0.00    +0.060 C 
BRANCH  21  22
ATOM     22  C   LIG    1       -0.012   1.088   0.008  0.00  0.00    +0.140 C 
BRANCH  22  29
ATOM     23  C   LIG    1        0.561   3.817  -1.499  0.00  0.00    +0.150 C 
ATOM     24  C   LIG    1       -0.483   2.799  -1.879  0.00  0.00    +0.090 A 
ATOM     25  N   LIG    1       -1.311   2.888  -2.888  0.00  0.00    -0.290 NA
ATOM     26  N   LIG    1       -2.117   1.743  -2.897  0.00  0.00    -0.380 N 
ATOM     27  C   LIG    1       -1.741   0.962  -1.862  0.00  0.00    +0.090 A 
ATOM     28  C   LIG    1       -2.335  -0.372  -1.493  0.00  0.00    +0.140 C 
ATOM     29  C   LIG    1       -0.736   1.595  -1.213  0.00  0.00    -0.230 A 
BRANCH  26  30
ATOM     30  C   LIG    1       -3.178   1.442  -3.861  0.00  0.00    +0.350 C 
BRANCH  30  31
ATOM     31  C   LIG    1       -2.588   0.668  -5.043  0.00  0.00    +0.190 C 
BRANCH  31  32
ATOM     32  C   LIG    1       -3.654   0.366  -6.012  0.00  0.00    +0.200 C 
ATOM     33  N   LIG    1       -4.476   0.133  -6.760  0.00  0.00    -0.420 NA
ENDBRANCH  31  32
ENDBRANCH  30  31
ENDBRANCH  26  30
ENDBRANCH  22  29
ENDBRANCH  21  22
ENDBRANCH   1  21
TORSDOF 10
