REMARK  Name = ZINCpe000000Wkwz.0
REMARK                            x       y       z     vdW  Elec       q    Type
REMARK                         _______ _______ _______ _____ _____    ______ ____
ROOT
ATOM      1  C   LIG    1        3.714  -0.710  -0.036  0.00  0.00    +0.340 C 
ENDROOT
BRANCH   1   7
ATOM      2  C   LIG    1        2.383   1.414  -0.013  0.00  0.00    +0.150 A 
ATOM      3  C   LIG    1        1.175   2.094   0.002  0.00  0.00    -0.120 A 
ATOM      4  C   LIG    1       -0.017   1.387   0.010  0.00  0.00    +0.150 A 
ATOM      5  C   LIG    1        0.002  -0.004   0.002  0.00  0.00    +0.060 A 
ATOM      6  C   LIG    1        1.212  -0.680  -0.013  0.00  0.00    +0.040 A 
ATOM      7  C   LIG    1        2.399   0.028  -0.020  0.00  0.00    -0.140 A 
BRANCH   2   9
ATOM      8  C   LIG    1        3.462   3.534  -0.012  0.00  0.00    +0.240 C 
ATOM      9  O   LIG    1        3.553   2.108  -0.020  0.00  0.00    -0.310 OA
ENDBRANCH   2   9
BRANCH   5  10
ATOM     10  O   LIG    1       -1.167  -0.701   0.010  0.00  0.00    -0.310 OA
ATOM     11  C   LIG    1       -1.072  -2.127   0.001  0.00  0.00    +0.240 C 
ENDBRANCH   5  10
BRANCH   4  12
ATOM     12  O   LIG    1       -1.203   2.052   0.019  0.00  0.00    -0.300 OA
ATOM     13  C   LIG    1       -1.147   3.480   0.026  0.00  0.00    +0.240 C 
ENDBRANCH   4  12
ENDBRANCH   1   7
BRANCH   1  14
ATOM     14  N   LIG    1        4.269  -0.747   1.319  0.00  0.00    -0.720 N 
ATOM     15  H   LIG    1        3.789  -0.331   2.051  0.00  0.00    +0.400 HD
ATOM     16  C   LIG    1        5.448  -1.359   1.547  0.00  0.00    +0.520 C 
ATOM     17  O   LIG    1        6.049  -1.879   0.631  0.00  0.00    -0.540 OA
BRANCH  16  18
ATOM     18  C   LIG    1        6.020  -1.397   2.941  0.00  0.00    +0.040 C 
BRANCH  18  19
ATOM     19  C   LIG    1        7.354  -2.145   2.925  0.00  0.00    +0.310 C 
BRANCH  19  20
ATOM     20  N   LIG    1        7.910  -2.182   4.280  0.00  0.00    -0.580 N 
ATOM     21  C   LIG    1        8.730  -1.235   4.753  0.00  0.00    +0.520 C 
ATOM     22  C   LIG    1        9.113  -1.574   6.177  0.00  0.00    +0.080 C 
ATOM     23  C   LIG    1        8.372  -2.900   6.444  0.00  0.00    +0.080 C 
ATOM     24  O   LIG    1        9.104  -0.259   4.138  0.00  0.00    -0.480 OA
ATOM     25  C   LIG    1        7.644  -3.168   5.145  0.00  0.00    +0.520 C 
ATOM     26  O   LIG    1        6.933  -4.124   4.923  0.00  0.00    -0.480 OA
ENDBRANCH  19  20
ENDBRANCH  18  19
ENDBRANCH  16  18
ENDBRANCH   1  14
TORSDOF 8
