REMARK  Name = ZINCqH00000013se.0
REMARK                            x       y       z     vdW  Elec       q    Type
REMARK                         _______ _______ _______ _____ _____    ______ ____
ROOT
ATOM      1  N   LIG    1       -2.832   3.696   6.374  0.00  0.00    -0.600 N 
ATOM      2  H   LIG    1       -2.377   3.900   5.542  0.00  0.00    +0.430 HD
ENDROOT
BRANCH   1   7
ATOM      3  C   LIG    1        0.432   0.589  10.009  0.00  0.00    +0.050 A 
ATOM      4  C   LIG    1        0.677   1.160   8.816  0.00  0.00    +0.190 A 
ATOM      5  N   LIG    1       -0.492   1.784   8.406  0.00  0.00    -0.300 N 
ATOM      6  N   LIG    1       -0.965   2.532   7.335  0.00  0.00    -0.330 NA
ATOM      7  C   LIG    1       -2.193   2.943   7.347  0.00  0.00    +0.350 A 
ATOM      8  S   LIG    1       -2.889   2.346   8.864  0.00  0.00    +0.160 S 
ATOM      9  C   LIG    1       -1.399   1.550   9.391  0.00  0.00    +0.110 A 
ATOM     10  N   LIG    1       -0.843   0.834  10.340  0.00  0.00    -0.420 NA
BRANCH   3  12
ATOM     11  C   LIG    1        2.415   0.760  11.489  0.00  0.00    +0.040 C 
ATOM     12  C   LIG    1        1.421  -0.199  10.830  0.00  0.00    +0.020 C 
ATOM     13  C   LIG    1        0.676  -0.983  11.912  0.00  0.00    +0.050 C 
ATOM     14  C   LIG    1        2.176  -1.172   9.923  0.00  0.00    +0.050 C 
ENDBRANCH   3  12
ENDBRANCH   1   7
BRANCH   1  15
ATOM     15  C   LIG    1       -4.135   4.160   6.591  0.00  0.00    +0.120 A 
ATOM     16  C   LIG    1       -5.026   4.253   5.530  0.00  0.00    +0.030 A 
ATOM     17  C   LIG    1       -6.312   4.706   5.745  0.00  0.00    +0.000 A 
ATOM     18  C   LIG    1       -6.712   5.080   7.021  0.00  0.00    +0.110 A 
ATOM     19  C   LIG    1       -5.820   4.993   8.082  0.00  0.00    +0.040 A 
ATOM     20  C   LIG    1       -4.535   4.535   7.867  0.00  0.00    +0.010 A 
BRANCH  18  21
ATOM     21  N   LIG    1       -8.014   5.545   7.239  0.00  0.00    -0.490 N 
ATOM     22  C   LIG    1       -8.691   4.752   8.272  0.00  0.00    +0.200 C 
ATOM     23  C   LIG    1      -10.052   5.375   8.586  0.00  0.00    +0.010 C 
ATOM     24  C   LIG    1      -10.898   5.413   7.310  0.00  0.00    +0.150 C 
ATOM     25  C   LIG    1      -10.149   6.204   6.235  0.00  0.00    +0.050 C 
ATOM     26  C   LIG    1       -8.784   5.557   5.989  0.00  0.00    +0.190 C 
BRANCH  24  27
ATOM     27  O   LIG    1      -12.149   6.046   7.585  0.00  0.00    -0.570 OA
ATOM     28  H   LIG    1      -12.678   5.597   8.259  0.00  0.00    +0.380 HD
ENDBRANCH  24  27
ENDBRANCH  18  21
ENDBRANCH   1  15
TORSDOF 5
