REMARK  Name = ZINCrD00000eTr0i.0
REMARK                            x       y       z     vdW  Elec       q    Type
REMARK                         _______ _______ _______ _____ _____    ______ ____
ROOT
ATOM      1  N   LIG    1       -4.249   5.305  -0.821  0.00  0.00    -0.440 N 
ATOM      2  C   LIG    1       -4.741   5.725   0.499  0.00  0.00    +0.160 C 
ATOM      3  C   LIG    1       -4.558   4.578   1.497  0.00  0.00    +0.240 C 
ATOM      4  O   LIG    1       -3.177   4.205   1.536  0.00  0.00    -0.360 OA
ATOM      5  C   LIG    1       -2.652   3.811   0.271  0.00  0.00    +0.170 C 
ATOM      6  C   LIG    1       -3.359   2.536  -0.233  0.00  0.00    +0.050 C 
ATOM      7  C   LIG    1       -2.430   1.419   0.293  0.00  0.00    +0.080 C 
ATOM      8  C   LIG    1       -1.065   2.063   0.411  0.00  0.00    -0.080 A 
ATOM      9  C   LIG    1        0.190   1.489   0.526  0.00  0.00    +0.010 A 
ATOM     10  C   LIG    1        1.314   2.286   0.618  0.00  0.00    +0.030 A 
ATOM     11  C   LIG    1        1.186   3.662   0.601  0.00  0.00    +0.010 A 
ATOM     12  C   LIG    1       -0.066   4.237   0.492  0.00  0.00    +0.040 A 
ATOM     13  C   LIG    1       -1.194   3.440   0.399  0.00  0.00    -0.090 A 
ATOM     14  C   LIG    1       -2.829   4.930  -0.751  0.00  0.00    +0.220 C 
ENDROOT
BRANCH   1  18
ATOM     15  C   LIG    1       -5.366   7.797  -3.067  0.00  0.00    +0.260 A 
ATOM     16  N   LIG    1       -4.073   7.739  -3.286  0.00  0.00    -0.270 NA
ATOM     17  N   LIG    1       -3.538   6.856  -2.521  0.00  0.00    -0.310 NA
ATOM     18  C   LIG    1       -4.455   6.297  -1.766  0.00  0.00    +0.360 A 
ATOM     19  N   LIG    1       -5.652   6.872  -2.091  0.00  0.00    -0.480 N 
ATOM     20  C   LIG    1       -6.965   6.567  -1.517  0.00  0.00    +0.340 C 
BRANCH  15  24
ATOM     21  C   LIG    1       -9.166  11.089  -3.964  0.00  0.00    +0.180 C 
ATOM     22  C   LIG    1       -8.010  10.135  -4.121  0.00  0.00    +0.000 A 
ATOM     23  C   LIG    1       -7.389   9.492  -3.118  0.00  0.00    -0.050 A 
ATOM     24  C   LIG    1       -6.334   8.686  -3.746  0.00  0.00    -0.130 A 
ATOM     25  C   LIG    1       -6.435   8.922  -5.082  0.00  0.00    +0.060 A 
ATOM     26  C   LIG    1       -5.566   8.314  -6.152  0.00  0.00    +0.180 C 
ATOM     27  O   LIG    1       -7.439   9.788  -5.284  0.00  0.00    -0.170 OA
ENDBRANCH  15  24
ENDBRANCH   1  18
TORSDOF 2
