REMARK  Name = ZINCvU00000008PY.0
REMARK                            x       y       z     vdW  Elec       q    Type
REMARK                         _______ _______ _______ _____ _____    ______ ____
ROOT
ATOM      1  C   LIG    1       -0.142   1.163   2.320  0.00  0.00    +0.100 A 
ATOM      2  C   LIG    1        0.989   0.373   2.368  0.00  0.00    +0.040 A 
ATOM      3  C   LIG    1        1.534   0.011   3.604  0.00  0.00    -0.140 A 
ATOM      4  C   LIG    1        0.925   0.444   4.785  0.00  0.00    +0.050 A 
ATOM      5  C   LIG    1       -0.207   1.228   4.730  0.00  0.00    -0.030 A 
ATOM      6  C   LIG    1       -0.745   1.591   3.503  0.00  0.00    +0.140 A 
ENDROOT
BRANCH   3   7
ATOM      7  C   LIG    1        2.745  -0.829   3.661  0.00  0.00    +0.570 C 
ATOM      8  N   LIG    1        3.267  -1.180   4.853  0.00  0.00    -0.670 N 
ATOM      9  H   LIG    1        2.885  -0.826   5.672  0.00  0.00    +0.410 HD
ATOM     10  O   LIG    1        3.274  -1.204   2.632  0.00  0.00    -0.510 OA
BRANCH   8  11
ATOM     11  C   LIG    1        4.359  -2.054   4.910  0.00  0.00    +0.140 A 
ATOM     12  C   LIG    1        5.337  -2.007   3.926  0.00  0.00    +0.060 A 
ATOM     13  C   LIG    1        6.415  -2.869   3.982  0.00  0.00    +0.060 A 
ATOM     14  C   LIG    1        6.520  -3.782   5.022  0.00  0.00    +0.140 A 
ATOM     15  C   LIG    1        5.541  -3.829   6.007  0.00  0.00    -0.050 A 
ATOM     16 CL   LIG    1        5.673  -4.971   7.308  0.00  0.00    -0.060 Cl
ATOM     17  C   LIG    1        4.466  -2.964   5.954  0.00  0.00    +0.020 A 
BRANCH  14  18
ATOM     18  N   LIG    1        7.614  -4.657   5.078  0.00  0.00    -0.670 N 
ATOM     19  H   LIG    1        7.498  -5.556   5.421  0.00  0.00    +0.410 HD
ATOM     20  C   LIG    1        8.826  -4.247   4.655  0.00  0.00    +0.510 C 
ATOM     21  O   LIG    1        8.955  -3.152   4.150  0.00  0.00    -0.520 OA
ATOM     22  C   LIG    1       10.023  -5.151   4.810  0.00  0.00    +0.110 C 
ENDBRANCH  14  18
ENDBRANCH   8  11
ENDBRANCH   3   7
BRANCH   1  24
ATOM     23  C   LIG    1       -0.002   1.048  -0.051  0.00  0.00    +0.240 C 
ATOM     24  O   LIG    1       -0.671   1.521   1.119  0.00  0.00    -0.300 OA
ENDBRANCH   1  24
BRANCH   6  25
ATOM     25  O   LIG    1       -1.861   2.363   3.454  0.00  0.00    -0.290 OA
BRANCH  25  26
ATOM     26  C   LIG    1       -2.426   2.765   4.703  0.00  0.00    +0.260 C 
BRANCH  26  27
ATOM     27  C   LIG    1       -3.649   3.610   4.452  0.00  0.00    -0.090 A 
ATOM     28  C   LIG    1       -4.050   3.878   3.157  0.00  0.00    +0.060 A 
ATOM     29  C   LIG    1       -5.171   4.653   2.926  0.00  0.00    +0.020 A 
ATOM     30  C   LIG    1       -5.891   5.161   3.991  0.00  0.00    +0.030 A 
ATOM     31  C   LIG    1       -5.491   4.895   5.287  0.00  0.00    +0.030 A 
ATOM     32  C   LIG    1       -4.373   4.114   5.518  0.00  0.00    -0.030 A 
ATOM     33 CL   LIG    1       -3.874   3.772   7.145  0.00  0.00    -0.070 Cl
ENDBRANCH  26  27
ENDBRANCH  25  26
ENDBRANCH   6  25
TORSDOF 7
