REMARK  Name = ZINCrH000004lnUP.1
REMARK                            x       y       z     vdW  Elec       q    Type
REMARK                         _______ _______ _______ _____ _____    ______ ____
ROOT
ATOM      1  S   LIG    1        5.300   4.165  -0.051  0.00  0.00    +2.700 S 
ATOM      2  O   LIG    1        5.050   5.455  -0.591  0.00  0.00    -0.940 OA
ATOM      3  O   LIG    1        6.300   3.291  -0.555  0.00  0.00    -0.950 OA
ENDROOT
BRANCH   1   7
ATOM      4  C   LIG    1        1.385   1.900  -0.288  0.00  0.00    +0.190 A 
ATOM      5  C   LIG    1        2.586   1.208  -0.229  0.00  0.00    -0.090 A 
ATOM      6  C   LIG    1        3.779   1.902  -0.162  0.00  0.00    +0.160 A 
ATOM      7  C   LIG    1        3.777   3.284  -0.143  0.00  0.00    -0.710 A 
ATOM      8  C   LIG    1        2.581   3.976  -0.197  0.00  0.00    +0.170 A 
ATOM      9  C   LIG    1        1.385   3.288  -0.269  0.00  0.00    -0.130 A 
ATOM     10  C   LIG    1        0.083   4.043  -0.327  0.00  0.00    +0.110 C 
BRANCH   4  11
ATOM     11  O   LIG    1        0.211   1.220  -0.359  0.00  0.00    -0.300 OA
BRANCH  11  12
ATOM     12  C   LIG    1        0.287  -0.206  -0.375  0.00  0.00    +0.220 C 
BRANCH  12  13
ATOM     13  C   LIG    1       -1.124  -0.792  -0.457  0.00  0.00    +0.200 C 
BRANCH  13  15
ATOM     14  C   LIG    1       -3.045  -0.930  -1.885  0.00  0.00    +0.200 C 
ATOM     15  O   LIG    1       -1.718  -0.431  -1.706  0.00  0.00    -0.390 OA
ENDBRANCH  13  15
ENDBRANCH  12  13
ENDBRANCH  11  12
ENDBRANCH   4  11
ENDBRANCH   1   7
BRANCH   1  16
ATOM     16  N   LIG    1        5.640   4.389   1.555  0.00  0.00    -1.050 N 
ATOM     17  H   LIG    1        5.723   5.287   1.913  0.00  0.00    +0.430 HD
BRANCH  16  18
ATOM     18  C   LIG    1        5.808   3.282   2.395  0.00  0.00    +0.160 A 
ATOM     19  C   LIG    1        6.410   2.129   1.915  0.00  0.00    +0.040 A 
ATOM     20  C   LIG    1        6.575   1.038   2.747  0.00  0.00    +0.040 A 
ATOM     21  C   LIG    1        6.142   1.092   4.058  0.00  0.00    +0.050 A 
ATOM     22  C   LIG    1        5.540   2.239   4.544  0.00  0.00    -0.030 A 
ATOM     23  C   LIG    1        5.376   3.338   3.719  0.00  0.00    +0.080 A 
BRANCH  23  24
ATOM     24  O   LIG    1        4.789   4.468   4.197  0.00  0.00    -0.310 OA
BRANCH  24  25
ATOM     25  C   LIG    1        4.371   4.454   5.564  0.00  0.00    +0.600 C 
ATOM     26  F   LIG    1        3.432   3.434   5.753  0.00  0.00    -0.160 F 
ATOM     27  F   LIG    1        3.793   5.686   5.888  0.00  0.00    -0.130 F 
ATOM     28  F   LIG    1        5.479   4.227   6.388  0.00  0.00    -0.160 F 
ENDBRANCH  24  25
ENDBRANCH  23  24
ENDBRANCH  16  18
ENDBRANCH   1  16
TORSDOF 9
