REMARK  Name = ZINCrH00000tj1bo.0
REMARK                            x       y       z     vdW  Elec       q    Type
REMARK                         _______ _______ _______ _____ _____    ______ ____
ROOT
ATOM      1  C   LIG    1       -2.093   5.678   0.073  0.00  0.00    -0.110 A 
ATOM      2  C   LIG    1       -3.169   6.502  -0.190  0.00  0.00    +0.090 A 
ATOM      3  C   LIG    1       -4.313   5.983  -0.770  0.00  0.00    -0.120 A 
ATOM      4  C   LIG    1       -4.381   4.638  -1.085  0.00  0.00    +0.100 A 
ATOM      5  C   LIG    1       -3.307   3.809  -0.820  0.00  0.00    -0.200 A 
ATOM      6  C   LIG    1       -3.395   2.342  -1.161  0.00  0.00    +0.300 C 
ATOM      7  O   LIG    1       -2.083   1.772  -1.151  0.00  0.00    -0.370 OA
ATOM      8  C   LIG    1       -1.332   2.114   0.020  0.00  0.00    +0.370 C 
ATOM      9  O   LIG    1       -1.093   3.524   0.018  0.00  0.00    -0.300 OA
ATOM     10 BR   LIG    1       -5.785   7.113  -1.132  0.00  0.00    -0.040 Br
ATOM     11  C   LIG    1       -2.159   4.327  -0.243  0.00  0.00    +0.180 A 
ENDROOT
BRANCH   8  12
ATOM     12  C   LIG    1       -0.017   1.378   0.010  0.00  0.00    -0.100 A 
ATOM     13  C   LIG    1        1.171   2.086   0.002  0.00  0.00    +0.060 A 
ATOM     14  C   LIG    1        2.377   1.411  -0.014  0.00  0.00    +0.010 A 
ATOM     15  C   LIG    1        2.396   0.029  -0.022  0.00  0.00    +0.010 A 
ATOM     16  C   LIG    1        1.208  -0.679  -0.014  0.00  0.00    +0.010 A 
ATOM     17  C   LIG    1        0.002  -0.004   0.002  0.00  0.00    +0.040 A 
ENDBRANCH   8  12
BRANCH   1  18
ATOM     18  C   LIG    1       -0.847   6.244   0.704  0.00  0.00    +0.250 C 
BRANCH  18  22
ATOM     19  C   LIG    1        1.831   8.025  -2.114  0.00  0.00    -0.020 C 
ATOM     20  C   LIG    1        2.396   7.338  -0.867  0.00  0.00    +0.060 C 
ATOM     21  C   LIG    1        1.300   7.242   0.197  0.00  0.00    +0.180 C 
ATOM     22  N   LIG    1        0.165   6.476  -0.335  0.00  0.00    -0.530 NA
ATOM     23  C   LIG    1       -0.423   7.141  -1.505  0.00  0.00    +0.180 C 
ATOM     24  C   LIG    1        0.622   7.234  -2.619  0.00  0.00    +0.040 C 
BRANCH  19  28
ATOM     25  N   LIG    1        2.615   8.634  -4.380  0.00  0.00    -0.860 N 
ATOM     26  H   LIG    1        3.295   8.663  -5.070  0.00  0.00    +0.400 HD
ATOM     27  H   LIG    1        1.736   9.010  -4.548  0.00  0.00    +0.400 HD
ATOM     28  C   LIG    1        2.889   8.070  -3.186  0.00  0.00    +0.520 C 
ATOM     29  O   LIG    1        3.986   7.600  -2.976  0.00  0.00    -0.540 OA
ENDBRANCH  19  28
ENDBRANCH  18  22
ENDBRANCH   1  18
TORSDOF 4
