REMARK  Name = ZINCpk00000y25Es.0
REMARK                            x       y       z     vdW  Elec       q    Type
REMARK                         _______ _______ _______ _____ _____    ______ ____
ROOT
ATOM      1  C   LIG    1       -0.947   3.308  -1.251  0.00  0.00    -0.070 A 
ATOM      2  C   LIG    1       -0.834   2.025  -0.705  0.00  0.00    -0.030 A 
ATOM      3  C   LIG    1        0.388   1.384  -0.740  0.00  0.00    +0.300 A 
ATOM      4  N   LIG    1        1.441   1.959  -1.287  0.00  0.00    -0.500 NA
ATOM      5  C   LIG    1        1.381   3.169  -1.820  0.00  0.00    +0.320 A 
ATOM      6  C   LIG    1        0.189   3.886  -1.821  0.00  0.00    +0.020 A 
ENDROOT
BRANCH   5   7
ATOM      7  N   LIG    1        2.521   3.729  -2.385  0.00  0.00    -0.480 N 
ATOM      8  C   LIG    1        2.281   4.112  -3.784  0.00  0.00    +0.210 C 
ATOM      9  C   LIG    1        3.531   4.795  -4.344  0.00  0.00    +0.200 C 
ATOM     10  N   LIG    1        4.676   3.879  -4.239  0.00  0.00    -0.530 NA
ATOM     11  C   LIG    1        4.915   3.497  -2.841  0.00  0.00    +0.180 C 
ATOM     12  C   LIG    1        3.665   2.813  -2.281  0.00  0.00    +0.220 C 
BRANCH  10  13
ATOM     13  C   LIG    1        5.880   4.472  -4.836  0.00  0.00    +0.180 C 
BRANCH  13  14
ATOM     14  C   LIG    1        7.011   3.441  -4.833  0.00  0.00    +0.180 C 
BRANCH  14  15
ATOM     15  O   LIG    1        6.628   2.311  -5.620  0.00  0.00    -0.560 OA
ATOM     16  H   LIG    1        7.299   1.616  -5.662  0.00  0.00    +0.380 HD
ENDBRANCH  14  15
ENDBRANCH  13  14
ENDBRANCH  10  13
ENDBRANCH   5   7
BRANCH   1  19
ATOM     17  C   LIG    1       -3.385   1.886  -1.112  0.00  0.00    +0.310 C 
ATOM     18  N   LIG    1       -3.392   3.351  -1.083  0.00  0.00    -0.550 N 
ATOM     19  C   LIG    1       -2.238   4.033  -1.228  0.00  0.00    +0.560 C 
ATOM     20  O   LIG    1       -2.258   5.243  -1.341  0.00  0.00    -0.500 OA
BRANCH  18  21
ATOM     21  C   LIG    1       -4.595   4.041  -0.904  0.00  0.00    +0.150 A 
ATOM     22  C   LIG    1       -4.589   5.422  -0.753  0.00  0.00    +0.010 A 
ATOM     23  C   LIG    1       -5.779   6.101  -0.580  0.00  0.00    +0.030 A 
ATOM     24  C   LIG    1       -6.975   5.407  -0.549  0.00  0.00    -0.020 A 
ATOM     25  C   LIG    1       -6.983   4.031  -0.695  0.00  0.00    +0.030 A 
ATOM     26  C   LIG    1       -5.797   3.347  -0.872  0.00  0.00    -0.030 A 
ENDBRANCH  18  21
ENDBRANCH   1  19
TORSDOF 6
