REMARK  Name = ZINCqH0000006WWU.0
REMARK                            x       y       z     vdW  Elec       q    Type
REMARK                         _______ _______ _______ _____ _____    ______ ____
ROOT
ATOM      1  C   LIG    1       -1.922   2.384   3.612  0.00  0.00    +0.100 A 
ATOM      2  C   LIG    1       -2.197   3.022   2.416  0.00  0.00    -0.040 A 
ATOM      3  C   LIG    1       -1.585   2.609   1.242  0.00  0.00    -0.070 A 
ATOM      4  C   LIG    1       -0.695   1.556   1.264  0.00  0.00    -0.070 A 
ATOM      5  C   LIG    1       -0.002   1.076   0.015  0.00  0.00    +0.250 C 
ATOM      6  N   LIG    1       -0.697   1.566  -1.179  0.00  0.00    -0.510 NA
ATOM      7  C   LIG    1       -0.870   3.026  -1.103  0.00  0.00    +0.180 C 
ATOM      8  C   LIG    1       -0.416   0.911   2.461  0.00  0.00    -0.040 A 
ATOM      9  C   LIG    1       -1.920   3.335  -0.035  0.00  0.00    +0.100 C 
ATOM     10  C   LIG    1       -1.025   1.319   3.634  0.00  0.00    +0.100 A 
ENDROOT
BRANCH   1  12
ATOM     11  C   LIG    1       -3.432   3.892   4.660  0.00  0.00    +0.230 C 
ATOM     12  O   LIG    1       -2.524   2.794   4.760  0.00  0.00    -0.310 OA
ENDBRANCH   1  12
BRANCH   6  13
ATOM     13  C   LIG    1        0.022   1.184  -2.401  0.00  0.00    +0.190 C 
ATOM     14  C   LIG    1        1.475   1.653  -2.306  0.00  0.00    +0.030 C 
BRANCH  13  15
ATOM     15  C   LIG    1       -0.013  -0.315  -2.557  0.00  0.00    +0.520 C 
ATOM     16  N   LIG    1        0.588  -0.896  -3.614  0.00  0.00    -0.670 N 
ATOM     17  H   LIG    1        0.972  -0.348  -4.316  0.00  0.00    +0.410 HD
ATOM     18  O   LIG    1       -0.581  -0.997  -1.730  0.00  0.00    -0.490 OA
BRANCH  16  19
ATOM     19  C   LIG    1        0.656  -2.292  -3.699  0.00  0.00    +0.160 A 
ATOM     20  C   LIG    1        0.601  -3.063  -2.546  0.00  0.00    +0.030 A 
ATOM     21  C   LIG    1        0.668  -4.440  -2.633  0.00  0.00    +0.040 A 
ATOM     22  C   LIG    1        0.791  -5.051  -3.867  0.00  0.00    +0.000 A 
ATOM     23  C   LIG    1        0.847  -4.287  -5.019  0.00  0.00    +0.050 A 
ATOM     24  C   LIG    1        0.775  -2.909  -4.939  0.00  0.00    -0.070 A 
ATOM     25 CL   LIG    1        0.838  -1.950  -6.385  0.00  0.00    -0.070 Cl
ENDBRANCH  16  19
ENDBRANCH  13  15
ENDBRANCH   6  13
BRANCH  10  26
ATOM     26  O   LIG    1       -0.748   0.684   4.804  0.00  0.00    -0.310 OA
ATOM     27  C   LIG    1        0.183  -0.399   4.749  0.00  0.00    +0.240 C 
ENDBRANCH  10  26
TORSDOF 5
