REMARK  Name = ZINCrH000004osTj.0
REMARK                            x       y       z     vdW  Elec       q    Type
REMARK                         _______ _______ _______ _____ _____    ______ ____
ROOT
ATOM      1  N   LIG    1        4.187  -0.034  -1.287  0.00  0.00    -0.600 N 
ATOM      2  C   LIG    1        4.811  -0.840  -2.169  0.00  0.00    +0.560 C 
ATOM      3  O   LIG    1        4.822  -2.042  -1.991  0.00  0.00    -0.520 OA
ATOM      4  C   LIG    1        4.258   1.421  -1.447  0.00  0.00    +0.290 C 
ENDROOT
BRANCH   2   5
ATOM      5  C   LIG    1        5.481  -0.262  -3.353  0.00  0.00    -0.100 A 
ATOM      6  C   LIG    1        6.038   1.017  -3.288  0.00  0.00    +0.020 A 
ATOM      7  C   LIG    1        6.669   1.551  -4.393  0.00  0.00    +0.050 A 
ATOM      8  C   LIG    1        6.741   0.829  -5.570  0.00  0.00    -0.030 A 
ATOM      9  C   LIG    1        6.184  -0.441  -5.646  0.00  0.00    +0.100 A 
ATOM     10  C   LIG    1        5.555  -0.989  -4.541  0.00  0.00    +0.070 A 
BRANCH   9  11
ATOM     11  O   LIG    1        6.258  -1.147  -6.805  0.00  0.00    -0.320 OA
BRANCH  11  12
ATOM     12  C   LIG    1        6.922  -0.520  -7.905  0.00  0.00    +0.600 C 
ATOM     13  F   LIG    1        8.246  -0.239  -7.551  0.00  0.00    -0.200 F 
ATOM     14  F   LIG    1        6.263   0.671  -8.230  0.00  0.00    -0.200 F 
ENDBRANCH  11  12
ENDBRANCH   9  11
ENDBRANCH   2   5
BRANCH   1  16
ATOM     15  C   LIG    1        3.944  -0.017   1.146  0.00  0.00    +0.060 C 
ATOM     16  C   LIG    1        3.437  -0.612  -0.169  0.00  0.00    +0.300 C 
BRANCH  16  17
ATOM     17  C   LIG    1        1.972  -0.299  -0.331  0.00  0.00    -0.100 A 
ATOM     18  C   LIG    1        1.427  -0.184  -1.596  0.00  0.00    +0.050 A 
ATOM     19  C   LIG    1        0.084   0.102  -1.748  0.00  0.00    +0.030 A 
ATOM     20  C   LIG    1       -0.718   0.275  -0.628  0.00  0.00    +0.150 A 
ATOM     21  C   LIG    1       -0.168   0.159   0.641  0.00  0.00    +0.010 A 
ATOM     22  C   LIG    1        1.176  -0.128   0.786  0.00  0.00    +0.060 A 
BRANCH  20  23
ATOM     23  N   LIG    1       -2.080   0.571  -0.778  0.00  0.00    -0.330 N 
ATOM     24  C   LIG    1       -2.979   0.759   0.207  0.00  0.00    +0.480 A 
ATOM     25  N   LIG    1       -4.137   1.018  -0.346  0.00  0.00    -0.540 NA
ATOM     26  C   LIG    1       -4.020   0.995  -1.673  0.00  0.00    +0.430 A 
ATOM     27  N   LIG    1       -2.780   0.725  -1.986  0.00  0.00    -0.310 NA
ENDBRANCH  20  23
ENDBRANCH  16  17
ENDBRANCH   1  16
TORSDOF 6
