REMARK  Name = ZINCqH0000037jL2.0
REMARK                            x       y       z     vdW  Elec       q    Type
REMARK                         _______ _______ _______ _____ _____    ______ ____
ROOT
ATOM      1  C   LIG    1        7.575   2.038   2.684  0.00  0.00    +0.510 C 
ATOM      2  N   LIG    1        8.782   1.798   3.236  0.00  0.00    -0.640 N 
ATOM      3  H   LIG    1        9.591   2.003   2.741  0.00  0.00    +0.420 HD
ATOM      4  O   LIG    1        6.564   1.782   3.303  0.00  0.00    -0.440 OA
ENDROOT
BRANCH   2   5
ATOM      5  C   LIG    1        8.867   1.257   4.513  0.00  0.00    +0.270 A 
ATOM      6  N   LIG    1        7.852   0.947   5.257  0.00  0.00    -0.470 NA
ATOM      7  C   LIG    1        8.116   0.442   6.448  0.00  0.00    +0.250 A 
ATOM      8  C   LIG    1        9.415   0.318   6.722  0.00  0.00    -0.230 A 
ATOM      9  S   LIG    1       10.325   0.895   5.328  0.00  0.00    +0.120 S 
BRANCH   8  10
ATOM     10  C   LIG    1       10.003  -0.225   7.999  0.00  0.00    +0.080 C 
ATOM     11  C   LIG    1       10.872   0.848   8.658  0.00  0.00    +0.020 C 
ATOM     12  C   LIG    1       11.468   0.296   9.954  0.00  0.00    +0.000 C 
ATOM     13  C   LIG    1       12.325  -0.932   9.640  0.00  0.00    +0.000 C 
ATOM     14  C   LIG    1       11.456  -2.005   8.981  0.00  0.00    +0.000 C 
ATOM     15  C   LIG    1       10.859  -1.453   7.685  0.00  0.00    +0.020 C 
ENDBRANCH   8  10
ENDBRANCH   2   5
BRANCH   1  16
ATOM     16  C   LIG    1        7.483   2.625   1.299  0.00  0.00    +0.180 C 
BRANCH  16  19
ATOM     17  C   LIG    1        3.948   2.070   0.603  0.00  0.00    +0.010 A 
ATOM     18  N   LIG    1        5.168   1.798   0.952  0.00  0.00    -0.420 NA
ATOM     19  C   LIG    1        6.034   2.794   0.921  0.00  0.00    +0.100 A 
ATOM     20  C   LIG    1        5.524   3.961   0.528  0.00  0.00    -0.080 A 
ATOM     21  S   LIG    1        3.814   3.721   0.178  0.00  0.00    +0.140 S 
BRANCH  17  22
ATOM     22  S   LIG    1        2.625   0.908   0.566  0.00  0.00    +0.100 S 
BRANCH  22  24
ATOM     23  C   LIG    1        1.577   2.464  -1.420  0.00  0.00    +0.090 C 
ATOM     24  C   LIG    1        1.280   1.980   0.001  0.00  0.00    -0.030 C 
BRANCH  24  25
ATOM     25  C   LIG    1       -0.014   1.209   0.009  0.00  0.00    +0.550 C 
ATOM     26  O   LIG    1        0.002  -0.004   0.002  0.00  0.00    -0.520 OA
ATOM     27  N   LIG    1       -1.191   1.867   0.018  0.00  0.00    -0.840 N 
ATOM     28  H   LIG    1       -1.204   2.837   0.023  0.00  0.00    +0.400 HD
ATOM     29  H   LIG    1       -2.024   1.370   0.019  0.00  0.00    +0.410 HD
ENDBRANCH  24  25
ENDBRANCH  22  24
ENDBRANCH  17  22
ENDBRANCH  16  19
ENDBRANCH   1  16
TORSDOF 7
