REMARK  Name = ZINCpk00000e1CJd.0
REMARK                            x       y       z     vdW  Elec       q    Type
REMARK                         _______ _______ _______ _____ _____    ______ ____
ROOT
ATOM      1  N   LIG    1       -0.676   1.568   1.122  0.00  0.00    -0.490 NA
ATOM      2  C   LIG    1       -0.031   1.200  -0.142  0.00  0.00    +0.280 C 
ATOM      3  C   LIG    1       -0.794   1.771  -1.308  0.00  0.00    -0.110 A 
ATOM      4  C   LIG    1       -0.159   1.846  -2.539  0.00  0.00    +0.010 A 
ATOM      5  C   LIG    1       -0.822   2.359  -3.636  0.00  0.00    +0.000 A 
ATOM      6  C   LIG    1       -2.125   2.800  -3.509  0.00  0.00    +0.000 A 
ATOM      7  C   LIG    1       -2.758   2.727  -2.284  0.00  0.00    +0.010 A 
ATOM      8  C   LIG    1       -2.093   2.214  -1.181  0.00  0.00    -0.080 A 
ATOM      9  C   LIG    1       -2.822   2.159   0.137  0.00  0.00    +0.070 C 
ATOM     10  C   LIG    1       -2.101   1.207   1.092  0.00  0.00    +0.190 C 
ENDROOT
BRANCH  10  11
ATOM     11  C   LIG    1       -2.690   1.335   2.474  0.00  0.00    +0.520 C 
ATOM     12  O   LIG    1       -1.989   1.676   3.402  0.00  0.00    -0.510 OA
ATOM     13  N   LIG    1       -3.996   1.069   2.677  0.00  0.00    -0.860 N 
ATOM     14  H   LIG    1       -4.375   1.151   3.566  0.00  0.00    +0.400 HD
ATOM     15  H   LIG    1       -4.556   0.796   1.934  0.00  0.00    +0.400 HD
ENDBRANCH  10  11
BRANCH   1  16
ATOM     16  C   LIG    1       -0.501   2.999   1.405  0.00  0.00    +0.290 C 
BRANCH  16  23
ATOM     17  C   LIG    1        5.867   4.804   1.695  0.00  0.00    +0.180 C 
ATOM     18  C   LIG    1        4.929   3.942   2.499  0.00  0.00    +0.080 A 
ATOM     19  C   LIG    1        5.355   3.314   3.581  0.00  0.00    -0.010 A 
ATOM     20  S   LIG    1        3.949   2.433   4.202  0.00  0.00    +0.180 S 
ATOM     21  C   LIG    1        2.863   2.994   2.919  0.00  0.00    +0.310 A 
ATOM     22  N   LIG    1        1.586   2.755   2.687  0.00  0.00    -0.470 NA
ATOM     23  C   LIG    1        0.958   3.289   1.647  0.00  0.00    +0.230 A 
ATOM     24  C   LIG    1        1.659   4.108   0.788  0.00  0.00    -0.150 A 
ATOM     25  C   LIG    1        3.008   4.366   1.038  0.00  0.00    +0.530 A 
ATOM     26  O   LIG    1        3.641   5.093   0.289  0.00  0.00    -0.520 OA
ATOM     27  N   LIG    1        3.618   3.797   2.118  0.00  0.00    -0.470 N 
ENDBRANCH  16  23
ENDBRANCH   1  16
TORSDOF 3
