REMARK  Name = ZINCrg00000fRgpv.0
REMARK                            x       y       z     vdW  Elec       q    Type
REMARK                         _______ _______ _______ _____ _____    ______ ____
ROOT
ATOM      1  C   LIG    1       -1.329   1.940   0.019  0.00  0.00    +0.420 C 
ENDROOT
BRANCH   1   2
ATOM      2  N   LIG    1       -2.430   0.973   0.019  0.00  0.00    -0.570 N 
ATOM      3  C   LIG    1       -3.004   0.486  -1.088  0.00  0.00    +0.710 C 
ATOM      4  N   LIG    1       -3.990  -0.389  -0.814  0.00  0.00    -0.710 N 
ATOM      5  H   LIG    1       -4.540  -0.864  -1.456  0.00  0.00    +0.440 HD
ATOM      6  C   LIG    1       -4.073  -0.476   0.650  0.00  0.00    +0.130 C 
ATOM      7  C   LIG    1       -3.786  -1.898   1.118  0.00  0.00    +0.050 C 
ATOM      8  C   LIG    1       -4.872  -2.840   0.594  0.00  0.00    +0.030 C 
ATOM      9  C   LIG    1       -6.237  -2.380   1.112  0.00  0.00    +0.010 C 
ATOM     10  C   LIG    1       -6.521  -0.962   0.613  0.00  0.00    +0.040 C 
ATOM     11  C   LIG    1       -5.441  -0.012   1.137  0.00  0.00    +0.010 C 
ATOM     12  C   LIG    1       -5.713   1.402   0.622  0.00  0.00    +0.020 C 
ATOM     13  O   LIG    1       -2.671   0.798  -2.215  0.00  0.00    -0.530 OA
ATOM     14  C   LIG    1       -2.994   0.466   1.135  0.00  0.00    +0.540 C 
ATOM     15  O   LIG    1       -2.699   0.715   2.284  0.00  0.00    -0.460 OA
ENDBRANCH   1   2
BRANCH   1  16
ATOM     16  C   LIG    1       -0.014   1.204   0.009  0.00  0.00    +0.460 C 
ATOM     17  O   LIG    1        0.002  -0.004   0.002  0.00  0.00    -0.490 OA
BRANCH  16  18
ATOM     18  O   LIG    1        1.139   1.891   0.001  0.00  0.00    -0.350 OA
BRANCH  18  19
ATOM     19  C   LIG    1        2.367   1.117  -0.015  0.00  0.00    +0.380 C 
BRANCH  19  24
ATOM     20  N   LIG    1        4.191   2.543   1.056  0.00  0.00    -0.290 N 
ATOM     21  N   LIG    1        5.141   3.299   0.619  0.00  0.00    -0.080 NA
ATOM     22  N   LIG    1        5.116   3.295  -0.668  0.00  0.00    -0.070 NA
ATOM     23  N   LIG    1        4.157   2.537  -1.075  0.00  0.00    -0.270 NA
ATOM     24  C   LIG    1        3.550   2.051  -0.021  0.00  0.00    +0.170 A 
BRANCH  20  25
ATOM     25  C   LIG    1        3.870   2.272   2.459  0.00  0.00    +0.340 C 
BRANCH  25  26
ATOM     26  C   LIG    1        4.652   1.046   2.933  0.00  0.00    +0.010 C 
BRANCH  26  28
ATOM     27  C   LIG    1        5.098  -0.464   4.873  0.00  0.00    +0.030 C 
ATOM     28  C   LIG    1        4.316   0.762   4.399  0.00  0.00    +0.020 C 
ENDBRANCH  26  28
ENDBRANCH  25  26
ENDBRANCH  20  25
ENDBRANCH  19  24
ENDBRANCH  18  19
ENDBRANCH  16  18
ENDBRANCH   1  16
TORSDOF 8
