REMARK  Name = ZINCvU0000000HkB.0
REMARK                            x       y       z     vdW  Elec       q    Type
REMARK                         _______ _______ _______ _____ _____    ______ ____
ROOT
ATOM      1  C   LIG    1       -3.750   5.893   0.284  0.00  0.00    -0.270 A 
ATOM      2  C   LIG    1       -5.011   5.333   0.308  0.00  0.00    +0.300 A 
ATOM      3  N   LIG    1       -5.903   6.331   0.437  0.00  0.00    -0.300 N 
ATOM      4  N   LIG    1       -5.232   7.555   0.499  0.00  0.00    -0.270 NA
ATOM      5  C   LIG    1       -3.938   7.341   0.417  0.00  0.00    +0.190 A 
ENDROOT
BRANCH   3   6
ATOM      6  C   LIG    1       -7.293   6.168   0.501  0.00  0.00    +0.140 A 
ATOM      7  C   LIG    1       -7.849   4.897   0.424  0.00  0.00    -0.010 A 
ATOM      8  C   LIG    1       -9.219   4.739   0.494  0.00  0.00    +0.050 A 
ATOM      9  C   LIG    1      -10.038   5.846   0.627  0.00  0.00    +0.010 A 
ATOM     10  C   LIG    1       -9.488   7.112   0.698  0.00  0.00    +0.050 A 
ATOM     11  C   LIG    1       -8.118   7.276   0.635  0.00  0.00    +0.030 A 
ENDBRANCH   3   6
BRANCH   5  12
ATOM     12  C   LIG    1       -2.870   8.369   0.448  0.00  0.00    -0.090 A 
ATOM     13  C   LIG    1       -3.077   9.626  -0.128  0.00  0.00    +0.100 A 
ATOM     14  C   LIG    1       -2.049  10.551  -0.072  0.00  0.00    -0.040 A 
ATOM     15  C   LIG    1       -0.862  10.206   0.547  0.00  0.00    +0.270 A 
ATOM     16  N   LIG    1       -0.695   9.012   1.082  0.00  0.00    -0.490 NA
ATOM     17  C   LIG    1       -1.646   8.101   1.058  0.00  0.00    +0.340 A 
ENDBRANCH   5  12
BRANCH   1  20
ATOM     18  N   LIG    1       -2.456   3.834   0.047  0.00  0.00    -0.660 N 
ATOM     19  H   LIG    1       -3.291   3.344  -0.013  0.00  0.00    +0.410 HD
ATOM     20  C   LIG    1       -2.470   5.177   0.156  0.00  0.00    +0.600 C 
ATOM     21  O   LIG    1       -1.424   5.799   0.149  0.00  0.00    -0.510 OA
BRANCH  18  26
ATOM     22  C   LIG    1        1.073   3.035  -0.618  0.00  0.00    -0.060 A 
ATOM     23  C   LIG    1        1.177   1.786  -0.034  0.00  0.00    +0.010 A 
ATOM     24  C   LIG    1        0.078   1.211   0.578  0.00  0.00    +0.010 A 
ATOM     25  C   LIG    1       -1.133   1.884   0.603  0.00  0.00    +0.070 A 
ATOM     26  C   LIG    1       -1.236   3.146   0.020  0.00  0.00    +0.130 A 
ATOM     27  C   LIG    1       -0.130   3.716  -0.592  0.00  0.00    +0.050 A 
BRANCH  22  29
ATOM     28  C   LIG    1        3.467   2.704  -1.172  0.00  0.00    +0.030 C 
ATOM     29  C   LIG    1        2.274   3.655  -1.283  0.00  0.00    -0.030 C 
ATOM     30  C   LIG    1        2.612   4.979  -0.594  0.00  0.00    +0.040 C 
ATOM     31  C   LIG    1        1.963   3.913  -2.759  0.00  0.00    +0.040 C 
ENDBRANCH  22  29
BRANCH  25  32
ATOM     32  O   LIG    1       -2.216   1.318   1.198  0.00  0.00    -0.500 OA
ATOM     33  H   LIG    1       -2.304   1.531   2.138  0.00  0.00    +0.390 HD
ENDBRANCH  25  32
ENDBRANCH  18  26
ENDBRANCH   1  20
TORSDOF 6
