REMARK  Name = ZINCrg000000rUaW.0
REMARK                            x       y       z     vdW  Elec       q    Type
REMARK                         _______ _______ _______ _____ _____    ______ ____
ROOT
ATOM      1  C   LIG    1       -4.583   2.235   4.715  0.00  0.00    +0.600 C 
ATOM      2  N   LIG    1       -3.445   2.935   4.888  0.00  0.00    -0.600 N 
ATOM      3  C   LIG    1       -3.298   3.856   6.023  0.00  0.00    +0.270 C 
ATOM      4  C   LIG    1       -2.890   5.234   5.490  0.00  0.00    +0.040 C 
ATOM      5  C   LIG    1       -1.633   5.091   4.629  0.00  0.00    +0.070 C 
ATOM      6  C   LIG    1       -1.930   4.180   3.436  0.00  0.00    -0.470 C 
ATOM      7  C   LIG    1       -2.327   2.791   3.946  0.00  0.00    +0.330 C 
ATOM      8  O   LIG    1       -4.692   1.475   3.771  0.00  0.00    -0.510 OA
ENDROOT
BRANCH   1  11
ATOM      9  C   LIG    1       -6.920   4.332   4.500  0.00  0.00    +0.180 C 
ATOM     10  C   LIG    1       -6.726   3.305   5.585  0.00  0.00    +0.140 A 
ATOM     11  C   LIG    1       -5.696   2.389   5.669  0.00  0.00    -0.250 A 
ATOM     12  C   LIG    1       -5.906   1.633   6.844  0.00  0.00    +0.020 A 
ATOM     13  N   LIG    1       -6.993   2.069   7.417  0.00  0.00    -0.220 NA
ATOM     14  N   LIG    1       -7.524   3.110   6.647  0.00  0.00    -0.440 N 
ATOM     15  H   LIG    1       -8.331   3.610   6.849  0.00  0.00    +0.450 HD
BRANCH  12  16
ATOM     16  C   LIG    1       -5.026   0.517   7.347  0.00  0.00    +0.550 C 
ATOM     17  F   LIG    1       -4.417  -0.122   6.261  0.00  0.00    -0.160 F 
ATOM     18  F   LIG    1       -5.803  -0.406   8.055  0.00  0.00    -0.160 F 
ATOM     19  F   LIG    1       -4.042   1.043   8.191  0.00  0.00    -0.160 F 
ENDBRANCH  12  16
ENDBRANCH   1  11
BRANCH   6  20
ATOM     20  S   LIG    1       -0.450   4.043   2.396  0.00  0.00    +2.610 S 
ATOM     21  O   LIG    1       -0.174   5.282   1.756  0.00  0.00    -0.940 OA
ATOM     22  O   LIG    1        0.571   3.325   3.074  0.00  0.00    -0.940 OA
BRANCH  20  23
ATOM     23  N   LIG    1       -0.905   3.039   1.160  0.00  0.00    -1.000 NA
ATOM     24  C   LIG    1       -0.732   1.581   1.268  0.00  0.00    +0.270 C 
ATOM     25  C   LIG    1       -0.013   1.086   0.008  0.00  0.00    +0.220 C 
ATOM     26  O   LIG    1       -0.706   1.560  -1.149  0.00  0.00    -0.380 OA
ATOM     27  C   LIG    1       -0.736   2.985  -1.270  0.00  0.00    +0.220 C 
ATOM     28  C   LIG    1       -1.493   3.577  -0.076  0.00  0.00    +0.260 C 
ENDBRANCH  20  23
ENDBRANCH   6  20
TORSDOF 4
