REMARK  Name = ZINC550000002rVH.0
REMARK                            x       y       z     vdW  Elec       q    Type
REMARK                         _______ _______ _______ _____ _____    ______ ____
ROOT
ATOM      1  C   LIG    1       -0.013   1.086   0.008  0.00  0.00    +0.230 C 
ENDROOT
BRANCH   1   2
ATOM      2  N   LIG    1       -0.700   1.560   1.217  0.00  0.00    -0.630 N 
ATOM      3  H   LIG    1       -0.212   1.225   2.034  0.00  0.00    +0.440 HD
ATOM      4  H   LIG    1       -1.647   1.210   1.224  0.00  0.00    +0.440 HD
ATOM      5  H   LIG    1       -0.714   2.568   1.222  0.00  0.00    +0.440 HD
ENDBRANCH   1   2
BRANCH   1   7
ATOM      6  C   LIG    1       -0.037   1.099  -2.490  0.00  0.00    +0.050 C 
ATOM      7  C   LIG    1       -0.753   1.593  -1.232  0.00  0.00    +0.200 C 
BRANCH   7   8
ATOM      8  O   LIG    1       -2.093   1.098  -1.221  0.00  0.00    -0.560 OA
ATOM      9  H   LIG    1       -2.157   0.133  -1.226  0.00  0.00    +0.390 HD
ENDBRANCH   7   8
ENDBRANCH   1   7
TORSDOF 3
