REMARK  Name = ZINCrD00000jKU9V.0
REMARK                            x       y       z     vdW  Elec       q    Type
REMARK                         _______ _______ _______ _____ _____    ______ ____
ROOT
ATOM      1  C   LIG    1        4.510  -4.195  -2.138  0.00  0.00    +0.300 C 
ATOM      2  N   LIG    1        3.231  -4.324  -1.436  0.00  0.00    -0.610 N 
ATOM      3  C   LIG    1        2.169  -4.866  -2.064  0.00  0.00    +0.520 C 
ATOM      4  O   LIG    1        1.110  -4.972  -1.482  0.00  0.00    -0.490 OA
ENDROOT
BRANCH   3   5
ATOM      5  C   LIG    1        2.297  -5.339  -3.489  0.00  0.00    +0.240 C 
BRANCH   5   6
ATOM      6  O   LIG    1        1.045  -5.870  -3.929  0.00  0.00    -0.280 OA
BRANCH   6   7
ATOM      7  C   LIG    1        0.989  -6.343  -5.201  0.00  0.00    +0.160 A 
ATOM      8  C   LIG    1        2.117  -6.292  -6.009  0.00  0.00    -0.070 A 
ATOM      9  C   LIG    1        2.065  -6.776  -7.299  0.00  0.00    +0.100 A 
ATOM     10  C   LIG    1        0.874  -7.309  -7.795  0.00  0.00    -0.070 A 
ATOM     11  C   LIG    1       -0.259  -7.354  -6.981  0.00  0.00    +0.130 A 
ATOM     12  C   LIG    1       -0.198  -6.873  -5.691  0.00  0.00    +0.000 A 
BRANCH  10  13
ATOM     13  C   LIG    1        0.813  -7.825  -9.179  0.00  0.00    +0.220 A 
ATOM     14  N   LIG    1       -0.235  -8.349  -9.769  0.00  0.00    -0.280 NA
ATOM     15  N   LIG    1        0.078  -8.687 -10.970  0.00  0.00    -0.290 NA
ATOM     16  C   LIG    1        1.329  -8.395 -11.192  0.00  0.00    +0.400 A 
ATOM     17  O   LIG    1        1.823  -7.839 -10.072  0.00  0.00    -0.230 OA
ENDBRANCH  10  13
ENDBRANCH   6   7
ENDBRANCH   5   6
ENDBRANCH   3   5
BRANCH   2  18
ATOM     18  C   LIG    1        3.106  -3.863  -0.050  0.00  0.00    +0.420 C 
BRANCH  18  19
ATOM     19  C   LIG    1        2.680  -2.418  -0.038  0.00  0.00    +0.060 A 
ATOM     20  N   LIG    1        1.462  -2.027  -0.024  0.00  0.00    -0.440 NA
ATOM     21  C   LIG    1        1.227  -0.701  -0.013  0.00  0.00    +0.080 A 
ATOM     22  C   LIG    1        0.002  -0.004   0.002  0.00  0.00    +0.080 A 
ATOM     23  C   LIG    1       -0.016   1.358   0.009  0.00  0.00    +0.030 A 
ATOM     24  C   LIG    1        1.166   2.084   0.002  0.00  0.00    +0.040 A 
ATOM     25  C   LIG    1        2.377   1.430  -0.013  0.00  0.00    +0.050 A 
ATOM     26  C   LIG    1        2.416   0.037  -0.021  0.00  0.00    -0.180 A 
ATOM     27  S   LIG    1        3.761  -1.098  -0.041  0.00  0.00    +0.100 S 
ENDBRANCH  18  19
ENDBRANCH   2  18
TORSDOF 6
