REMARK  Name = ZINCfA000000b80C.0
REMARK                            x       y       z     vdW  Elec       q    Type
REMARK                         _______ _______ _______ _____ _____    ______ ____
ROOT
ATOM      1  C   LIG    1       -0.695   1.559   3.647  0.00  0.00    -0.200 A 
ATOM      2  C   LIG    1       -0.336   2.766   4.216  0.00  0.00    +0.100 A 
ATOM      3  C   LIG    1       -0.985   3.217   5.350  0.00  0.00    -0.050 A 
ATOM      4  C   LIG    1       -1.990   2.453   5.923  0.00  0.00    +0.180 A 
ATOM      5  C   LIG    1       -2.345   1.238   5.353  0.00  0.00    -0.080 A 
ATOM      6 CL   LIG    1       -3.603   0.277   6.067  0.00  0.00    -0.030 Cl
ATOM      7  C   LIG    1       -1.697   0.794   4.216  0.00  0.00    +0.100 A 
ENDROOT
BRANCH   4   8
ATOM      8  O   LIG    1       -2.625   2.891   7.042  0.00  0.00    -0.290 OA
ATOM      9  C   LIG    1       -2.207   4.150   7.574  0.00  0.00    +0.270 C 
ENDBRANCH   4   8
BRANCH   1  10
ATOM     10  C   LIG    1        0.010   1.073   2.407  0.00  0.00    +0.330 C 
BRANCH  10  11
ATOM     11  N   LIG    1       -0.700   1.560   1.217  0.00  0.00    -0.510 N 
ATOM     12  H   LIG    1       -1.647   1.210   1.224  0.00  0.00    +0.430 HD
ATOM     13  H   LIG    1       -0.714   2.568   1.222  0.00  0.00    +0.430 HD
BRANCH  11  14
ATOM     14  C   LIG    1       -0.013   1.086   0.008  0.00  0.00    +0.310 C 
BRANCH  14  16
ATOM     15  C   LIG    1       -0.352   2.688  -1.803  0.00  0.00    +0.120 C 
ATOM     16  C   LIG    1       -0.742   1.585  -1.213  0.00  0.00    -0.200 C 
ATOM     17  C   LIG    1       -1.918   0.815  -1.755  0.00  0.00    +0.100 C 
ENDBRANCH  14  16
ENDBRANCH  11  14
ENDBRANCH  10  11
ENDBRANCH   1  10
TORSDOF 5
