REMARK  Name = ZINCrD000000CNVf.0
REMARK                            x       y       z     vdW  Elec       q    Type
REMARK                         _______ _______ _______ _____ _____    ______ ____
ROOT
ATOM      1  N   LIG    1        2.403   1.103  -0.015  0.00  0.00    -0.670 N 
ATOM      2  H   LIG    1        2.418   0.136   0.048  0.00  0.00    +0.410 HD
ATOM      3  C   LIG    1        3.558   1.790  -0.124  0.00  0.00    +0.530 C 
ATOM      4  O   LIG    1        3.545   3.003  -0.118  0.00  0.00    -0.510 OA
ENDROOT
BRANCH   1  11
ATOM      5  O   LIG    1       -4.655   3.780  -0.160  0.00  0.00    -0.530 OA
ATOM      6  C   LIG    1       -3.607   3.170  -0.164  0.00  0.00    +0.520 C 
ATOM      7  C   LIG    1       -3.610   1.689  -0.427  0.00  0.00    +0.080 C 
ATOM      8  C   LIG    1       -2.361   1.298  -1.218  0.00  0.00    +0.100 C 
ATOM      9  C   LIG    1       -1.143   1.902  -0.568  0.00  0.00    -0.100 A 
ATOM     10  C   LIG    1        0.059   1.225  -0.587  0.00  0.00    +0.030 A 
ATOM     11  C   LIG    1        1.181   1.787   0.009  0.00  0.00    +0.120 A 
ATOM     12  C   LIG    1        1.091   3.027   0.627  0.00  0.00    +0.060 A 
ATOM     13  C   LIG    1       -0.113   3.702   0.650  0.00  0.00    +0.000 A 
ATOM     14  C   LIG    1       -1.235   3.140   0.056  0.00  0.00    +0.150 A 
ATOM     15  N   LIG    1       -2.458   3.821   0.078  0.00  0.00    -0.660 N 
ATOM     16  H   LIG    1       -2.475   4.774   0.258  0.00  0.00    +0.410 HD
ENDBRANCH   1  11
BRANCH   3  17
ATOM     17  C   LIG    1        4.865   1.051  -0.254  0.00  0.00    +0.010 C 
ATOM     18  C   LIG    1        5.205   0.295   1.052  0.00  0.00    +0.090 C 
ATOM     19  C   LIG    1        6.706   0.429   1.178  0.00  0.00    +0.530 C 
ATOM     20  N   LIG    1        7.152   1.407   0.371  0.00  0.00    -0.580 N 
ATOM     21  O   LIG    1        7.406  -0.247   1.902  0.00  0.00    -0.510 OA
ATOM     22  C   LIG    1        6.049   2.037  -0.364  0.00  0.00    +0.310 C 
BRANCH  20  23
ATOM     23  C   LIG    1        8.496   1.778   0.247  0.00  0.00    +0.170 A 
ATOM     24  C   LIG    1        9.025   2.762   1.070  0.00  0.00    +0.040 A 
ATOM     25  C   LIG    1       10.354   3.121   0.950  0.00  0.00    +0.040 A 
ATOM     26  C   LIG    1       11.154   2.510   0.002  0.00  0.00    +0.030 A 
ATOM     27  C   LIG    1       10.629   1.533  -0.824  0.00  0.00    +0.050 A 
ATOM     28  C   LIG    1        9.303   1.165  -0.705  0.00  0.00    -0.090 A 
ATOM     29 BR   LIG    1        8.586  -0.172  -1.834  0.00  0.00    -0.040 Br
ENDBRANCH  20  23
ENDBRANCH   3  17
TORSDOF 3
