REMARK  Name = ZINCrH000004mJIg.0
REMARK                            x       y       z     vdW  Elec       q    Type
REMARK                         _______ _______ _______ _____ _____    ______ ____
ROOT
ATOM      1  C   LIG    1        1.182   1.791   0.007  0.00  0.00    +0.210 A 
ATOM      2  C   LIG    1       -0.013   1.083   0.012  0.00  0.00    -0.030 A 
ATOM      3  C   LIG    1       -1.215   1.762   0.027  0.00  0.00    +0.140 A 
ATOM      4  C   LIG    1       -1.230   3.145   0.049  0.00  0.00    -0.690 A 
ATOM      5  C   LIG    1       -0.042   3.852   0.045  0.00  0.00    +0.140 A 
ATOM      6  C   LIG    1        1.164   3.180   0.023  0.00  0.00    +0.010 A 
ENDROOT
BRANCH   1   8
ATOM      7  C   LIG    1        3.450   1.618  -0.691  0.00  0.00    +0.570 C 
ATOM      8  N   LIG    1        2.402   1.107  -0.015  0.00  0.00    -0.680 N 
ATOM      9  H   LIG    1        2.494   0.265   0.458  0.00  0.00    +0.410 HD
ATOM     10  O   LIG    1        3.361   2.713  -1.213  0.00  0.00    -0.490 OA
BRANCH   7  17
ATOM     11  C   LIG    1        5.796   1.376  -1.502  0.00  0.00    +0.200 A 
ATOM     12  C   LIG    1        6.970   0.645  -1.598  0.00  0.00    -0.060 A 
ATOM     13  C   LIG    1        7.062  -0.598  -1.003  0.00  0.00    +0.120 A 
ATOM     14  C   LIG    1        5.985  -1.123  -0.306  0.00  0.00    -0.080 A 
ATOM     15  C   LIG    1        4.811  -0.407  -0.197  0.00  0.00    +0.100 A 
ATOM     16 CL   LIG    1        6.116  -2.687   0.437  0.00  0.00    -0.060 Cl
ATOM     17  C   LIG    1        4.704   0.849  -0.799  0.00  0.00    -0.170 A 
BRANCH  11  19
ATOM     18  C   LIG    1        6.857   3.070  -2.786  0.00  0.00    +0.250 C 
ATOM     19  O   LIG    1        5.704   2.598  -2.086  0.00  0.00    -0.280 OA
ENDBRANCH  11  19
ENDBRANCH   7  17
ENDBRANCH   1   8
BRANCH   4  20
ATOM     20  S   LIG    1       -2.767   4.007   0.076  0.00  0.00    +2.690 S 
ATOM     21  O   LIG    1       -2.499   5.286   0.634  0.00  0.00    -0.950 OA
ATOM     22  O   LIG    1       -3.722   3.107   0.621  0.00  0.00    -0.950 OA
BRANCH  20  23
ATOM     23  N   LIG    1       -3.212   4.266  -1.497  0.00  0.00    -1.000 NA
ATOM     24  C   LIG    1       -2.799   5.488  -2.200  0.00  0.00    +0.290 C 
ATOM     25  C   LIG    1       -2.099   5.088  -3.508  0.00  0.00    +0.010 C 
ATOM     26  C   LIG    1       -3.027   4.179  -4.319  0.00  0.00    +0.010 C 
ATOM     27  C   LIG    1       -3.322   2.907  -3.521  0.00  0.00    +0.010 C 
ATOM     28  C   LIG    1       -4.031   3.280  -2.216  0.00  0.00    +0.290 C 
ENDBRANCH  20  23
ENDBRANCH   4  20
TORSDOF 5
