REMARK  Name = ZINCqH0000000k6k.1
REMARK                            x       y       z     vdW  Elec       q    Type
REMARK                         _______ _______ _______ _____ _____    ______ ____
ROOT
ATOM      1  N   LIG    1        1.817   4.925  11.496  0.00  0.00    -0.510 N 
ATOM      2  C   LIG    1        2.496   4.398  10.454  0.00  0.00    +0.550 A 
ATOM      3  C   LIG    1        1.741   4.033   9.239  0.00  0.00    -0.160 A 
ATOM      4  C   LIG    1        2.372   3.485   8.125  0.00  0.00    +0.140 A 
ATOM      5  C   LIG    1        1.629   3.154   7.013  0.00  0.00    +0.040 A 
ATOM      6  C   LIG    1        0.249   3.376   6.996  0.00  0.00    -0.060 A 
ATOM      7  C   LIG    1       -0.389   3.924   8.107  0.00  0.00    +0.070 A 
ATOM      8  C   LIG    1        0.352   4.253   9.230  0.00  0.00    +0.170 A 
ATOM      9  N   LIG    1       -0.244   4.801  10.357  0.00  0.00    -0.580 N 
ATOM     10  H   LIG    1       -1.201   4.959  10.364  0.00  0.00    +0.450 HD
ATOM     11  O   LIG    1        3.699   4.228  10.515  0.00  0.00    -0.460 OA
ATOM     12  C   LIG    1        0.490   5.116  11.437  0.00  0.00    +0.530 A 
ATOM     13  S   LIG    1       -0.301   5.791  12.797  0.00  0.00    -0.530 S 
ENDROOT
BRANCH   6  14
ATOM     14  C   LIG    1       -0.539   3.021   5.794  0.00  0.00    +0.560 C 
ATOM     15  N   LIG    1        0.075   2.491   4.718  0.00  0.00    -0.660 N 
ATOM     16  H   LIG    1        1.018   2.271   4.757  0.00  0.00    +0.410 HD
ATOM     17  O   LIG    1       -1.740   3.208   5.778  0.00  0.00    -0.500 OA
BRANCH  15  18
ATOM     18  C   LIG    1       -0.649   2.259   3.544  0.00  0.00    +0.140 A 
ATOM     19  C   LIG    1       -1.686   3.110   3.186  0.00  0.00    +0.010 A 
ATOM     20  C   LIG    1       -2.399   2.878   2.026  0.00  0.00    +0.030 A 
ATOM     21  C   LIG    1       -2.077   1.803   1.218  0.00  0.00    -0.100 A 
ATOM     22  C   LIG    1       -1.047   0.951   1.574  0.00  0.00    -0.070 A 
ATOM     23  C   LIG    1       -0.703  -0.223   0.694  0.00  0.00    +0.090 C 
ATOM     24  C   LIG    1       -2.852   1.557  -0.050  0.00  0.00    +0.090 C 
ATOM     25  C   LIG    1       -0.331   1.177   2.733  0.00  0.00    -0.010 A 
ENDBRANCH  15  18
ENDBRANCH   6  14
BRANCH   1  26
ATOM     26  C   LIG    1        2.543   5.296  12.713  0.00  0.00    +0.360 C 
BRANCH  26  28
ATOM     27  C   LIG    1        2.679   7.589  13.539  0.00  0.00    +0.080 C 
ATOM     28  C   LIG    1        3.003   6.727  12.607  0.00  0.00    -0.080 C 
ENDBRANCH  26  28
ENDBRANCH   1  26
TORSDOF 4
