REMARK  Name = ZINCqH0000050jPE.0
REMARK                            x       y       z     vdW  Elec       q    Type
REMARK                         _______ _______ _______ _____ _____    ______ ____
ROOT
ATOM      1  O   LIG    1        0.352   3.604   6.924  0.00  0.00    -0.330 OA
ENDROOT
BRANCH   1   2
ATOM      2  C   LIG    1       -0.608   2.992   6.023  0.00  0.00    +0.170 C 
ATOM      3  C   LIG    1       -1.281   1.809   6.722  0.00  0.00    +0.080 C 
BRANCH   2   4
ATOM      4  C   LIG    1        0.103   2.506   4.786  0.00  0.00    +0.400 C 
ATOM      5  O   LIG    1        1.302   2.321   4.809  0.00  0.00    -0.430 OA
BRANCH   4  10
ATOM      6  C   LIG    1       -2.862   1.538  -0.043  0.00  0.00    +0.100 C 
ATOM      7  C   LIG    1       -2.085   1.789   1.224  0.00  0.00    -0.050 A 
ATOM      8  C   LIG    1       -2.743   2.230   2.359  0.00  0.00    +0.000 A 
ATOM      9  C   LIG    1       -2.038   2.467   3.521  0.00  0.00    +0.050 A 
ATOM     10  C   LIG    1       -0.656   2.256   3.551  0.00  0.00    -0.170 A 
ATOM     11  C   LIG    1        0.001   1.804   2.401  0.00  0.00    +0.090 A 
ATOM     12  C   LIG    1       -0.718   1.572   1.248  0.00  0.00    -0.100 A 
ATOM     13  C   LIG    1       -0.013   1.086   0.008  0.00  0.00    +0.090 C 
ENDBRANCH   4  10
ENDBRANCH   2   4
ENDBRANCH   1   2
BRANCH   1  14
ATOM     14  C   LIG    1       -0.100   4.594   7.718  0.00  0.00    +0.510 C 
ATOM     15  O   LIG    1       -1.264   4.937   7.659  0.00  0.00    -0.490 OA
BRANCH  14  16
ATOM     16  C   LIG    1        0.819   5.263   8.660  0.00  0.00    -0.140 A 
ATOM     17  C   LIG    1        2.158   4.872   8.730  0.00  0.00    +0.160 A 
ATOM     18  C   LIG    1        3.012   5.501   9.612  0.00  0.00    +0.020 A 
ATOM     19  C   LIG    1        2.544   6.519  10.426  0.00  0.00    +0.080 A 
ATOM     20  C   LIG    1        1.217   6.912  10.361  0.00  0.00    -0.670 A 
ATOM     21 CL   LIG    1        3.625   7.306  11.533  0.00  0.00    -0.030 Cl
ATOM     22  C   LIG    1        0.355   6.294   9.480  0.00  0.00    +0.220 A 
BRANCH  20  23
ATOM     23  S   LIG    1        0.632   8.209  11.400  0.00  0.00    +2.490 S 
ATOM     24  O   LIG    1       -0.736   8.352  11.046  0.00  0.00    -0.930 OA
ATOM     25  O   LIG    1        1.557   9.268  11.193  0.00  0.00    -0.910 OA
ATOM     26  C   LIG    1        0.789   7.547  13.082  0.00  0.00    -0.240 C 
ENDBRANCH  20  23
ENDBRANCH  14  16
ENDBRANCH   1  14
TORSDOF 6
