REMARK  Name = ZINCpe000000SyCj.0
REMARK                            x       y       z     vdW  Elec       q    Type
REMARK                         _______ _______ _______ _____ _____    ______ ____
ROOT
ATOM      1  C   LIG    1       -1.174   2.147  -0.004  0.00  0.00    +0.520 C 
ATOM      2  N   LIG    1       -0.030   1.474   0.232  0.00  0.00    -0.620 N 
ATOM      3  C   LIG    1        1.265   2.169   0.252  0.00  0.00    +0.300 C 
ATOM      4  C   LIG    1        1.999   1.795   1.544  0.00  0.00    +0.200 C 
ATOM      5  N   LIG    1        2.078   0.332   1.653  0.00  0.00    -0.470 N 
ATOM      6  C   LIG    1        0.740  -0.267   1.755  0.00  0.00    +0.220 C 
ATOM      7  C   LIG    1       -0.045   0.022   0.472  0.00  0.00    +0.280 C 
ATOM      8  O   LIG    1       -1.151   3.353  -0.134  0.00  0.00    -0.530 OA
ENDROOT
BRANCH   1  14
ATOM      9  C   LIG    1       -6.937   1.737  -2.323  0.00  0.00    +0.080 C 
ATOM     10  C   LIG    1       -5.856   0.687  -2.336  0.00  0.00    +0.510 C 
ATOM     11  N   LIG    1       -4.901   0.691  -1.384  0.00  0.00    -0.620 N 
ATOM     12  C   LIG    1       -4.961   1.645  -0.268  0.00  0.00    +0.270 C 
ATOM     13  C   LIG    1       -3.632   2.405  -0.198  0.00  0.00    +0.040 C 
ATOM     14  C   LIG    1       -2.480   1.403  -0.107  0.00  0.00    -0.010 C 
ATOM     15  C   LIG    1       -2.467   0.523  -1.359  0.00  0.00    +0.030 C 
ATOM     16  C   LIG    1       -3.782  -0.259  -1.442  0.00  0.00    +0.280 C 
ATOM     17  O   LIG    1       -5.844  -0.161  -3.202  0.00  0.00    -0.540 OA
ENDBRANCH   1  14
BRANCH   5  18
ATOM     18  C   LIG    1        2.874  -0.044   2.723  0.00  0.00    +0.340 A 
ATOM     19  C   LIG    1        4.185   0.420   2.800  0.00  0.00    -0.040 A 
ATOM     20  C   LIG    1        4.967   0.051   3.862  0.00  0.00    +0.150 A 
ATOM     21  C   LIG    1        4.418  -0.798   4.835  0.00  0.00    -0.110 A 
ATOM     22  C   LIG    1        3.098  -1.230   4.689  0.00  0.00    +0.360 A 
ATOM     23  N   LIG    1        2.379  -0.846   3.655  0.00  0.00    -0.520 NA
BRANCH  21  24
ATOM     24  C   LIG    1        5.199  -1.215   5.960  0.00  0.00    +0.260 C 
ATOM     25  N   LIG    1        5.819  -1.546   6.852  0.00  0.00    -0.410 NA
ENDBRANCH  21  24
ENDBRANCH   5  18
TORSDOF 3
