REMARK  Name = ZINCqH0000050qcF.0
REMARK                            x       y       z     vdW  Elec       q    Type
REMARK                         _______ _______ _______ _____ _____    ______ ____
ROOT
ATOM      1  N   LIG    1        1.685   5.950   0.017  0.00  0.00    -0.670 N 
ATOM      2  H   LIG    1        2.264   5.334   0.493  0.00  0.00    +0.430 HD
ATOM      3  C   LIG    1        0.553   5.501  -0.561  0.00  0.00    +0.720 C 
ATOM      4  N   LIG    1        0.273   4.182  -0.559  0.00  0.00    -0.550 N 
ATOM      5  C   LIG    1       -0.923   3.579  -1.154  0.00  0.00    +0.330 C 
ATOM      6  C   LIG    1       -0.783   2.069  -0.895  0.00  0.00    +0.120 C 
ATOM      7  C   LIG    1        0.524   1.934  -0.149  0.00  0.00    -0.170 A 
ATOM      8  C   LIG    1        1.180   0.824   0.349  0.00  0.00    +0.150 A 
ATOM      9  C   LIG    1        2.390   1.009   1.007  0.00  0.00    -0.180 A 
ATOM     10  C   LIG    1        2.893   2.290   1.129  0.00  0.00    +0.360 A 
ATOM     11  N   LIG    1        2.243   3.325   0.643  0.00  0.00    -0.520 NA
ATOM     12 BR   LIG    1        3.333  -0.467   1.719  0.00  0.00    -0.020 Br
ATOM     13  C   LIG    1        1.078   3.196   0.009  0.00  0.00    +0.370 A 
ATOM     14  O   LIG    1       -0.215   6.285  -1.083  0.00  0.00    -0.550 OA
ENDROOT
BRANCH   1  19
ATOM     15  C   LIG    1        3.078  11.443  -0.335  0.00  0.00    +0.090 C 
ATOM     16  C   LIG    1        2.707   9.985  -0.241  0.00  0.00    -0.090 A 
ATOM     17  C   LIG    1        3.694   9.019  -0.261  0.00  0.00    +0.050 A 
ATOM     18  C   LIG    1        3.358   7.682  -0.169  0.00  0.00    +0.010 A 
ATOM     19  C   LIG    1        2.025   7.304  -0.070  0.00  0.00    +0.160 A 
ATOM     20  C   LIG    1        1.031   8.272  -0.050  0.00  0.00    +0.040 A 
ATOM     21  C   LIG    1        1.372   9.614  -0.136  0.00  0.00    +0.170 A 
BRANCH  21  22
ATOM     22  N   LIG    1        0.372  10.594  -0.116  0.00  0.00    -0.590 N 
ATOM     23  C   LIG    1       -0.313  11.140  -1.297  0.00  0.00    +0.270 C 
ATOM     24  C   LIG    1       -1.301  12.165  -0.707  0.00  0.00    +0.260 C 
ATOM     25  O   LIG    1       -1.065  12.095   0.729  0.00  0.00    -0.320 OA
ATOM     26  C   LIG    1       -0.112  11.191   0.981  0.00  0.00    +0.650 C 
ATOM     27  O   LIG    1        0.278  10.934   2.103  0.00  0.00    -0.510 OA
ENDBRANCH  21  22
ENDBRANCH   1  19
TORSDOF 2
