REMARK  Name = ZINCrH00000No4L6.0
REMARK                            x       y       z     vdW  Elec       q    Type
REMARK                         _______ _______ _______ _____ _____    ______ ____
ROOT
ATOM      1  C   LIG    1        5.058   3.159  -1.176  0.00  0.00    +0.270 C 
ENDROOT
BRANCH   1   2
ATOM      2  C   LIG    1        4.909   2.467   0.154  0.00  0.00    +0.200 A 
ATOM      3  N   LIG    1        4.953   3.029   1.337  0.00  0.00    -0.290 NA
ATOM      4  N   LIG    1        4.782   2.108   2.222  0.00  0.00    -0.090 NA
ATOM      5  N   LIG    1        4.639   0.972   1.635  0.00  0.00    -0.090 NA
ATOM      6  N   LIG    1        4.711   1.152   0.359  0.00  0.00    -0.280 N 
BRANCH   6   7
ATOM      7  C   LIG    1        4.599   0.118  -0.673  0.00  0.00    +0.160 C 
ATOM      8  C   LIG    1        3.483   0.492  -1.651  0.00  0.00    +0.080 C 
ATOM      9  C   LIG    1        4.273  -1.225  -0.016  0.00  0.00    +0.070 C 
ATOM     10  C   LIG    1        5.924   0.007  -1.430  0.00  0.00    +0.060 C 
ENDBRANCH   6   7
ENDBRANCH   1   2
BRANCH   1  11
ATOM     11  C   LIG    1        5.837   4.462  -0.990  0.00  0.00    -0.080 C 
ATOM     12  C   LIG    1        5.316   5.195   0.248  0.00  0.00    +0.040 C 
ATOM     13  C   LIG    1        5.652   5.348  -2.223  0.00  0.00    +0.040 C 
BRANCH  11  14
ATOM     14  C   LIG    1        7.323   4.146  -0.807  0.00  0.00    +0.030 C 
BRANCH  14  15
ATOM     15  C   LIG    1        8.085   5.437  -0.503  0.00  0.00    +0.190 C 
BRANCH  15  16
ATOM     16  C   LIG    1        9.515   5.133  -0.328  0.00  0.00    +0.200 C 
ATOM     17  N   LIG    1       10.618   4.899  -0.192  0.00  0.00    -0.430 NA
ENDBRANCH  15  16
ENDBRANCH  14  15
ENDBRANCH  11  14
ENDBRANCH   1  11
BRANCH   1  18
ATOM     18  N   LIG    1        3.728   3.457  -1.724  0.00  0.00    -0.510 NA
ATOM     19  C   LIG    1        3.088   4.554  -0.986  0.00  0.00    +0.220 C 
BRANCH  18  20
ATOM     20  C   LIG    1        3.806   3.764  -3.159  0.00  0.00    +0.230 C 
ATOM     21  C   LIG    1        4.306   2.532  -3.917  0.00  0.00    +0.060 C 
BRANCH  20  25
ATOM     22  C   LIG    1       -0.063   5.723  -5.823  0.00  0.00    +0.180 C 
ATOM     23  C   LIG    1        0.795   4.994  -4.821  0.00  0.00    -0.030 A 
ATOM     24  C   LIG    1        2.148   4.953  -4.790  0.00  0.00    -0.060 A 
ATOM     25  C   LIG    1        2.440   4.145  -3.667  0.00  0.00    +0.020 A 
ATOM     26  N   LIG    1        1.293   3.796  -3.158  0.00  0.00    -0.340 NA
ATOM     27  O   LIG    1        0.369   4.259  -3.785  0.00  0.00    +0.100 OA
ENDBRANCH  20  25
ENDBRANCH  18  20
ENDBRANCH   1  18
TORSDOF 9
