REMARK  Name = ZINCpk00000KfLTl.0
REMARK                            x       y       z     vdW  Elec       q    Type
REMARK                         _______ _______ _______ _____ _____    ______ ____
ROOT
ATOM      1  C   LIG    1       -1.319   3.579  -2.393  0.00  0.00    +0.410 A 
ATOM      2  N   LIG    1       -1.657   2.753  -3.371  0.00  0.00    -0.510 NA
ATOM      3  C   LIG    1       -2.323   3.171  -4.431  0.00  0.00    +0.430 A 
ATOM      4  C   LIG    1       -2.682   4.497  -4.563  0.00  0.00    -0.750 A 
ATOM      5  C   LIG    1       -2.341   5.398  -3.562  0.00  0.00    +0.250 A 
ATOM      6  C   LIG    1       -1.649   4.929  -2.461  0.00  0.00    -0.230 A 
ENDROOT
BRANCH   1  11
ATOM      7  C   LIG    1        1.392   0.579   1.440  0.00  0.00    +0.190 C 
ATOM      8  N   LIG    1        0.656   1.091   0.276  0.00  0.00    -0.550 NA
ATOM      9  C   LIG    1        1.447   2.098  -0.446  0.00  0.00    +0.200 C 
ATOM     10  C   LIG    1        0.681   2.547  -1.692  0.00  0.00    +0.210 C 
ATOM     11  N   LIG    1       -0.623   3.094  -1.292  0.00  0.00    -0.500 N 
ATOM     12  C   LIG    1       -1.414   2.087  -0.571  0.00  0.00    +0.210 C 
ATOM     13  C   LIG    1       -0.648   1.637   0.675  0.00  0.00    +0.200 C 
ENDBRANCH   1  11
BRANCH   6  14
ATOM     14  C   LIG    1       -1.258   5.867  -1.349  0.00  0.00    +0.530 C 
ATOM     15  F   LIG    1        0.135   5.873  -1.212  0.00  0.00    -0.170 F 
ATOM     16  F   LIG    1       -1.842   5.441  -0.151  0.00  0.00    -0.170 F 
ATOM     17  F   LIG    1       -1.702   7.159  -1.650  0.00  0.00    -0.180 F 
ENDBRANCH   6  14
BRANCH   4  18
ATOM     18  S   LIG    1       -3.565   5.043  -5.988  0.00  0.00    +2.710 S 
ATOM     19  O   LIG    1       -4.248   6.229  -5.606  0.00  0.00    -0.940 OA
ATOM     20  O   LIG    1       -4.226   3.899  -6.512  0.00  0.00    -0.940 OA
BRANCH  18  21
ATOM     21  N   LIG    1       -2.442   5.493  -7.118  0.00  0.00    -1.110 NA
ATOM     22  H   LIG    1       -2.381   6.419  -7.399  0.00  0.00    +0.420 HD
BRANCH  21  23
ATOM     23  C   LIG    1       -1.541   4.492  -7.694  0.00  0.00    +0.270 C 
BRANCH  23  24
ATOM     24  C   LIG    1       -0.878   5.064  -8.949  0.00  0.00    +0.010 C 
BRANCH  24  25
ATOM     25  C   LIG    1        0.063   4.019  -9.551  0.00  0.00    +0.220 C 
ATOM     26  F   LIG    1        0.669   4.542 -10.698  0.00  0.00    -0.210 F 
ENDBRANCH  24  25
ENDBRANCH  23  24
ENDBRANCH  21  23
ENDBRANCH  18  21
ENDBRANCH   4  18
TORSDOF 7
