REMARK  Name = ZINCrH00000tj1iH.0
REMARK                            x       y       z     vdW  Elec       q    Type
REMARK                         _______ _______ _______ _____ _____    ______ ____
ROOT
ATOM      1  C   LIG    1        1.045  -4.990   0.434  0.00  0.00    +0.510 C 
ATOM      2  N   LIG    1       -0.197  -4.466   0.430  0.00  0.00    -0.650 N 
ATOM      3  H   LIG    1       -0.965  -5.040   0.287  0.00  0.00    +0.430 HD
ATOM      4  O   LIG    1        2.006  -4.271   0.612  0.00  0.00    -0.430 OA
ENDROOT
BRANCH   2   5
ATOM      5  C   LIG    1       -0.377  -3.098   0.631  0.00  0.00    +0.410 A 
ATOM      6  N   LIG    1        0.675  -2.319   0.826  0.00  0.00    -0.460 NA
ATOM      7  C   LIG    1        0.549  -1.020   1.021  0.00  0.00    +0.390 A 
ATOM      8  C   LIG    1       -0.696  -0.423   1.029  0.00  0.00    -0.260 A 
ATOM      9  C   LIG    1       -1.826  -1.205   0.834  0.00  0.00    +0.180 A 
ATOM     10  C   LIG    1       -1.662  -2.564   0.626  0.00  0.00    -0.130 A 
ATOM     11 CL   LIG    1       -3.040  -3.588   0.370  0.00  0.00    -0.030 Cl
BRANCH   8  12
ATOM     12  C   LIG    1       -0.826   1.061   1.253  0.00  0.00    +0.520 C 
ATOM     13  F   LIG    1       -1.600   1.294   2.396  0.00  0.00    -0.170 F 
ATOM     14  F   LIG    1       -1.444   1.648   0.144  0.00  0.00    -0.170 F 
ATOM     15  F   LIG    1        0.445   1.620   1.429  0.00  0.00    -0.170 F 
ENDBRANCH   8  12
ENDBRANCH   2   5
BRANCH   1  16
ATOM     16  C   LIG    1        1.240  -6.468   0.216  0.00  0.00    +0.270 C 
BRANCH  16  17
ATOM     17  O   LIG    1        2.657  -6.782   0.264  0.00  0.00    -0.330 OA
BRANCH  17  18
ATOM     18  C   LIG    1        3.003  -8.066   0.087  0.00  0.00    +0.470 C 
ATOM     19  O   LIG    1        2.151  -8.901  -0.103  0.00  0.00    -0.480 OA
BRANCH  18  21
ATOM     20  C   LIG    1        5.218  -7.724  -0.974  0.00  0.00    +0.070 C 
ATOM     21  C   LIG    1        4.455  -8.467   0.125  0.00  0.00    +0.220 C 
BRANCH  21  22
ATOM     22  O   LIG    1        4.566  -9.876  -0.088  0.00  0.00    -0.290 OA
BRANCH  22  23
ATOM     23  C   LIG    1        5.671 -10.491   0.410  0.00  0.00    +0.130 A 
ATOM     24  C   LIG    1        5.787 -11.871   0.345  0.00  0.00    -0.020 A 
ATOM     25  C   LIG    1        6.914 -12.493   0.847  0.00  0.00    +0.050 A 
ATOM     26  C   LIG    1        7.921 -11.741   1.424  0.00  0.00    -0.020 A 
ATOM     27  C   LIG    1        7.805 -10.365   1.496  0.00  0.00    +0.050 A 
ATOM     28  C   LIG    1        6.682  -9.738   0.990  0.00  0.00    -0.080 A 
ENDBRANCH  22  23
ENDBRANCH  21  22
ENDBRANCH  18  21
ENDBRANCH  17  18
ENDBRANCH  16  17
ENDBRANCH   1  16
TORSDOF 8
