REMARK  Name = ZINCrH000004ttJy.1
REMARK                            x       y       z     vdW  Elec       q    Type
REMARK                         _______ _______ _______ _____ _____    ______ ____
ROOT
ATOM      1  C   LIG    1       -1.171  -0.903   0.009  0.00  0.00    -0.030 A 
ATOM      2  C   LIG    1       -0.994  -2.287  -0.005  0.00  0.00    +0.090 A 
ATOM      3  C   LIG    1       -2.093  -3.121   0.006  0.00  0.00    +0.020 A 
ATOM      4  C   LIG    1       -3.370  -2.587   0.021  0.00  0.00    +0.060 A 
ATOM      5  C   LIG    1       -3.553  -1.215   0.031  0.00  0.00    -0.120 A 
ATOM      6  C   LIG    1       -2.462  -0.371   0.025  0.00  0.00    +0.100 A 
ENDROOT
BRANCH   1  10
ATOM      7  C   LIG    1        1.972   0.780  -0.013  0.00  0.00    +0.140 A 
ATOM      8  N   LIG    1        1.120   1.762   0.001  0.00  0.00    -0.370 NA
ATOM      9  O   LIG    1       -0.016   1.338   0.009  0.00  0.00    +0.090 OA
ATOM     10  C   LIG    1        0.002  -0.004   0.002  0.00  0.00    +0.230 A 
ATOM     11  N   LIG    1        1.273  -0.365  -0.012  0.00  0.00    -0.470 NA
BRANCH   7  12
ATOM     12  C   LIG    1        3.474   0.905  -0.026  0.00  0.00    +0.210 C 
ATOM     13  C   LIG    1        4.069   0.266   1.246  0.00  0.00    +0.050 C 
ATOM     14  C   LIG    1        5.255   1.193   1.616  0.00  0.00    +0.030 C 
ATOM     15  C   LIG    1        4.707   2.602   1.280  0.00  0.00    +0.020 C 
ATOM     16  C   LIG    1        3.879   2.390  -0.005  0.00  0.00    +0.040 C 
BRANCH  12  17
ATOM     17  N   LIG    1        4.022   0.251  -1.222  0.00  0.00    -0.810 NA
ATOM     18  H   LIG    1        3.720   0.721  -2.062  0.00  0.00    +0.340 HD
ATOM     19  H   LIG    1        3.775  -0.727  -1.245  0.00  0.00    +0.350 HD
ENDBRANCH  12  17
ENDBRANCH   7  12
ENDBRANCH   1  10
BRANCH   5  20
ATOM     20  C   LIG    1       -4.947  -0.643   0.047  0.00  0.00    +0.390 C 
BRANCH  20  21
ATOM     21  N   LIG    1       -5.411  -0.450  -1.329  0.00  0.00    -0.350 N 
ATOM     22  C   LIG    1       -6.547  -0.950  -1.861  0.00  0.00    +0.250 A 
ATOM     23  C   LIG    1       -6.611  -0.546  -3.151  0.00  0.00    -0.070 A 
ATOM     24  C   LIG    1       -5.476   0.227  -3.416  0.00  0.00    -0.020 A 
ATOM     25  N   LIG    1       -4.759   0.290  -2.323  0.00  0.00    -0.230 NA
BRANCH  24  26
ATOM     26  C   LIG    1       -5.140   0.881  -4.732  0.00  0.00    +0.560 C 
ATOM     27  F   LIG    1       -5.670   0.120  -5.779  0.00  0.00    -0.160 F 
ATOM     28  F   LIG    1       -3.750   0.961  -4.871  0.00  0.00    -0.170 F 
ATOM     29  F   LIG    1       -5.687   2.168  -4.767  0.00  0.00    -0.170 F 
ENDBRANCH  24  26
ENDBRANCH  20  21
ENDBRANCH   5  20
TORSDOF 6
