REMARK  Name = ZINCnE000008JhHf.0
REMARK                            x       y       z     vdW  Elec       q    Type
REMARK                         _______ _______ _______ _____ _____    ______ ____
ROOT
ATOM      1  C   LIG    1       -1.662   4.091  -0.142  0.00  0.00    +0.240 C 
ATOM      2  C   LIG    1       -1.935   4.398  -1.617  0.00  0.00    +0.050 C 
ATOM      3  C   LIG    1       -2.734   5.699  -1.723  0.00  0.00    +0.000 C 
ATOM      4  C   LIG    1       -4.034   5.557  -0.926  0.00  0.00    +0.020 C 
ATOM      5  C   LIG    1       -3.701   5.217   0.528  0.00  0.00    +0.140 C 
ATOM      6  N   LIG    1       -2.937   3.964   0.576  0.00  0.00    -0.500 NA
ENDROOT
BRANCH   1  10
ATOM      7  O   LIG    1       -0.559  -0.544   0.393  0.00  0.00    -0.660 OA
ATOM      8  C   LIG    1       -0.440   0.656   0.220  0.00  0.00    +0.570 A 
ATOM      9  N   LIG    1       -1.440   1.558   0.176  0.00  0.00    -0.640 NA
ATOM     10  C   LIG    1       -0.892   2.801  -0.032  0.00  0.00    +0.220 A 
ATOM     11  N   LIG    1        0.393   2.680  -0.124  0.00  0.00    -0.400 NA
ATOM     12  N   LIG    1        0.716   1.325   0.032  0.00  0.00    -0.590 N 
ATOM     13  H   LIG    1        1.606   0.940   0.009  0.00  0.00    +0.400 HD
ENDBRANCH   1  10
BRANCH   6  14
ATOM     14  C   LIG    1       -2.718   3.534   1.964  0.00  0.00    +0.210 C 
BRANCH  14  15
ATOM     15  C   LIG    1       -4.056   3.503   2.705  0.00  0.00    +0.180 C 
BRANCH  15  16
ATOM     16  O   LIG    1       -4.921   2.548   2.088  0.00  0.00    -0.260 OA
BRANCH  16  17
ATOM     17  C   LIG    1       -6.159   2.397   2.629  0.00  0.00    +0.160 A 
ATOM     18  C   LIG    1       -6.530   3.147   3.734  0.00  0.00    -0.060 A 
ATOM     19  C   LIG    1       -7.791   2.995   4.280  0.00  0.00    +0.070 A 
ATOM     20  C   LIG    1       -8.679   2.087   3.731  0.00  0.00    -0.070 A 
ATOM     21  C   LIG    1       -8.309   1.333   2.631  0.00  0.00    +0.090 A 
ATOM     22 CL   LIG    1      -10.259   1.894   4.423  0.00  0.00    -0.070 Cl
ATOM     23  C   LIG    1       -7.051   1.486   2.079  0.00  0.00    -0.060 A 
ATOM     24 CL   LIG    1       -6.587   0.539   0.700  0.00  0.00    -0.030 Cl
ENDBRANCH  16  17
ENDBRANCH  15  16
ENDBRANCH  14  15
ENDBRANCH   6  14
TORSDOF 5
