REMARK  Name = ZINCkj00000y7ECS.0
REMARK                            x       y       z     vdW  Elec       q    Type
REMARK                         _______ _______ _______ _____ _____    ______ ____
ROOT
ATOM      1  C   LIG    1       -0.633   3.569  -1.123  0.00  0.00    +0.290 C 
ENDROOT
BRANCH   1   2
ATOM      2  N   LIG    1       -0.725   2.103  -1.123  0.00  0.00    -0.510 NA
ATOM      3  C   LIG    1       -0.281   1.548  -2.408  0.00  0.00    +0.180 C 
ATOM      4  C   LIG    1       -0.485   0.028  -2.364  0.00  0.00    +0.240 C 
ATOM      5  O   LIG    1        0.310  -0.498  -1.303  0.00  0.00    -0.380 OA
ATOM      6  C   LIG    1        0.002  -0.004   0.002  0.00  0.00    +0.210 C 
ATOM      7  C   LIG    1        1.227  -0.320   0.899  0.00  0.00    +0.290 C 
ATOM      8  N   LIG    1        2.106   0.865   0.864  0.00  0.00    -0.510 N 
ATOM      9  C   LIG    1        1.481   1.891  -0.002  0.00  0.00    +0.220 C 
ATOM     10  H   LIG    1        3.006   0.608   0.488  0.00  0.00    +0.430 HD
ATOM     11  H   LIG    1        2.219   1.231   1.798  0.00  0.00    +0.430 HD
ATOM     12  C   LIG    1       -0.019   1.538   0.011  0.00  0.00    +0.180 C 
ENDBRANCH   1   2
BRANCH   1  19
ATOM     13  C   LIG    1       -0.408   4.338  -3.586  0.00  0.00    +0.090 A 
ATOM     14  N   LIG    1       -1.211   4.799  -4.510  0.00  0.00    -0.260 NA
ATOM     15  N   LIG    1       -2.500   4.884  -3.968  0.00  0.00    -0.360 N 
ATOM     16  C   LIG    1       -2.443   4.452  -2.690  0.00  0.00    +0.150 A 
ATOM     17 CL   LIG    1       -3.774   4.358  -1.580  0.00  0.00    +0.010 Cl
ATOM     18  C   LIG    1       -3.699   5.357  -4.664  0.00  0.00    +0.370 C 
ATOM     19  C   LIG    1       -1.159   4.105  -2.429  0.00  0.00    -0.240 A 
BRANCH  13  21
ATOM     20  C   LIG    1        1.308   3.082  -4.861  0.00  0.00    +0.050 C 
ATOM     21  C   LIG    1        1.072   4.097  -3.741  0.00  0.00    +0.070 C 
ATOM     22  C   LIG    1        1.769   5.413  -4.091  0.00  0.00    +0.050 C 
ENDBRANCH  13  21
ENDBRANCH   1  19
TORSDOF 3
