REMARK  Name = ZINCpe000027pHj2.0
REMARK                            x       y       z     vdW  Elec       q    Type
REMARK                         _______ _______ _______ _____ _____    ______ ____
ROOT
ATOM      1  S   LIG    1       -0.262   0.273  -0.018  0.00  0.00    +2.700 S 
ATOM      2  O   LIG    1        0.925  -0.143  -0.679  0.00  0.00    -0.960 OA
ATOM      3  O   LIG    1       -1.565  -0.028  -0.499  0.00  0.00    -0.950 OA
ENDROOT
BRANCH   1   7
ATOM      4  C   LIG    1       -0.035   4.786   0.313  0.00  0.00    +0.160 A 
ATOM      5  C   LIG    1       -1.263   4.147   0.348  0.00  0.00    -0.050 A 
ATOM      6  C   LIG    1       -1.330   2.770   0.241  0.00  0.00    +0.140 A 
ATOM      7  C   LIG    1       -0.171   2.028   0.111  0.00  0.00    -0.680 A 
ATOM      8  C   LIG    1        1.058   2.659   0.074  0.00  0.00    +0.070 A 
ATOM      9  C   LIG    1        1.131   4.039   0.175  0.00  0.00    +0.080 A 
BRANCH   4  11
ATOM     10  C   LIG    1       -1.205   6.843   0.552  0.00  0.00    +0.250 C 
ATOM     11  O   LIG    1        0.032   6.141   0.413  0.00  0.00    -0.300 OA
ENDBRANCH   4  11
BRANCH   9  12
ATOM     12  O   LIG    1        2.340   4.662   0.141  0.00  0.00    -0.300 OA
ATOM     13  C   LIG    1        3.494   3.831  -0.002  0.00  0.00    +0.250 C 
ENDBRANCH   9  12
ENDBRANCH   1   7
BRANCH   1  14
ATOM     14  N   LIG    1       -0.179  -0.336   1.520  0.00  0.00    -1.120 NA
ATOM     15  H   LIG    1        0.579  -0.880   1.786  0.00  0.00    +0.420 HD
BRANCH  14  16
ATOM     16  C   LIG    1       -1.251  -0.055   2.478  0.00  0.00    +0.300 C 
BRANCH  16  17
ATOM     17  C   LIG    1       -1.135  -1.010   3.668  0.00  0.00    +0.060 C 
BRANCH  17  18
ATOM     18  C   LIG    1       -2.238  -0.720   4.653  0.00  0.00    +0.500 C 
ATOM     19  O   LIG    1       -3.040   0.166   4.426  0.00  0.00    -0.520 OA
BRANCH  18  20
ATOM     20  N   LIG    1       -2.334  -1.431   5.769  0.00  0.00    -0.610 NA
ATOM     21  C   LIG    1       -3.484  -2.034   6.079  0.00  0.00    +0.370 A 
ATOM     22  S   LIG    1       -3.880  -2.817   7.561  0.00  0.00    +0.180 S 
ATOM     23  C   LIG    1       -5.516  -3.276   7.056  0.00  0.00    -0.050 A 
ATOM     24  C   LIG    1       -5.644  -2.820   5.817  0.00  0.00    +0.260 A 
ATOM     25  N   LIG    1       -4.577  -2.162   5.292  0.00  0.00    -0.520 N 
ATOM     26  C   LIG    1       -4.608  -1.616   3.933  0.00  0.00    +0.330 C 
ENDBRANCH  18  20
ENDBRANCH  17  18
ENDBRANCH  16  17
ENDBRANCH  14  16
ENDBRANCH   1  14
TORSDOF 8
