REMARK  Name = ZINCpk00000y6xoe.0
REMARK                            x       y       z     vdW  Elec       q    Type
REMARK                         _______ _______ _______ _____ _____    ______ ____
ROOT
ATOM      1  N   LIG    1       -3.656  -0.864  -3.472  0.00  0.00    -0.480 N 
ATOM      2  C   LIG    1       -3.365  -2.141  -2.805  0.00  0.00    +0.220 C 
ATOM      3  C   LIG    1       -2.923  -1.872  -1.365  0.00  0.00    +0.280 C 
ATOM      4  N   LIG    1       -1.727  -1.018  -1.371  0.00  0.00    -0.390 N 
ATOM      5  C   LIG    1       -2.041   0.263  -2.018  0.00  0.00    +0.270 C 
ATOM      6  H   LIG    1       -0.988  -1.479  -1.880  0.00  0.00    +0.420 HD
ATOM      7  C   LIG    1       -2.476   0.011  -3.464  0.00  0.00    +0.220 C 
ENDROOT
BRANCH   1  14
ATOM      8  O   LIG    1       -5.703  -2.524  -9.368  0.00  0.00    -0.550 OA
ATOM      9  C   LIG    1       -5.528  -1.487  -8.758  0.00  0.00    +0.500 C 
ATOM     10  N   LIG    1       -5.781  -0.300  -9.329  0.00  0.00    -0.950 NA
ATOM     11  S   LIG    1       -5.415   0.851  -8.173  0.00  0.00    +2.540 S 
ATOM     12  C   LIG    1       -4.896  -0.204  -6.849  0.00  0.00    -0.610 A 
ATOM     13  C   LIG    1       -4.455   0.014  -5.578  0.00  0.00    +0.110 A 
ATOM     14  C   LIG    1       -4.113  -1.072  -4.769  0.00  0.00    +0.070 A 
ATOM     15  C   LIG    1       -4.240  -2.364  -5.270  0.00  0.00    -0.010 A 
ATOM     16  C   LIG    1       -4.690  -2.581  -6.549  0.00  0.00    +0.090 A 
ATOM     17  O   LIG    1       -4.271   1.562  -8.627  0.00  0.00    -0.990 OA
ATOM     18  O   LIG    1       -6.634   1.465  -7.779  0.00  0.00    -0.990 OA
ATOM     19  C   LIG    1       -5.032  -1.497  -7.378  0.00  0.00    -0.110 A 
ENDBRANCH   1  14
BRANCH   4  20
ATOM     20  C   LIG    1       -1.293  -0.775   0.011  0.00  0.00    +0.330 C 
BRANCH  20  21
ATOM     21  C   LIG    1        0.002  -0.004   0.002  0.00  0.00    -0.160 A 
ATOM     22  C   LIG    1       -0.017   1.378   0.010  0.00  0.00    +0.030 A 
ATOM     23  C   LIG    1        1.171   2.086   0.002  0.00  0.00    +0.030 A 
ATOM     24  C   LIG    1        2.377   1.411  -0.015  0.00  0.00    +0.050 A 
ATOM     25  C   LIG    1        2.396   0.029  -0.022  0.00  0.00    +0.030 A 
ATOM     26  C   LIG    1        1.208  -0.679  -0.013  0.00  0.00    +0.040 A 
ENDBRANCH  20  21
ENDBRANCH   4  20
TORSDOF 3
