REMARK  Name = ZINCvU0000000Fsc.0
REMARK                            x       y       z     vdW  Elec       q    Type
REMARK                         _______ _______ _______ _____ _____    ______ ____
ROOT
ATOM      1  N   LIG    1        3.505  -1.642  -0.317  0.00  0.00    -0.420 N 
ATOM      2  N   LIG    1        2.366  -2.447  -0.266  0.00  0.00    -0.200 NA
ATOM      3  C   LIG    1        1.165  -1.956  -0.099  0.00  0.00    +0.180 A 
ATOM      4  C   LIG    1        0.981  -0.504   0.042  0.00  0.00    -0.050 A 
ATOM      5  C   LIG    1       -0.280   0.062   0.221  0.00  0.00    +0.050 A 
ATOM      6  C   LIG    1       -0.400   1.429   0.347  0.00  0.00    +0.050 A 
ATOM      7  C   LIG    1        0.720   2.247   0.299  0.00  0.00    +0.030 A 
ATOM      8  C   LIG    1        1.976   1.709   0.123  0.00  0.00    +0.090 A 
ATOM      9  C   LIG    1        2.120   0.328  -0.007  0.00  0.00    -0.130 A 
ATOM     10  C   LIG    1        3.434  -0.300  -0.197  0.00  0.00    +0.530 A 
ATOM     11  O   LIG    1        4.444   0.379  -0.246  0.00  0.00    -0.520 OA
ENDROOT
BRANCH   3  12
ATOM     12  C   LIG    1       -0.007  -2.861  -0.052  0.00  0.00    -0.030 A 
ATOM     13  C   LIG    1       -0.380  -3.582  -1.186  0.00  0.00    +0.050 A 
ATOM     14  C   LIG    1       -1.470  -4.428  -1.135  0.00  0.00    -0.090 A 
ATOM     15  C   LIG    1       -2.198  -4.552   0.034  0.00  0.00    +0.030 A 
ATOM     16  C   LIG    1       -1.836  -3.835   1.161  0.00  0.00    +0.020 A 
ATOM     17  C   LIG    1       -1.870  -5.212  -2.358  0.00  0.00    +0.090 C 
ATOM     18  C   LIG    1       -0.746  -2.991   1.124  0.00  0.00    -0.060 A 
ATOM     19  C   LIG    1       -0.353  -2.210   2.352  0.00  0.00    +0.090 C 
ENDBRANCH   3  12
BRANCH   1  20
ATOM     20  C   LIG    1        4.814  -2.272  -0.507  0.00  0.00    +0.480 C 
BRANCH  20  21
ATOM     21  N   LIG    1        5.233  -2.916   0.745  0.00  0.00    -0.550 NA
ATOM     22  C   LIG    1        5.811  -1.935   1.674  0.00  0.00    +0.190 C 
BRANCH  21  23
ATOM     23  C   LIG    1        6.176  -4.011   0.484  0.00  0.00    +0.240 C 
BRANCH  23  27
ATOM     24  C   LIG    1        6.793  -6.249   4.072  0.00  0.00    -0.080 A 
ATOM     25  C   LIG    1        5.774  -6.605   3.196  0.00  0.00    +0.030 A 
ATOM     26  C   LIG    1        5.578  -5.879   2.038  0.00  0.00    +0.060 A 
ATOM     27  C   LIG    1        6.393  -4.800   1.749  0.00  0.00    -0.080 A 
ATOM     28  C   LIG    1        7.411  -4.447   2.616  0.00  0.00    +0.030 A 
ATOM     29  C   LIG    1        7.610  -5.165   3.779  0.00  0.00    -0.020 A 
BRANCH  24  31
ATOM     30  C   LIG    1        8.455  -6.328   6.322  0.00  0.00    +0.130 C 
ATOM     31  S   LIG    1        7.047  -7.172   5.552  0.00  0.00    -0.120 S 
ENDBRANCH  24  31
ENDBRANCH  23  27
ENDBRANCH  21  23
ENDBRANCH  20  21
ENDBRANCH   1  20
TORSDOF 6
