REMARK  Name = ZINCvU0000000H3N.0
REMARK                            x       y       z     vdW  Elec       q    Type
REMARK                         _______ _______ _______ _____ _____    ______ ____
ROOT
ATOM      1  C   LIG    1        1.271   0.210   6.075  0.00  0.00    +0.030 A 
ATOM      2  C   LIG    1        0.436   0.793   7.023  0.00  0.00    +0.030 A 
ATOM      3  C   LIG    1        0.703   0.604   8.383  0.00  0.00    +0.200 A 
ATOM      4  N   LIG    1        1.732  -0.103   8.808  0.00  0.00    -0.450 NA
ATOM      5  C   LIG    1        2.588  -0.693   7.970  0.00  0.00    +0.140 A 
ATOM      6  C   LIG    1        3.676  -1.441   8.452  0.00  0.00    +0.050 A 
ATOM      7  C   LIG    1        4.533  -2.031   7.573  0.00  0.00    +0.040 A 
ATOM      8  C   LIG    1        4.350  -1.907   6.199  0.00  0.00    +0.030 A 
ATOM      9  C   LIG    1        3.305  -1.189   5.695  0.00  0.00    +0.060 A 
ATOM     10  C   LIG    1        2.407  -0.571   6.570  0.00  0.00    -0.070 A 
ENDROOT
BRANCH   3  11
ATOM     11  C   LIG    1       -0.200   1.225   9.382  0.00  0.00    -0.050 A 
ATOM     12  C   LIG    1       -1.292   1.983   8.963  0.00  0.00    +0.050 A 
ATOM     13  C   LIG    1       -2.131   2.555   9.896  0.00  0.00    +0.030 A 
ATOM     14  C   LIG    1       -1.884   2.386  11.248  0.00  0.00    -0.020 A 
ATOM     15  C   LIG    1       -0.797   1.639  11.670  0.00  0.00    +0.030 A 
ATOM     16 CL   LIG    1       -2.940   3.115  12.418  0.00  0.00    -0.060 Cl
ATOM     17  C   LIG    1        0.045   1.059  10.744  0.00  0.00    +0.090 A 
ENDBRANCH   3  11
BRANCH   1  21
ATOM     18  C   LIG    1        0.174   0.961   2.735  0.00  0.00    +0.130 A 
ATOM     19  N   LIG    1        1.241   0.220   2.528  0.00  0.00    -0.290 NA
ATOM     20  N   LIG    1        1.751  -0.123   3.658  0.00  0.00    -0.250 NA
ATOM     21  C   LIG    1        1.026   0.377   4.632  0.00  0.00    +0.210 A 
ATOM     22  O   LIG    1        0.014   1.073   4.067  0.00  0.00    -0.190 OA
BRANCH  18  23
ATOM     23  S   LIG    1       -0.860   1.669   1.497  0.00  0.00    +0.160 S 
BRANCH  23  24
ATOM     24  C   LIG    1       -0.013   1.086   0.008  0.00  0.00    +0.090 C 
BRANCH  24  26
ATOM     25  N   LIG    1       -0.288   1.272  -2.443  0.00  0.00    -0.600 N 
ATOM     26  C   LIG    1       -0.742   1.585  -1.213  0.00  0.00    +0.540 C 
ATOM     27  O   LIG    1       -1.736   2.268  -1.088  0.00  0.00    -0.520 OA
BRANCH  25  29
ATOM     28  C   LIG    1        0.514  -1.029  -2.644  0.00  0.00    +0.020 C 
ATOM     29  C   LIG    1        0.913   0.447  -2.593  0.00  0.00    +0.270 C 
ENDBRANCH  25  29
BRANCH  25  30
ATOM     30  C   LIG    1       -0.997   1.758  -3.630  0.00  0.00    +0.280 C 
ATOM     31  C   LIG    1       -0.427   3.116  -4.045  0.00  0.00    +0.020 C 
ENDBRANCH  25  30
ENDBRANCH  24  26
ENDBRANCH  23  24
ENDBRANCH  18  23
ENDBRANCH   1  21
TORSDOF 7
