REMARK  Name = ZINCtV00001bB3hg.0
REMARK                            x       y       z     vdW  Elec       q    Type
REMARK                         _______ _______ _______ _____ _____    ______ ____
ROOT
ATOM      1  C   LIG    1       -1.384  -4.585  -0.151  0.00  0.00    -0.050 A 
ATOM      2  C   LIG    1       -2.631  -4.064  -0.506  0.00  0.00    +0.070 A 
ATOM      3  C   LIG    1       -3.751  -4.865  -0.454  0.00  0.00    +0.010 A 
ATOM      4  C   LIG    1       -3.642  -6.188  -0.040  0.00  0.00    +0.170 A 
ATOM      5  C   LIG    1       -2.404  -6.710   0.318  0.00  0.00    +0.010 A 
ATOM      6  C   LIG    1       -1.279  -5.916   0.264  0.00  0.00    +0.050 A 
ENDROOT
BRANCH   1   8
ATOM      7  N   LIG    1       -0.282  -2.497  -0.596  0.00  0.00    -0.230 NA
ATOM      8  C   LIG    1       -0.183  -3.733  -0.210  0.00  0.00    +0.210 C 
BRANCH   7   9
ATOM      9  N   LIG    1        0.860  -1.687  -0.651  0.00  0.00    -0.580 N 
ATOM     10  H   LIG    1        1.724  -2.049  -0.401  0.00  0.00    +0.390 HD
BRANCH   9  17
ATOM     11  C   LIG    1        3.229  -0.114  -0.734  0.00  0.00    +0.090 C 
ATOM     12  C   LIG    1        1.885   0.447  -1.121  0.00  0.00    -0.150 A 
ATOM     13  C   LIG    1        1.776   1.760  -1.532  0.00  0.00    +0.040 A 
ATOM     14  C   LIG    1        0.542   2.275  -1.888  0.00  0.00    -0.040 A 
ATOM     15  C   LIG    1       -0.586   1.476  -1.834  0.00  0.00    +0.030 A 
ATOM     16  C   LIG    1       -0.484   0.162  -1.425  0.00  0.00    -0.030 A 
ATOM     17  C   LIG    1        0.753  -0.359  -1.066  0.00  0.00    +0.210 A 
ENDBRANCH   9  17
ENDBRANCH   7   9
ENDBRANCH   1   8
BRANCH   4  18
ATOM     18  N   LIG    1       -4.780  -6.996   0.015  0.00  0.00    -0.540 N 
BRANCH  18  19
ATOM     19  C   LIG    1       -4.952  -8.027  -0.912  0.00  0.00    +0.200 A 
ATOM     20  C   LIG    1       -4.056  -8.174  -1.964  0.00  0.00    -0.060 A 
ATOM     21  C   LIG    1       -4.225  -9.197  -2.876  0.00  0.00    +0.040 A 
ATOM     22  C   LIG    1       -5.291 -10.068  -2.750  0.00  0.00    -0.040 A 
ATOM     23  C   LIG    1       -6.188  -9.922  -1.707  0.00  0.00    +0.040 A 
ATOM     24  C   LIG    1       -6.022  -8.905  -0.789  0.00  0.00    -0.060 A 
ENDBRANCH  18  19
BRANCH  18  25
ATOM     25  C   LIG    1       -5.748  -6.773   0.999  0.00  0.00    +0.150 A 
ATOM     26  C   LIG    1       -6.982  -6.235   0.653  0.00  0.00    +0.000 A 
ATOM     27  C   LIG    1       -7.938  -6.021   1.627  0.00  0.00    +0.020 A 
ATOM     28  C   LIG    1       -7.664  -6.331   2.947  0.00  0.00    +0.010 A 
ATOM     29  C   LIG    1       -6.435  -6.861   3.295  0.00  0.00    +0.020 A 
ATOM     30  C   LIG    1       -5.477  -7.083   2.326  0.00  0.00    +0.000 A 
ENDBRANCH  18  25
ENDBRANCH   4  18
TORSDOF 6
