REMARK  Name = ZINCAx0000000hin.0
REMARK                            x       y       z     vdW  Elec       q    Type
REMARK                         _______ _______ _______ _____ _____    ______ ____
ROOT
ATOM      1  C   LIG    1       -1.242   2.121   0.075  0.00  0.00    +0.310 A 
ATOM      2  C   LIG    1       -2.433   1.433  -0.043  0.00  0.00    -0.110 A 
ATOM      3  C   LIG    1       -3.649   2.108  -0.049  0.00  0.00    +0.200 A 
ATOM      4  C   LIG    1       -3.702   3.466   0.062  0.00  0.00    -0.740 A 
ATOM      5  C   LIG    1       -2.516   4.202   0.184  0.00  0.00    +0.110 A 
ATOM      6  C   LIG    1       -2.513   5.604   0.301  0.00  0.00    -0.060 A 
ATOM      7  C   LIG    1       -1.319   6.248   0.415  0.00  0.00    +0.280 A 
ATOM      8  N   LIG    1       -0.167   5.591   0.418  0.00  0.00    -0.490 NA
ATOM      9  C   LIG    1       -0.095   4.284   0.313  0.00  0.00    +0.310 A 
ATOM     10  C   LIG    1       -1.268   3.526   0.196  0.00  0.00    -0.180 A 
ENDROOT
BRANCH   4  11
ATOM     11  S   LIG    1       -5.258   4.293   0.053  0.00  0.00    +2.700 S 
ATOM     12  O   LIG    1       -5.168   5.307  -0.938  0.00  0.00    -0.950 OA
ATOM     13  O   LIG    1       -5.578   4.560   1.412  0.00  0.00    -0.940 OA
BRANCH  11  14
ATOM     14  N   LIG    1       -6.386   3.208  -0.488  0.00  0.00    -0.990 NA
ATOM     15  C   LIG    1       -6.620   3.042  -1.897  0.00  0.00    +0.270 C 
ATOM     16  C   LIG    1       -7.733   3.917  -2.500  0.00  0.00    +0.220 C 
ATOM     17  O   LIG    1       -8.876   3.976  -1.611  0.00  0.00    -0.370 OA
ATOM     18  C   LIG    1       -9.190   2.776  -0.968  0.00  0.00    +0.240 C 
ATOM     19  C   LIG    1       -8.571   2.868   0.425  0.00  0.00    +0.230 C 
ATOM     20  C   LIG    1       -7.183   2.392   0.485  0.00  0.00    +0.310 C 
BRANCH  19  21
ATOM     21  N   LIG    1       -9.380   2.071   1.351  0.00  0.00    -0.380 N 
ATOM     22  C   LIG    1       -9.960   0.885   1.098  0.00  0.00    +0.470 A 
ATOM     23  N   LIG    1      -10.589   0.502   2.179  0.00  0.00    -0.540 NA
ATOM     24  C   LIG    1      -10.442   1.417   3.136  0.00  0.00    +0.420 A 
ATOM     25  N   LIG    1       -9.709   2.397   2.677  0.00  0.00    -0.310 NA
ENDBRANCH  19  21
ENDBRANCH  11  14
ENDBRANCH   4  11
BRANCH   1  26
ATOM     26  N   LIG    1       -0.031   1.436   0.080  0.00  0.00    -0.710 N 
ATOM     27  H   LIG    1        0.803   1.926   0.159  0.00  0.00    +0.400 HD
BRANCH  26  28
ATOM     28  C   LIG    1       -0.015  -0.024  -0.041  0.00  0.00    +0.230 C 
ATOM     29  C   LIG    1       -0.068  -0.414  -1.519  0.00  0.00    +0.030 C 
BRANCH  28  30
ATOM     30  C   LIG    1        1.269  -0.573   0.585  0.00  0.00    +0.140 C 
BRANCH  30  37
ATOM     31  C   LIG    1        2.441   2.037   2.117  0.00  0.00    +0.160 C 
ATOM     32  C   LIG    1        1.773   0.839   2.741  0.00  0.00    +0.020 A 
ATOM     33  N   LIG    1        1.547   0.644   4.008  0.00  0.00    -0.360 NA
ATOM     34  O   LIG    1        0.998  -0.415   4.205  0.00  0.00    +0.100 OA
ATOM     35  C   LIG    1        0.777  -1.076   3.060  0.00  0.00    -0.020 A 
ATOM     36  C   LIG    1        0.117  -2.422   2.908  0.00  0.00    +0.190 C 
ATOM     37  C   LIG    1        1.264  -0.295   2.066  0.00  0.00    -0.210 A 
ENDBRANCH  30  37
ENDBRANCH  28  30
ENDBRANCH  26  28
ENDBRANCH   1  26
TORSDOF 7
