REMARK  Name = ZINCpe00000yKgYs.0
REMARK                            x       y       z     vdW  Elec       q    Type
REMARK                         _______ _______ _______ _____ _____    ______ ____
ROOT
ATOM      1  C   LIG    1        1.381   5.929  -1.042  0.00  0.00    +0.170 C 
ATOM      2  C   LIG    1        2.005   4.815  -0.160  0.00  0.00    +0.080 C 
ATOM      3  C   LIG    1        0.851   3.799  -0.020  0.00  0.00    +0.220 C 
ATOM      4  N   LIG    1       -0.066   4.021  -1.147  0.00  0.00    -0.620 N 
ATOM      5  C   LIG    1       -1.210   3.347  -1.373  0.00  0.00    +0.620 C 
ATOM      6  O   LIG    1       -1.617   2.545  -0.552  0.00  0.00    -0.520 OA
ATOM      7  C   LIG    1        0.474   5.104  -1.989  0.00  0.00    +0.230 C 
ENDROOT
BRANCH   5   8
ATOM      8  C   LIG    1       -1.966   3.579  -2.608  0.00  0.00    -0.040 A 
ATOM      9  C   LIG    1       -3.208   3.062  -2.913  0.00  0.00    +0.080 A 
ATOM     10  C   LIG    1       -3.551   3.537  -4.183  0.00  0.00    -0.130 A 
ATOM     11  C   LIG    1       -2.534   4.319  -4.623  0.00  0.00    +0.220 A 
ATOM     12 CL   LIG    1       -5.017   3.187  -5.044  0.00  0.00    -0.040 Cl
ATOM     13  N   LIG    1       -1.568   4.356  -3.672  0.00  0.00    -0.540 N 
ATOM     14  H   LIG    1       -0.733   4.847  -3.733  0.00  0.00    +0.420 HD
ENDBRANCH   5   8
BRANCH   1  16
ATOM     15  C   LIG    1        2.013   7.945  -2.173  0.00  0.00    +0.210 C 
ATOM     16  O   LIG    1        2.390   6.625  -1.776  0.00  0.00    -0.370 OA
ENDBRANCH   1  16
BRANCH   3  17
ATOM     17  C   LIG    1        1.404   2.373  -0.072  0.00  0.00    +0.260 C 
BRANCH  17  18
ATOM     18  N   LIG    1        0.369   1.432   0.360  0.00  0.00    -0.720 N 
ATOM     19  H   LIG    1       -0.470   1.763   0.717  0.00  0.00    +0.410 HD
ATOM     20  C   LIG    1        0.580   0.104   0.258  0.00  0.00    +0.510 C 
ATOM     21  O   LIG    1        1.627  -0.310  -0.192  0.00  0.00    -0.530 OA
BRANCH  20  22
ATOM     22  C   LIG    1       -0.485  -0.864   0.703  0.00  0.00    +0.210 C 
BRANCH  22  23
ATOM     23  N   LIG    1       -0.016  -2.240   0.490  0.00  0.00    -0.490 NA
ATOM     24  C   LIG    1        1.267  -2.479   1.193  0.00  0.00    +0.210 C 
ATOM     25  C   LIG    1        1.205  -3.914   1.662  0.00  0.00    -0.030 C 
ATOM     26  C   LIG    1       -0.035  -4.332   1.627  0.00  0.00    -0.030 C 
ATOM     27  C   LIG    1       -0.928  -3.217   1.131  0.00  0.00    +0.200 C 
ENDBRANCH  22  23
ENDBRANCH  20  22
ENDBRANCH  17  18
ENDBRANCH   3  17
TORSDOF 6
