REMARK  Name = ZINCpe00000MJK7k.1
REMARK                            x       y       z     vdW  Elec       q    Type
REMARK                         _______ _______ _______ _____ _____    ______ ____
ROOT
ATOM      1  C   LIG    1       -1.349   1.879  -0.165  0.00  0.00    +0.020 A 
ATOM      2  N   LIG    1       -2.490   1.233  -0.135  0.00  0.00    -0.180 NA
ATOM      3  N   LIG    1       -3.622   1.839  -0.083  0.00  0.00    -0.470 N 
ATOM      4  H   LIG    1       -4.439   1.317  -0.058  0.00  0.00    +0.440 HD
ATOM      5  C   LIG    1       -3.698   3.211  -0.068  0.00  0.00    +0.350 A 
ATOM      6  C   LIG    1       -2.497   3.972  -0.105  0.00  0.00    +0.070 A 
ATOM      7  N   LIG    1       -4.866   3.812  -0.021  0.00  0.00    -0.560 NA
ATOM      8  C   LIG    1       -1.319   3.298  -0.154  0.00  0.00    +0.100 A 
ENDROOT
BRANCH   7   9
ATOM      9  C   LIG    1       -6.099   3.026  -0.113  0.00  0.00    +0.100 C 
ATOM     10  C   LIG    1       -6.842   3.391  -1.400  0.00  0.00    +0.030 C 
ATOM     11  C   LIG    1       -8.114   2.546  -1.512  0.00  0.00    +0.020 C 
ATOM     12  C   LIG    1       -9.030   2.849  -0.323  0.00  0.00    +0.290 C 
ATOM     13  N   LIG    1       -8.275   2.640   0.920  0.00  0.00    -0.570 N 
ATOM     14  C   LIG    1       -6.992   3.334   1.093  0.00  0.00    +0.310 C 
BRANCH  13  15
ATOM     15  C   LIG    1       -8.766   1.802   1.914  0.00  0.00    +0.350 A 
ATOM     16  N   LIG    1       -9.839   1.073   1.700  0.00  0.00    -0.510 NA
ATOM     17  C   LIG    1      -10.315   0.267   2.649  0.00  0.00    +0.190 A 
ATOM     18  C   LIG    1       -9.722   0.165   3.857  0.00  0.00    +0.170 A 
ATOM     19  N   LIG    1       -8.606   0.890   4.152  0.00  0.00    -0.590 N 
ATOM     20  H   LIG    1       -8.185   0.812   5.023  0.00  0.00    +0.420 HD
ATOM     21  C   LIG    1       -8.090   1.715   3.213  0.00  0.00    +0.480 A 
ATOM     22  O   LIG    1       -7.090   2.373   3.442  0.00  0.00    -0.530 OA
ENDBRANCH  13  15
ENDBRANCH   7   9
BRANCH   1  25
ATOM     23  N   LIG    1       -0.102  -0.226  -0.230  0.00  0.00    -0.720 N 
ATOM     24  H   LIG    1       -0.949  -0.699  -0.199  0.00  0.00    +0.410 HD
ATOM     25  C   LIG    1       -0.082   1.121  -0.219  0.00  0.00    +0.590 C 
ATOM     26  O   LIG    1        0.979   1.714  -0.257  0.00  0.00    -0.530 OA
BRANCH  23  28
ATOM     27  C   LIG    1        0.852  -2.477  -0.289  0.00  0.00    +0.030 C 
ATOM     28  C   LIG    1        1.155  -0.978  -0.288  0.00  0.00    +0.250 C 
ENDBRANCH  23  28
ENDBRANCH   1  25
TORSDOF 4
