REMARK  Name = ZINCtV00001bB3SE.0
REMARK                            x       y       z     vdW  Elec       q    Type
REMARK                         _______ _______ _______ _____ _____    ______ ____
ROOT
ATOM      1  C   LIG    1       -4.934   0.928   0.030  0.00  0.00    +0.290 A 
ATOM      2  N   LIG    1       -6.130   1.470   0.039  0.00  0.00    -0.470 NA
ATOM      3  C   LIG    1       -7.058   0.480   0.037  0.00  0.00    +0.030 A 
ATOM      4  C   LIG    1       -8.453   0.470   0.044  0.00  0.00    +0.090 A 
ATOM      5  C   LIG    1       -9.131  -0.742   0.040  0.00  0.00    -0.040 A 
ATOM      6  C   LIG    1       -8.419  -1.944   0.030  0.00  0.00    +0.070 A 
ATOM      7  C   LIG    1       -7.042  -1.939   0.024  0.00  0.00    +0.050 A 
ATOM      8  C   LIG    1       -6.351  -0.736   0.027  0.00  0.00    +0.010 A 
ATOM      9  O   LIG    1       -5.038  -0.416   0.018  0.00  0.00    -0.210 OA
ENDROOT
BRANCH   5  10
ATOM     10  C   LIG    1      -10.615  -0.760   0.046  0.00  0.00    -0.050 A 
ATOM     11  C   LIG    1      -11.329   0.437   0.062  0.00  0.00    +0.020 A 
ATOM     12  C   LIG    1      -12.709   0.414   0.064  0.00  0.00    +0.010 A 
ATOM     13  C   LIG    1      -13.383  -0.793   0.059  0.00  0.00    +0.000 A 
ATOM     14  C   LIG    1      -12.680  -1.984   0.049  0.00  0.00    +0.010 A 
ATOM     15  C   LIG    1      -11.300  -1.973   0.042  0.00  0.00    +0.020 A 
ENDBRANCH   5  10
BRANCH   1  17
ATOM     16  C   LIG    1       -2.499   1.012   0.019  0.00  0.00    +0.090 C 
ATOM     17  C   LIG    1       -3.674   1.673   0.029  0.00  0.00    +0.060 C 
BRANCH  16  21
ATOM     18  C   LIG    1        1.153   3.178   0.009  0.00  0.00    +0.130 A 
ATOM     19  C   LIG    1       -0.057   3.858   0.024  0.00  0.00    -0.030 A 
ATOM     20  C   LIG    1       -1.245   3.159   0.032  0.00  0.00    +0.060 A 
ATOM     21  C   LIG    1       -1.233   1.761   0.018  0.00  0.00    -0.080 A 
ATOM     22  C   LIG    1       -0.013   1.076   0.008  0.00  0.00    +0.020 A 
ATOM     23  C   LIG    1        1.173   1.784   0.000  0.00  0.00    +0.070 A 
BRANCH  18  25
ATOM     24  C   LIG    1        2.227   5.299   0.011  0.00  0.00    +0.250 C 
ATOM     25  O   LIG    1        2.320   3.873   0.002  0.00  0.00    -0.300 OA
ENDBRANCH  18  25
BRANCH  23  26
ATOM     26  O   LIG    1        2.361   1.122  -0.015  0.00  0.00    -0.310 OA
BRANCH  26  27
ATOM     27  C   LIG    1        2.307  -0.306  -0.022  0.00  0.00    +0.600 C 
ATOM     28  F   LIG    1        1.620  -0.741  -1.160  0.00  0.00    -0.200 F 
ATOM     29  F   LIG    1        1.641  -0.753   1.125  0.00  0.00    -0.200 F 
ENDBRANCH  26  27
ENDBRANCH  23  26
ENDBRANCH  16  21
ENDBRANCH   1  17
TORSDOF 6
