REMARK  Name = ZINCvU00000007Z1.0
REMARK                            x       y       z     vdW  Elec       q    Type
REMARK                         _______ _______ _______ _____ _____    ______ ____
ROOT
ATOM      1  C   LIG    1       -0.013   1.086   0.008  0.00  0.00    +0.110 C 
ENDROOT
BRANCH   1   4
ATOM      2  N   LIG    1       -0.288   1.272  -2.443  0.00  0.00    -0.720 N 
ATOM      3  H   LIG    1        0.507   0.726  -2.543  0.00  0.00    +0.400 HD
ATOM      4  C   LIG    1       -0.742   1.585  -1.213  0.00  0.00    +0.530 C 
ATOM      5  O   LIG    1       -1.736   2.268  -1.088  0.00  0.00    -0.510 OA
BRANCH   2   6
ATOM      6  C   LIG    1       -0.997   1.758  -3.630  0.00  0.00    +0.290 C 
BRANCH   6   7
ATOM      7  C   LIG    1       -0.041   1.828  -4.792  0.00  0.00    -0.100 A 
ATOM      8  C   LIG    1        0.900   0.831  -4.974  0.00  0.00    +0.010 A 
ATOM      9  C   LIG    1        1.775   0.894  -6.043  0.00  0.00    +0.010 A 
ATOM     10  C   LIG    1        1.714   1.956  -6.925  0.00  0.00    +0.000 A 
ATOM     11  C   LIG    1        0.777   2.955  -6.740  0.00  0.00    +0.020 A 
ATOM     12  C   LIG    1       -0.100   2.891  -5.673  0.00  0.00    +0.010 A 
ENDBRANCH   6   7
BRANCH   6  13
ATOM     13  C   LIG    1       -2.141   0.800  -3.968  0.00  0.00    +0.020 C 
BRANCH  13  15
ATOM     14  C   LIG    1       -3.817   2.210  -2.767  0.00  0.00    +0.020 C 
ATOM     15  C   LIG    1       -3.176   0.823  -2.841  0.00  0.00    -0.020 C 
ATOM     16  C   LIG    1       -4.256  -0.224  -3.119  0.00  0.00    +0.000 C 
ENDBRANCH  13  15
ENDBRANCH   6  13
ENDBRANCH   2   6
ENDBRANCH   1   4
BRANCH   1  17
ATOM     17  S   LIG    1       -0.860   1.669   1.497  0.00  0.00    +0.080 S 
BRANCH  17  18
ATOM     18  C   LIG    1        0.174   0.961   2.735  0.00  0.00    +0.140 A 
ATOM     19  N   LIG    1        1.240   0.221   2.533  0.00  0.00    -0.290 NA
ATOM     20  N   LIG    1        1.752  -0.124   3.660  0.00  0.00    -0.280 NA
ATOM     21  C   LIG    1        1.046   0.363   4.640  0.00  0.00    +0.220 A 
ATOM     22  N   LIG    1        0.015   1.071   4.087  0.00  0.00    -0.450 N 
BRANCH  21  23
ATOM     23  C   LIG    1        1.315   0.180   6.112  0.00  0.00    +0.030 C 
ATOM     24  C   LIG    1        2.637  -0.479   6.512  0.00  0.00    +0.070 C 
ATOM     25  C   LIG    1        1.323  -1.250   6.655  0.00  0.00    +0.060 C 
ENDBRANCH  21  23
BRANCH  22  26
ATOM     26  C   LIG    1       -1.040   1.798   4.797  0.00  0.00    +0.370 C 
BRANCH  26  27
ATOM     27  C   LIG    1       -2.208   0.877   5.041  0.00  0.00    -0.120 A 
ATOM     28  C   LIG    1       -3.224   0.787   4.108  0.00  0.00    +0.040 A 
ATOM     29  C   LIG    1       -4.292  -0.062   4.330  0.00  0.00    +0.010 A 
ATOM     30  C   LIG    1       -4.349  -0.813   5.489  0.00  0.00    +0.020 A 
ATOM     31  C   LIG    1       -3.336  -0.719   6.424  0.00  0.00    +0.010 A 
ATOM     32  C   LIG    1       -2.265   0.126   6.200  0.00  0.00    +0.030 A 
ENDBRANCH  26  27
ENDBRANCH  22  26
ENDBRANCH  17  18
ENDBRANCH   1  17
TORSDOF 10
