REMARK  Name = ZINCpe000000Yg0F.0
REMARK                            x       y       z     vdW  Elec       q    Type
REMARK                         _______ _______ _______ _____ _____    ______ ____
ROOT
ATOM      1  C   LIG    1        4.102   3.217   1.730  0.00  0.00    -0.020 C 
ATOM      2  C   LIG    1        4.071   2.307   2.961  0.00  0.00    +0.020 C 
ATOM      3  C   LIG    1        3.973   0.847   2.509  0.00  0.00    +0.270 C 
ATOM      4  N   LIG    1        5.074   0.565   1.578  0.00  0.00    -0.600 N 
ATOM      5  C   LIG    1        5.250   1.436   0.408  0.00  0.00    +0.280 C 
ATOM      6  C   LIG    1        5.907  -0.473   1.793  0.00  0.00    +0.590 C 
ATOM      7  O   LIG    1        6.752  -0.756   0.965  0.00  0.00    -0.540 OA
ATOM      8  C   LIG    1        5.334   2.890   0.883  0.00  0.00    +0.020 C 
ENDROOT
BRANCH   6   9
ATOM      9  C   LIG    1        5.794  -1.263   3.029  0.00  0.00    -0.270 A 
ATOM     10  C   LIG    1        6.853  -1.322   3.932  0.00  0.00    +0.180 A 
ATOM     11  C   LIG    1        6.709  -2.081   5.093  0.00  0.00    -0.080 A 
ATOM     12  C   LIG    1        5.551  -2.749   5.331  0.00  0.00    +0.330 A 
ATOM     13  N   LIG    1        4.517  -2.695   4.458  0.00  0.00    -0.600 N 
ATOM     14  H   LIG    1        3.701  -3.182   4.654  0.00  0.00    +0.420 HD
ATOM     15  C   LIG    1        4.602  -1.973   3.325  0.00  0.00    +0.530 A 
ATOM     16  O   LIG    1        3.659  -1.933   2.553  0.00  0.00    -0.540 OA
ENDBRANCH   6   9
BRANCH   1  17
ATOM     17  C   LIG    1        4.164   4.678   2.178  0.00  0.00    +0.270 C 
BRANCH  17  19
ATOM     18  C   LIG    1        2.758   6.271   3.372  0.00  0.00    +0.600 C 
ATOM     19  N   LIG    1        2.930   5.025   2.887  0.00  0.00    -0.730 N 
ATOM     20  H   LIG    1        2.235   4.359   3.005  0.00  0.00    +0.400 HD
ATOM     21  O   LIG    1        3.630   7.106   3.224  0.00  0.00    -0.550 OA
BRANCH  18  25
ATOM     22  C   LIG    1       -0.743   8.816   5.867  0.00  0.00    +0.360 C 
ATOM     23  N   LIG    1       -0.020   7.745   5.176  0.00  0.00    -0.360 N 
ATOM     24  C   LIG    1        1.200   7.850   4.626  0.00  0.00    +0.320 A 
ATOM     25  C   LIG    1        1.514   6.622   4.080  0.00  0.00    -0.300 A 
ATOM     26  C   LIG    1        0.416   5.765   4.321  0.00  0.00    +0.270 A 
ATOM     27  N   LIG    1       -0.486   6.441   4.977  0.00  0.00    -0.300 NA
ENDBRANCH  18  25
ENDBRANCH  17  19
ENDBRANCH   1  17
TORSDOF 4
