REMARK  Name = ZINCrH00000No4Bt.1
REMARK                            x       y       z     vdW  Elec       q    Type
REMARK                         _______ _______ _______ _____ _____    ______ ____
ROOT
ATOM      1  N   LIG    1        2.319   4.165   0.001  0.00  0.00    -0.570 NA
ATOM      2  C   LIG    1        2.496   5.141  -0.872  0.00  0.00    +0.440 A 
ATOM      3  C   LIG    1        1.428   5.514  -1.722  0.00  0.00    -0.040 A 
ATOM      4  C   LIG    1        1.589   6.511  -2.623  0.00  0.00    +0.130 A 
ATOM      5  C   LIG    1        2.884   7.194  -2.702  0.00  0.00    -0.150 A 
ATOM      6  C   LIG    1        3.095   8.229  -3.617  0.00  0.00    +0.200 A 
ATOM      7  C   LIG    1        4.322   8.853  -3.669  0.00  0.00    -0.710 A 
ATOM      8  C   LIG    1        5.347   8.460  -2.821  0.00  0.00    +0.180 A 
ATOM      9  C   LIG    1        5.154   7.440  -1.912  0.00  0.00    -0.030 A 
ATOM     10  C   LIG    1        3.925   6.797  -1.842  0.00  0.00    +0.250 A 
ATOM     11  N   LIG    1        3.710   5.777  -0.935  0.00  0.00    -0.610 N 
ATOM     12  H   LIG    1        4.426   5.505  -0.339  0.00  0.00    +0.430 HD
ENDROOT
BRANCH   1  17
ATOM     13  C   LIG    1       -0.805   2.639   1.125  0.00  0.00    +0.150 A 
ATOM     14  C   LIG    1       -1.190   1.969  -0.029  0.00  0.00    -0.100 A 
ATOM     15  C   LIG    1       -0.411   2.041  -1.170  0.00  0.00    +0.070 A 
ATOM     16  C   LIG    1        0.760   2.769  -1.166  0.00  0.00    -0.080 A 
ATOM     17  C   LIG    1        1.160   3.443  -0.007  0.00  0.00    +0.170 A 
ATOM     18  C   LIG    1        0.368   3.373   1.142  0.00  0.00    -0.030 A 
BRANCH  13  20
ATOM     19  C   LIG    1       -2.775   1.793   2.153  0.00  0.00    +0.250 C 
ATOM     20  O   LIG    1       -1.578   2.568   2.241  0.00  0.00    -0.320 OA
ENDBRANCH  13  20
ENDBRANCH   1  17
BRANCH   7  21
ATOM     21  S   LIG    1        4.592  10.158  -4.821  0.00  0.00    +2.710 S 
ATOM     22  O   LIG    1        5.659  10.939  -4.300  0.00  0.00    -0.950 OA
ATOM     23  O   LIG    1        3.312  10.695  -5.126  0.00  0.00    -0.950 OA
BRANCH  21  24
ATOM     24  N   LIG    1        5.155   9.470  -6.218  0.00  0.00    -1.010 NA
ATOM     25  C   LIG    1        6.569   9.237  -6.549  0.00  0.00    +0.270 C 
ATOM     26  C   LIG    1        6.612   8.601  -7.955  0.00  0.00    +0.030 C 
ATOM     27  C   LIG    1        5.258   9.040  -8.573  0.00  0.00    +0.040 C 
ATOM     28  C   LIG    1        4.323   8.996  -7.339  0.00  0.00    +0.270 C 
ENDBRANCH  21  24
ENDBRANCH   7  21
TORSDOF 4
