REMARK  Name = ZINCrH00000No4Bt.0
REMARK                            x       y       z     vdW  Elec       q    Type
REMARK                         _______ _______ _______ _____ _____    ______ ____
ROOT
ATOM      1  C   LIG    1        1.197   2.085  -0.172  0.00  0.00    +0.430 A 
ATOM      2  N   LIG    1        2.360   1.497  -0.366  0.00  0.00    -0.540 NA
ATOM      3  C   LIG    1        2.446   0.174  -0.545  0.00  0.00    +0.220 A 
ATOM      4  C   LIG    1        3.689  -0.448  -0.750  0.00  0.00    +0.020 A 
ATOM      5  C   LIG    1        3.749  -1.797  -0.930  0.00  0.00    +0.130 A 
ATOM      6  C   LIG    1        2.594  -2.575  -0.915  0.00  0.00    -0.700 A 
ATOM      7  C   LIG    1        1.372  -2.006  -0.719  0.00  0.00    +0.200 A 
ATOM      8  C   LIG    1        1.273  -0.620  -0.529  0.00  0.00    -0.170 A 
ATOM      9  C   LIG    1        0.025   0.004  -0.323  0.00  0.00    +0.150 A 
ATOM     10  C   LIG    1        0.000   1.355  -0.146  0.00  0.00    -0.070 A 
ENDROOT
BRANCH   6  11
ATOM     11  S   LIG    1        2.716  -4.316  -1.154  0.00  0.00    +2.710 S 
ATOM     12  O   LIG    1        3.930  -4.541  -1.857  0.00  0.00    -0.950 OA
ATOM     13  O   LIG    1        1.449  -4.745  -1.634  0.00  0.00    -0.950 OA
BRANCH  11  14
ATOM     14  N   LIG    1        2.906  -5.003   0.341  0.00  0.00    -1.010 NA
ATOM     15  C   LIG    1        4.191  -5.268   1.004  0.00  0.00    +0.270 C 
ATOM     16  C   LIG    1        3.878  -5.935   2.360  0.00  0.00    +0.030 C 
ATOM     17  C   LIG    1        2.463  -6.531   2.133  0.00  0.00    +0.030 C 
ATOM     18  C   LIG    1        1.816  -5.457   1.223  0.00  0.00    +0.270 C 
ENDBRANCH  11  14
ENDBRANCH   6  11
BRANCH   1  19
ATOM     19  N   LIG    1        1.155   3.460   0.009  0.00  0.00    -0.650 N 
ATOM     20  H   LIG    1        0.301   3.916   0.068  0.00  0.00    +0.420 HD
BRANCH  19  25
ATOM     21  C   LIG    1        3.590   6.203  -0.289  0.00  0.00    +0.150 A 
ATOM     22  C   LIG    1        4.704   5.627   0.305  0.00  0.00    -0.090 A 
ATOM     23  C   LIG    1        4.638   4.337   0.797  0.00  0.00    +0.070 A 
ATOM     24  C   LIG    1        3.462   3.619   0.706  0.00  0.00    -0.010 A 
ATOM     25  C   LIG    1        2.344   4.189   0.107  0.00  0.00    +0.200 A 
ATOM     26  C   LIG    1        2.409   5.484  -0.388  0.00  0.00    -0.060 A 
BRANCH  21  28
ATOM     27  C   LIG    1        4.904   8.153  -0.636  0.00  0.00    +0.250 C 
ATOM     28  O   LIG    1        3.656   7.471  -0.772  0.00  0.00    -0.320 OA
ENDBRANCH  21  28
ENDBRANCH  19  25
ENDBRANCH   1  19
TORSDOF 5
