REMARK  Name = ZINCqH0000034xCZ.0
REMARK                            x       y       z     vdW  Elec       q    Type
REMARK                         _______ _______ _______ _____ _____    ______ ____
ROOT
ATOM      1  C   LIG    1        0.006   1.066   2.506  0.00  0.00    +0.060 C 
ENDROOT
BRANCH   1   4
ATOM      2  N   LIG    1       -0.218   1.232   4.964  0.00  0.00    -0.670 N 
ATOM      3  H   LIG    1        0.536   0.627   5.044  0.00  0.00    +0.410 HD
ATOM      4  C   LIG    1       -0.695   1.558   3.746  0.00  0.00    +0.510 C 
ATOM      5  O   LIG    1       -1.688   2.247   3.648  0.00  0.00    -0.520 OA
BRANCH   2   9
ATOM      6  C   LIG    1       -1.889   2.816   8.389  0.00  0.00    +0.390 A 
ATOM      7  C   LIG    1       -2.727   2.528   7.317  0.00  0.00    -0.080 A 
ATOM      8  C   LIG    1       -2.185   1.997   6.161  0.00  0.00    +0.120 A 
ATOM      9  C   LIG    1       -0.810   1.770   6.115  0.00  0.00    +0.030 A 
ATOM     10  C   LIG    1       -0.038   2.075   7.225  0.00  0.00    +0.290 A 
ATOM     11  N   LIG    1       -0.587   2.587   8.310  0.00  0.00    -0.530 NA
BRANCH   6  13
ATOM     12  C   LIG    1       -3.875   3.506   9.694  0.00  0.00    +0.280 C 
ATOM     13  N   LIG    1       -2.424   3.351   9.557  0.00  0.00    -0.620 N 
ATOM     14  C   LIG    1       -1.538   3.759  10.649  0.00  0.00    +0.290 C 
ENDBRANCH   6  13
ENDBRANCH   2   9
ENDBRANCH   1   4
BRANCH   1  15
ATOM     15  C   LIG    1       -0.733   1.573   1.267  0.00  0.00    +0.060 C 
BRANCH  15  16
ATOM     16  C   LIG    1       -0.021   1.073   0.008  0.00  0.00    +0.190 C 
BRANCH  16  17
ATOM     17  C   LIG    1       -0.750   1.573  -1.213  0.00  0.00    +0.200 A 
ATOM     18  N   LIG    1       -0.515   2.699  -1.827  0.00  0.00    -0.480 NA
ATOM     19  C   LIG    1       -1.351   2.808  -2.870  0.00  0.00    +0.170 A 
ATOM     20  C   LIG    1       -2.135   1.700  -2.883  0.00  0.00    -0.010 A 
ATOM     21  O   LIG    1       -1.748   0.935  -1.839  0.00  0.00    -0.190 OA
BRANCH  20  22
ATOM     22  C   LIG    1       -3.206   1.390  -3.853  0.00  0.00    -0.020 A 
ATOM     23  C   LIG    1       -3.929   0.201  -3.743  0.00  0.00    +0.030 A 
ATOM     24  C   LIG    1       -4.931  -0.079  -4.649  0.00  0.00    +0.010 A 
ATOM     25  C   LIG    1       -5.214   0.810  -5.670  0.00  0.00    +0.020 A 
ATOM     26  C   LIG    1       -4.497   1.988  -5.789  0.00  0.00    +0.020 A 
ATOM     27  C   LIG    1       -3.496   2.283  -4.886  0.00  0.00    +0.030 A 
ENDBRANCH  20  22
ENDBRANCH  16  17
ENDBRANCH  15  16
ENDBRANCH   1  15
TORSDOF 7
