REMARK  Name = ZINCqH0000001AMM.0
REMARK                            x       y       z     vdW  Elec       q    Type
REMARK                         _______ _______ _______ _____ _____    ______ ____
ROOT
ATOM      1  N   LIG    1        2.338   5.091   0.893  0.00  0.00    -0.740 N 
ATOM      2  H   LIG    1        1.467   5.470   1.088  0.00  0.00    +0.390 HD
ATOM      3  C   LIG    1        3.445   5.626   1.445  0.00  0.00    +0.710 C 
ATOM      4  N   LIG    1        3.341   6.689   2.268  0.00  0.00    -0.740 N 
ATOM      5  H   LIG    1        2.470   7.068   2.463  0.00  0.00    +0.400 HD
ATOM      6  O   LIG    1        4.537   5.151   1.201  0.00  0.00    -0.580 OA
ENDROOT
BRANCH   1   7
ATOM      7  C   LIG    1        2.451   3.936  -0.001  0.00  0.00    +0.310 C 
BRANCH   7   8
ATOM      8  C   LIG    1        1.156   3.166   0.007  0.00  0.00    -0.100 A 
ATOM      9  C   LIG    1        1.175   1.783   0.000  0.00  0.00    +0.060 A 
ATOM     10  C   LIG    1       -0.013   1.076   0.008  0.00  0.00    -0.010 A 
ATOM     11  C   LIG    1       -1.221   1.752   0.017  0.00  0.00    +0.100 A 
ATOM     12  C   LIG    1       -1.238   3.136   0.030  0.00  0.00    -0.010 A 
ATOM     13  F   LIG    1       -2.382   1.062   0.019  0.00  0.00    -0.140 F 
ATOM     14  C   LIG    1       -0.050   3.842   0.022  0.00  0.00    +0.040 A 
ENDBRANCH   7   8
BRANCH   7  16
ATOM     15  C   LIG    1        4.064   5.201  -1.431  0.00  0.00    +0.020 C 
ATOM     16  C   LIG    1        2.749   4.419  -1.422  0.00  0.00    -0.030 C 
ATOM     17  C   LIG    1        2.867   3.212  -2.356  0.00  0.00    +0.030 C 
ENDBRANCH   7  16
ENDBRANCH   1   7
BRANCH   4  18
ATOM     18  C   LIG    1        4.544   7.271   2.868  0.00  0.00    +0.350 C 
BRANCH  18  19
ATOM     19  C   LIG    1        4.157   8.438   3.739  0.00  0.00    -0.110 A 
ATOM     20  C   LIG    1        4.096   9.710   3.202  0.00  0.00    +0.050 A 
ATOM     21  C   LIG    1        3.736  10.782   3.997  0.00  0.00    +0.020 A 
ATOM     22  C   LIG    1        3.447  10.586   5.339  0.00  0.00    +0.060 A 
ATOM     23  O   LIG    1        3.104  11.653   6.111  0.00  0.00    -0.310 OA
ATOM     24  C   LIG    1        2.459  11.364   7.357  0.00  0.00    +0.220 C 
ATOM     25  C   LIG    1        3.237  10.238   8.051  0.00  0.00    +0.220 C 
ATOM     26  O   LIG    1        3.228   9.091   7.194  0.00  0.00    -0.310 OA
ATOM     27  C   LIG    1        3.512   9.307   5.880  0.00  0.00    +0.050 A 
ATOM     28  C   LIG    1        3.868   8.235   5.076  0.00  0.00    +0.050 A 
ENDBRANCH  18  19
ENDBRANCH   4  18
TORSDOF 5
