REMARK  Name = ZINCkj000005lar5.0
REMARK                            x       y       z     vdW  Elec       q    Type
REMARK                         _______ _______ _______ _____ _____    ______ ____
ROOT
ATOM      1  C   LIG    1       -4.237   0.946  -2.463  0.00  0.00    +0.300 C 
ENDROOT
BRANCH   1   2
ATOM      2  N   LIG    1       -2.899   1.550  -2.411  0.00  0.00    -0.500 N 
ATOM      3  H   LIG    1       -2.382   1.294  -3.239  0.00  0.00    +0.430 HD
ATOM      4  H   LIG    1       -2.984   2.554  -2.364  0.00  0.00    +0.430 HD
BRANCH   2   9
ATOM      5  C   LIG    1       -0.013   1.086   0.008  0.00  0.00    +0.150 C 
ATOM      6  C   LIG    1       -0.729   1.579   1.267  0.00  0.00    +0.040 C 
ATOM      7  C   LIG    1       -2.164   1.050   1.278  0.00  0.00    +0.070 C 
ATOM      8  C   LIG    1       -2.904   1.556   0.038  0.00  0.00    +0.030 C 
ATOM      9  C   LIG    1       -2.188   1.063  -1.221  0.00  0.00    +0.170 C 
ATOM     10  C   LIG    1       -0.753   1.593  -1.232  0.00  0.00    +0.060 C 
BRANCH   5  12
ATOM     11  N   LIG    1        2.434   1.988  -0.011  0.00  0.00    -0.390 NA
ATOM     12  C   LIG    1        1.368   1.595  -0.002  0.00  0.00    +0.190 C 
ENDBRANCH   5  12
ENDBRANCH   2   9
ENDBRANCH   1   2
BRANCH   1  13
ATOM     13  C   LIG    1       -4.977   1.453  -3.703  0.00  0.00    -0.380 C 
BRANCH  13  14
ATOM     14  S   LIG    1       -6.629   0.707  -3.767  0.00  0.00    +2.620 S 
ATOM     15  O   LIG    1       -7.442   1.205  -2.713  0.00  0.00    -0.930 OA
ATOM     16  O   LIG    1       -6.538  -0.687  -4.027  0.00  0.00    -0.930 OA
BRANCH  14  17
ATOM     17  N   LIG    1       -7.312   1.334  -5.140  0.00  0.00    -1.110 NA
ATOM     18  H   LIG    1       -8.086   1.914  -5.075  0.00  0.00    +0.430 HD
BRANCH  17  19
ATOM     19  C   LIG    1       -6.746   1.012  -6.452  0.00  0.00    +0.280 C 
BRANCH  19  20
ATOM     20  C   LIG    1       -7.747   1.388  -7.546  0.00  0.00    -0.020 C 
ATOM     21  C   LIG    1       -8.779   0.287  -7.842  0.00  0.00    +0.020 C 
ATOM     22  C   LIG    1       -8.617   0.647  -9.330  0.00  0.00    +0.010 C 
ATOM     23  C   LIG    1       -7.215   1.168  -8.971  0.00  0.00    +0.020 C 
ENDBRANCH  19  20
ENDBRANCH  17  19
ENDBRANCH  14  17
ENDBRANCH  13  14
ENDBRANCH   1  13
TORSDOF 8
