REMARK  Name = ZINCqH0000003icK.0
REMARK                            x       y       z     vdW  Elec       q    Type
REMARK                         _______ _______ _______ _____ _____    ______ ____
ROOT
ATOM      1  N   LIG    1        3.737  -1.822  -0.204  0.00  0.00    -0.660 N 
ATOM      2  H   LIG    1        3.585  -0.956  -0.614  0.00  0.00    +0.410 HD
ATOM      3  C   LIG    1        2.753  -2.418   0.498  0.00  0.00    +0.580 C 
ATOM      4  O   LIG    1        2.976  -3.451   1.101  0.00  0.00    -0.530 OA
ENDROOT
BRANCH   1   8
ATOM      5  C   LIG    1        7.438  -3.699  -0.614  0.00  0.00    +0.130 A 
ATOM      6  C   LIG    1        6.295  -4.457  -0.398  0.00  0.00    +0.030 A 
ATOM      7  C   LIG    1        5.069  -3.836  -0.263  0.00  0.00    +0.040 A 
ATOM      8  C   LIG    1        4.980  -2.452  -0.342  0.00  0.00    +0.150 A 
ATOM      9  C   LIG    1        6.123  -1.694  -0.563  0.00  0.00    +0.000 A 
ATOM     10  C   LIG    1        7.348  -2.315  -0.693  0.00  0.00    +0.050 A 
BRANCH   5  12
ATOM     11  C   LIG    1        9.432  -4.108  -1.849  0.00  0.00    +0.650 C 
ATOM     12  N   LIG    1        8.681  -4.330  -0.752  0.00  0.00    -0.550 N 
ATOM     13  C   LIG    1        9.166  -5.230   0.297  0.00  0.00    +0.300 C 
ATOM     14  O   LIG    1        9.073  -3.293  -2.676  0.00  0.00    -0.560 OA
BRANCH  11  15
ATOM     15  O   LIG    1       10.579  -4.789  -2.029  0.00  0.00    -0.370 OA
BRANCH  15  17
ATOM     16  C   LIG    1       12.598  -5.363  -3.264  0.00  0.00    +0.070 C 
ATOM     17  C   LIG    1       11.336  -4.499  -3.234  0.00  0.00    +0.220 C 
ENDBRANCH  15  17
ENDBRANCH  11  15
ENDBRANCH   5  12
ENDBRANCH   1   8
BRANCH   3  18
ATOM     18  C   LIG    1        1.407  -1.819   0.534  0.00  0.00    -0.280 A 
ATOM     19  C   LIG    1        1.163  -0.577  -0.062  0.00  0.00    +0.140 A 
ATOM     20  C   LIG    1       -0.118  -0.058  -0.001  0.00  0.00    -0.110 A 
ATOM     21  C   LIG    1       -1.113  -0.774   0.641  0.00  0.00    +0.350 A 
ATOM     22  N   LIG    1       -0.863  -1.943   1.198  0.00  0.00    -0.550 NA
ATOM     23  C   LIG    1        0.344  -2.486   1.168  0.00  0.00    +0.460 A 
BRANCH  23  24
ATOM     24  N   LIG    1        0.561  -3.715   1.765  0.00  0.00    -0.690 N 
ATOM     25  H   LIG    1        1.458  -4.080   1.811  0.00  0.00    +0.420 HD
BRANCH  24  26
ATOM     26  C   LIG    1       -0.565  -4.465   2.326  0.00  0.00    +0.230 C 
ATOM     27  C   LIG    1       -0.057  -5.405   3.421  0.00  0.00    +0.030 C 
ATOM     28  C   LIG    1       -1.235  -5.284   1.221  0.00  0.00    +0.020 C 
ENDBRANCH  24  26
ENDBRANCH  23  24
ENDBRANCH   3  18
TORSDOF 7
