REMARK  Name = ZINCkj00000y7JUt.2
REMARK                            x       y       z     vdW  Elec       q    Type
REMARK                         _______ _______ _______ _____ _____    ______ ____
ROOT
ATOM      1  N   LIG    1        6.244   1.566   1.301  0.00  0.00    -0.380 N 
ATOM      2  C   LIG    1        6.265   2.881   1.954  0.00  0.00    +0.250 C 
ATOM      3  C   LIG    1        4.847   3.266   2.381  0.00  0.00    +0.050 C 
ATOM      4  C   LIG    1        4.311   2.216   3.359  0.00  0.00    +0.070 C 
ATOM      5  C   LIG    1        4.363   0.838   2.693  0.00  0.00    +0.010 C 
ATOM      6  C   LIG    1        5.799   0.543   2.255  0.00  0.00    +0.300 C 
ATOM      7  H   LIG    1        5.609   1.593   0.518  0.00  0.00    +0.430 HD
ENDROOT
BRANCH   5   8
ATOM      8  C   LIG    1        3.457   0.827   1.488  0.00  0.00    +0.520 C 
ATOM      9  N   LIG    1        2.139   1.064   1.634  0.00  0.00    -0.680 N 
ATOM     10  H   LIG    1        1.772   1.242   2.515  0.00  0.00    +0.410 HD
ATOM     11  O   LIG    1        3.915   0.605   0.388  0.00  0.00    -0.550 OA
BRANCH   9  12
ATOM     12  C   LIG    1        1.258   1.053   0.464  0.00  0.00    +0.200 C 
ATOM     13  C   LIG    1       -0.037   1.864   0.545  0.00  0.00    +0.030 C 
ATOM     14  C   LIG    1       -0.086   0.335   0.597  0.00  0.00    +0.030 C 
ENDBRANCH   9  12
ENDBRANCH   5   8
BRANCH   1  15
ATOM     15  C   LIG    1        7.593   1.236   0.825  0.00  0.00    +0.260 C 
BRANCH  15  21
ATOM     16  C   LIG    1       11.258   2.747  -2.087  0.00  0.00    +0.200 C 
ATOM     17  N   LIG    1        9.831   2.875  -1.765  0.00  0.00    -0.540 NA
ATOM     18  C   LIG    1        9.001   2.671  -2.959  0.00  0.00    +0.180 C 
ATOM     19  C   LIG    1        7.536   2.954  -2.619  0.00  0.00    +0.040 C 
ATOM     20  C   LIG    1        7.087   2.015  -1.496  0.00  0.00    +0.010 C 
ATOM     21  C   LIG    1        7.997   2.213  -0.281  0.00  0.00    -0.010 C 
ATOM     22  C   LIG    1        9.449   1.951  -0.689  0.00  0.00    +0.190 C 
ENDBRANCH  15  21
ENDBRANCH   1  15
TORSDOF 4
