REMARK  Name = ZINCkj00000y7JUt.1
REMARK                            x       y       z     vdW  Elec       q    Type
REMARK                         _______ _______ _______ _____ _____    ______ ____
ROOT
ATOM      1  N   LIG    1       -1.579   5.104  -2.409  0.00  0.00    -0.380 N 
ATOM      2  C   LIG    1       -0.198   5.555  -2.620  0.00  0.00    +0.250 C 
ATOM      3  C   LIG    1       -0.142   7.083  -2.562  0.00  0.00    +0.070 C 
ATOM      4  C   LIG    1       -1.044   7.664  -3.655  0.00  0.00    +0.060 C 
ATOM      5  C   LIG    1       -2.466   7.128  -3.469  0.00  0.00    -0.010 C 
ATOM      6  C   LIG    1       -2.436   5.598  -3.494  0.00  0.00    +0.290 C 
ATOM      7  H   LIG    1       -1.916   5.460  -1.527  0.00  0.00    +0.420 HD
ENDROOT
BRANCH   5   8
ATOM      8  C   LIG    1       -3.344   7.632  -4.585  0.00  0.00    +0.530 C 
ATOM      9  N   LIG    1       -3.520   8.957  -4.757  0.00  0.00    -0.690 N 
ATOM     10  H   LIG    1       -3.082   9.586  -4.163  0.00  0.00    +0.400 HD
ATOM     11  O   LIG    1       -3.892   6.846  -5.328  0.00  0.00    -0.530 OA
BRANCH   9  12
ATOM     12  C   LIG    1       -4.374   9.448  -5.842  0.00  0.00    +0.210 C 
ATOM     13  C   LIG    1       -3.861  10.632  -6.664  0.00  0.00    +0.020 C 
ATOM     14  C   LIG    1       -5.010  10.829  -5.671  0.00  0.00    +0.030 C 
ENDBRANCH   9  12
ENDBRANCH   5   8
BRANCH   1  15
ATOM     15  C   LIG    1       -1.615   3.636  -2.389  0.00  0.00    +0.270 C 
BRANCH  15  21
ATOM     16  C   LIG    1       -1.329   3.562   2.521  0.00  0.00    +0.200 C 
ATOM     17  N   LIG    1       -0.770   3.048   1.264  0.00  0.00    -0.540 NA
ATOM     18  C   LIG    1       -0.731   1.580   1.266  0.00  0.00    +0.180 C 
ATOM     19  C   LIG    1       -0.013   1.086   0.008  0.00  0.00    +0.040 C 
ATOM     20  C   LIG    1       -0.755   1.594  -1.231  0.00  0.00    +0.040 C 
ATOM     21  C   LIG    1       -0.823   3.123  -1.184  0.00  0.00    -0.010 C 
ATOM     22  C   LIG    1       -1.519   3.558   0.108  0.00  0.00    +0.170 C 
ENDBRANCH  15  21
ENDBRANCH   1  15
TORSDOF 4
