REMARK  Name = ZINCrg00000avUBC.0
REMARK                            x       y       z     vdW  Elec       q    Type
REMARK                         _______ _______ _______ _____ _____    ______ ____
ROOT
ATOM      1  C   LIG    1       -0.665  -5.673  -2.705  0.00  0.00    +0.220 C 
ATOM      2  C   LIG    1       -1.318  -6.810  -3.494  0.00  0.00    +0.040 C 
ENDROOT
BRANCH   1   4
ATOM      3  C   LIG    1       -0.256  -3.930  -4.359  0.00  0.00    +0.590 C 
ATOM      4  N   LIG    1       -0.997  -4.391  -3.331  0.00  0.00    -0.720 N 
ATOM      5  H   LIG    1       -1.751  -3.873  -3.006  0.00  0.00    +0.400 HD
ATOM      6  O   LIG    1        0.688  -4.579  -4.766  0.00  0.00    -0.540 OA
BRANCH   3  12
ATOM      7  C   LIG    1        0.090  -2.032  -6.067  0.00  0.00    +0.140 A 
ATOM      8  N   LIG    1       -0.506  -0.903  -6.335  0.00  0.00    -0.300 NA
ATOM      9  N   LIG    1       -1.581  -0.738  -5.455  0.00  0.00    -0.360 N 
ATOM     10  C   LIG    1       -1.631  -1.803  -4.639  0.00  0.00    +0.280 A 
ATOM     11  C   LIG    1       -2.500   0.403  -5.431  0.00  0.00    +0.350 C 
ATOM     12  C   LIG    1       -0.591  -2.640  -4.988  0.00  0.00    -0.290 A 
BRANCH   7  14
ATOM     13  C   LIG    1        0.834  -3.458  -7.954  0.00  0.00    +0.030 C 
ATOM     14  C   LIG    1        1.294  -2.589  -6.782  0.00  0.00    +0.130 C 
ENDBRANCH   7  14
ENDBRANCH   3  12
ENDBRANCH   1   4
BRANCH   1  15
ATOM     15  C   LIG    1       -1.184  -5.688  -1.266  0.00  0.00    +0.290 C 
BRANCH  15  16
ATOM     16  N   LIG    1       -0.652  -4.529  -0.543  0.00  0.00    -0.600 N 
ATOM     17  C   LIG    1       -1.333  -3.367  -0.539  0.00  0.00    +0.610 C 
ATOM     18  O   LIG    1       -2.415  -3.294  -1.090  0.00  0.00    -0.550 OA
ATOM     19  C   LIG    1        0.621  -4.635   0.174  0.00  0.00    +0.300 C 
BRANCH  17  20
ATOM     20  C   LIG    1       -0.767  -2.183   0.136  0.00  0.00    -0.110 A 
ATOM     21  C   LIG    1       -1.322  -0.935   0.156  0.00  0.00    +0.130 A 
ATOM     22  N   LIG    1       -0.493  -0.151   0.875  0.00  0.00    -0.350 N 
ATOM     23  N   LIG    1        0.578  -0.959   1.281  0.00  0.00    -0.060 NA
ATOM     24  N   LIG    1        0.381  -2.150   0.833  0.00  0.00    -0.200 NA
BRANCH  22  25
ATOM     25  C   LIG    1       -0.674   1.272   1.170  0.00  0.00    +0.320 C 
ATOM     26  C   LIG    1       -1.458   1.428   2.474  0.00  0.00    +0.050 C 
ENDBRANCH  22  25
BRANCH  21  27
ATOM     27  C   LIG    1       -2.613  -0.515  -0.498  0.00  0.00    +0.130 C 
ATOM     28  C   LIG    1       -2.329  -0.032  -1.922  0.00  0.00    +0.030 C 
ENDBRANCH  21  27
ENDBRANCH  17  20
ENDBRANCH  15  16
ENDBRANCH   1  15
TORSDOF 8
