REMARK  Name = ZINCpe000000SAMJ.0
REMARK                            x       y       z     vdW  Elec       q    Type
REMARK                         _______ _______ _______ _____ _____    ______ ____
ROOT
ATOM      1  C   LIG    1        1.158  -2.322  -4.221  0.00  0.00    +0.130 A 
ATOM      2  C   LIG    1        1.541  -1.167  -4.889  0.00  0.00    +0.070 A 
ATOM      3  C   LIG    1        1.188   0.070  -4.386  0.00  0.00    +0.040 A 
ATOM      4  C   LIG    1        0.447   0.158  -3.221  0.00  0.00    +0.040 A 
ATOM      5  C   LIG    1        0.068  -0.992  -2.550  0.00  0.00    -0.660 A 
ATOM      6 CL   LIG    1       -0.003   1.714  -2.595  0.00  0.00    -0.040 Cl
ATOM      7  C   LIG    1        0.419  -2.231  -3.049  0.00  0.00    +0.160 A 
ENDROOT
BRANCH   1   9
ATOM      8  C   LIG    1        0.672  -4.620  -4.601  0.00  0.00    +0.520 C 
ATOM      9  N   LIG    1        1.515  -3.577  -4.728  0.00  0.00    -0.670 N 
ATOM     10  H   LIG    1        2.370  -3.695  -5.171  0.00  0.00    +0.420 HD
ATOM     11  O   LIG    1       -0.358  -4.495  -3.973  0.00  0.00    -0.500 OA
BRANCH   8  12
ATOM     12  C   LIG    1        1.010  -5.944  -5.237  0.00  0.00    +0.070 C 
BRANCH  12  13
ATOM     13  C   LIG    1       -0.105  -6.950  -4.944  0.00  0.00    +0.290 C 
BRANCH  13  16
ATOM     14  C   LIG    1       -0.282 -10.604  -6.072  0.00  0.00    +0.110 C 
ATOM     15  C   LIG    1       -0.620  -9.280  -5.435  0.00  0.00    +0.510 C 
ATOM     16  N   LIG    1        0.223  -8.237  -5.563  0.00  0.00    -0.740 N 
ATOM     17  H   LIG    1        1.048  -8.338  -6.064  0.00  0.00    +0.400 HD
ATOM     18  O   LIG    1       -1.650  -9.155  -4.808  0.00  0.00    -0.540 OA
ENDBRANCH  13  16
ENDBRANCH  12  13
ENDBRANCH   8  12
ENDBRANCH   1   9
BRANCH   5  19
ATOM     19  S   LIG    1       -0.870  -0.875  -1.063  0.00  0.00    +2.690 S 
ATOM     20  O   LIG    1       -1.906   0.065  -1.315  0.00  0.00    -0.930 OA
ATOM     21  O   LIG    1       -1.117  -2.208  -0.638  0.00  0.00    -0.940 OA
BRANCH  19  22
ATOM     22  N   LIG    1        0.111  -0.192   0.083  0.00  0.00    -1.000 NA
ATOM     23  C   LIG    1        0.045   1.248   0.377  0.00  0.00    +0.270 C 
ATOM     24  C   LIG    1        1.466   1.818   0.325  0.00  0.00    +0.220 C 
ATOM     25  O   LIG    1        2.318   1.037   1.166  0.00  0.00    -0.370 OA
ATOM     26  C   LIG    1        2.447  -0.328   0.762  0.00  0.00    +0.210 C 
ATOM     27  C   LIG    1        1.076  -1.008   0.837  0.00  0.00    +0.280 C 
ENDBRANCH  19  22
ENDBRANCH   5  19
TORSDOF 6
