REMARK  Name = ZINCpk00000KfLnK.0
REMARK                            x       y       z     vdW  Elec       q    Type
REMARK                         _______ _______ _______ _____ _____    ______ ____
ROOT
ATOM      1  C   LIG    1        0.586   7.237  -3.059  0.00  0.00    -0.190 A 
ATOM      2  C   LIG    1       -0.696   7.599  -3.458  0.00  0.00    +0.260 A 
ATOM      3  C   LIG    1       -1.797   6.895  -2.944  0.00  0.00    -0.360 A 
ATOM      4  C   LIG    1       -1.627   5.957  -1.899  0.00  0.00    +0.510 A 
ATOM      5  N   LIG    1       -0.377   5.785  -1.341  0.00  0.00    -0.490 N 
ATOM      6  N   LIG    1       -2.666   5.260  -1.469  0.00  0.00    -0.540 NA
ATOM      7  C   LIG    1       -3.882   5.432  -1.990  0.00  0.00    +0.440 A 
ATOM      8  C   LIG    1       -4.947   4.650  -1.506  0.00  0.00    +0.040 A 
ATOM      9  C   LIG    1       -6.197   4.822  -2.023  0.00  0.00    +0.150 A 
ATOM     10  C   LIG    1       -6.403   5.775  -3.030  0.00  0.00    +0.000 A 
ATOM     11  C   LIG    1       -5.368   6.515  -3.485  0.00  0.00    +0.300 A 
ATOM     12  N   LIG    1       -4.113   6.347  -2.979  0.00  0.00    -0.440 N 
ATOM     13  C   LIG    1       -3.099   7.092  -3.471  0.00  0.00    +0.550 A 
ATOM     14  O   LIG    1       -3.298   7.916  -4.346  0.00  0.00    -0.500 OA
ATOM     15  C   LIG    1        0.723   6.099  -2.130  0.00  0.00    +0.460 A 
ATOM     16  N   LIG    1        1.835   5.411  -2.056  0.00  0.00    -0.720 NA
ATOM     17  H   LIG    1        2.590   5.649  -2.617  0.00  0.00    +0.360 HD
ENDROOT
BRANCH   1  19
ATOM     18  N   LIG    1        2.648   8.514  -3.903  0.00  0.00    -0.420 NA
ATOM     19  C   LIG    1        1.736   7.949  -3.530  0.00  0.00    +0.270 C 
ENDBRANCH   1  19
BRANCH   5  20
ATOM     20  C   LIG    1       -0.217   5.298   0.031  0.00  0.00    +0.400 C 
BRANCH  20  21
ATOM     21  C   LIG    1       -0.132   3.793   0.023  0.00  0.00    +0.100 A 
ATOM     22  C   LIG    1        1.106   3.179   0.008  0.00  0.00    +0.010 A 
ATOM     23  C   LIG    1        1.173   1.794   0.001  0.00  0.00    +0.040 A 
ATOM     24  C   LIG    1       -0.013   1.076   0.008  0.00  0.00    -0.040 A 
ATOM     25  C   LIG    1       -1.214   1.759   0.017  0.00  0.00    +0.240 A 
ATOM     26  N   LIG    1       -1.240   3.078   0.030  0.00  0.00    -0.440 NA
ENDBRANCH  20  21
ENDBRANCH   5  20
TORSDOF 3
