REMARK  Name = ZINCrH000004sImF.0
REMARK                            x       y       z     vdW  Elec       q    Type
REMARK                         _______ _______ _______ _____ _____    ______ ____
ROOT
ATOM      1  C   LIG    1       -1.454   2.325  -3.636  0.00  0.00    +0.270 C 
ENDROOT
BRANCH   1   8
ATOM      2  C   LIG    1        0.882   0.901  -5.234  0.00  0.00    +0.170 C 
ATOM      3  C   LIG    1        0.700   0.891  -3.738  0.00  0.00    +0.100 A 
ATOM      4  N   LIG    1        1.477   0.288  -2.876  0.00  0.00    -0.270 NA
ATOM      5  N   LIG    1        0.970   0.517  -1.590  0.00  0.00    -0.370 N 
ATOM      6  C   LIG    1       -0.139   1.279  -1.710  0.00  0.00    +0.250 A 
ATOM      7  C   LIG    1        1.542   0.018  -0.337  0.00  0.00    +0.360 C 
ATOM      8  C   LIG    1       -0.331   1.520  -3.034  0.00  0.00    -0.210 A 
BRANCH   6   9
ATOM      9  O   LIG    1       -0.922   1.720  -0.693  0.00  0.00    -0.290 OA
BRANCH   9  10
ATOM     10  C   LIG    1       -2.003   0.875  -0.292  0.00  0.00    +0.220 C 
BRANCH  10  11
ATOM     11  C   LIG    1       -2.692   1.474   0.935  0.00  0.00    +0.470 C 
ATOM     12  F   LIG    1       -1.770   1.580   1.982  0.00  0.00    -0.170 F 
ATOM     13  F   LIG    1       -3.749   0.646   1.327  0.00  0.00    -0.170 F 
ATOM     14  F   LIG    1       -3.186   2.744   0.619  0.00  0.00    -0.170 F 
ENDBRANCH  10  11
ENDBRANCH   9  10
ENDBRANCH   6   9
ENDBRANCH   1   8
BRANCH   1  15
ATOM     15  N   LIG    1       -1.049   3.734  -3.734  0.00  0.00    -0.530 NA
ATOM     16  C   LIG    1       -0.865   4.323  -2.402  0.00  0.00    +0.170 C 
ATOM     17  C   LIG    1       -0.305   5.740  -2.542  0.00  0.00    +0.010 C 
ATOM     18  C   LIG    1       -1.278   6.589  -3.366  0.00  0.00    +0.160 C 
ATOM     19  C   LIG    1       -1.490   5.928  -4.731  0.00  0.00    +0.060 C 
ATOM     20  C   LIG    1       -2.015   4.505  -4.527  0.00  0.00    +0.190 C 
BRANCH  18  21
ATOM     21  O   LIG    1       -0.734   7.897  -3.548  0.00  0.00    -0.310 OA
BRANCH  21  22
ATOM     22  C   LIG    1       -0.947   8.799  -2.554  0.00  0.00    +0.130 A 
ATOM     23  C   LIG    1       -1.597   8.410  -1.392  0.00  0.00    -0.080 A 
ATOM     24  C   LIG    1       -1.808   9.326  -0.380  0.00  0.00    +0.040 A 
ATOM     25  C   LIG    1       -1.381  10.633  -0.529  0.00  0.00    -0.040 A 
ATOM     26  C   LIG    1       -0.737  11.024  -1.688  0.00  0.00    +0.050 A 
ATOM     27  C   LIG    1       -0.519  10.110  -2.701  0.00  0.00    -0.020 A 
ENDBRANCH  21  22
ENDBRANCH  18  21
ENDBRANCH   1  15
TORSDOF 7
