REMARK  Name = ZINCrH000004qWn0.0
REMARK                            x       y       z     vdW  Elec       q    Type
REMARK                         _______ _______ _______ _____ _____    ______ ____
ROOT
ATOM      1  C   LIG    1        4.126   0.899  -1.448  0.00  0.00    +0.510 C 
ATOM      2  N   LIG    1        5.445   0.993  -1.705  0.00  0.00    -0.740 N 
ATOM      3  H   LIG    1        6.075   1.107  -0.976  0.00  0.00    +0.400 HD
ATOM      4  O   LIG    1        3.339   0.757  -2.360  0.00  0.00    -0.520 OA
ENDROOT
BRANCH   1   5
ATOM      5  C   LIG    1        3.628   0.972  -0.027  0.00  0.00    +0.140 C 
BRANCH   5  11
ATOM      6  C   LIG    1       -1.740  -3.353   0.001  0.00  0.00    +0.090 C 
ATOM      7  C   LIG    1       -0.654  -2.309  -0.004  0.00  0.00    -0.060 A 
ATOM      8  C   LIG    1        0.676  -2.701  -0.019  0.00  0.00    -0.100 A 
ATOM      9  C   LIG    1        1.679  -1.757  -0.023  0.00  0.00    +0.050 A 
ATOM     10  C   LIG    1        1.349  -0.403  -0.013  0.00  0.00    -0.110 A 
ATOM     11  C   LIG    1        2.127   0.843  -0.014  0.00  0.00    -0.160 A 
ATOM     12  C   LIG    1        1.233   1.841   0.000  0.00  0.00    +0.230 A 
ATOM     13  O   LIG    1       -0.016   1.344   0.009  0.00  0.00    -0.190 OA
ATOM     14  C   LIG    1        0.002  -0.004   0.002  0.00  0.00    +0.050 A 
ATOM     15  C   LIG    1        1.026  -4.167  -0.030  0.00  0.00    +0.100 C 
ATOM     16  C   LIG    1       -0.994  -0.972   0.006  0.00  0.00    +0.020 A 
ENDBRANCH   5  11
ENDBRANCH   1   5
BRANCH   2  17
ATOM     17  C   LIG    1        5.929   0.923  -3.087  0.00  0.00    +0.260 C 
BRANCH  17  18
ATOM     18  C   LIG    1        7.453   1.054  -3.100  0.00  0.00    +0.070 C 
BRANCH  18  19
ATOM     19  C   LIG    1        7.951   0.982  -4.521  0.00  0.00    -0.080 A 
ATOM     20  C   LIG    1        8.287  -0.240  -5.072  0.00  0.00    +0.020 A 
ATOM     21  C   LIG    1        8.740  -0.311  -6.377  0.00  0.00    +0.030 A 
ATOM     22  C   LIG    1        8.869   0.845  -7.131  0.00  0.00    +0.050 A 
ATOM     23  O   LIG    1        9.325   0.760  -8.411  0.00  0.00    -0.310 OA
ATOM     24  C   LIG    1        9.085   1.891  -9.256  0.00  0.00    +0.220 C 
ATOM     25  C   LIG    1        9.460   3.160  -8.478  0.00  0.00    +0.220 C 
ATOM     26  O   LIG    1        8.648   3.220  -7.300  0.00  0.00    -0.310 OA
ATOM     27  C   LIG    1        8.534   2.074  -6.575  0.00  0.00    +0.050 A 
ATOM     28  C   LIG    1        8.075   2.138  -5.269  0.00  0.00    +0.030 A 
ENDBRANCH  18  19
ENDBRANCH  17  18
ENDBRANCH   2  17
TORSDOF 5
