REMARK  Name = ZINCrH000004vFsU.0
REMARK                            x       y       z     vdW  Elec       q    Type
REMARK                         _______ _______ _______ _____ _____    ______ ____
ROOT
ATOM      1  O   LIG    1       -0.381  -0.060   0.142  0.00  0.00    -0.530 OA
ATOM      2  C   LIG    1       -1.389  -0.738   0.193  0.00  0.00    +0.590 C 
ATOM      3  N   LIG    1       -1.296  -2.082   0.237  0.00  0.00    -0.590 N 
ATOM      4  C   LIG    1        0.016  -2.748   0.235  0.00  0.00    +0.300 C 
ATOM      5  C   LIG    1        0.053  -3.742   1.407  0.00  0.00    +0.170 C 
ATOM      6  N   LIG    1       -1.101  -4.645   1.314  0.00  0.00    -0.530 NA
ATOM      7  C   LIG    1       -2.366  -3.909   1.446  0.00  0.00    +0.160 C 
ATOM      8  C   LIG    1       -2.502  -2.921   0.282  0.00  0.00    +0.300 C 
ENDROOT
BRANCH   2   9
ATOM      9  C   LIG    1       -2.712  -0.091   0.208  0.00  0.00    +0.020 A 
ATOM     10  C   LIG    1       -2.863   1.246   0.333  0.00  0.00    -0.020 A 
ATOM     11  S   LIG    1       -4.530   1.627   0.309  0.00  0.00    +0.220 S 
ATOM     12  C   LIG    1       -4.936  -0.076   0.129  0.00  0.00    +0.120 A 
ATOM     13  N   LIG    1       -3.842  -0.779   0.100  0.00  0.00    -0.440 NA
BRANCH  12  14
ATOM     14  C   LIG    1       -6.300  -0.619   0.026  0.00  0.00    -0.140 A 
ATOM     15  C   LIG    1       -7.436   0.111   0.061  0.00  0.00    +0.050 A 
ATOM     16  C   LIG    1       -8.595  -0.623  -0.057  0.00  0.00    +0.010 A 
ATOM     17  C   LIG    1       -8.421  -1.943  -0.179  0.00  0.00    -0.030 A 
ATOM     18  S   LIG    1       -6.704  -2.322  -0.153  0.00  0.00    +0.190 S 
ENDBRANCH  12  14
ENDBRANCH   2   9
BRANCH   6  19
ATOM     19  C   LIG    1       -1.011  -5.720   2.311  0.00  0.00    +0.200 C 
BRANCH  19  20
ATOM     20  C   LIG    1       -1.910  -6.884   1.889  0.00  0.00    +0.200 C 
BRANCH  20  21
ATOM     21  O   LIG    1       -1.437  -7.428   0.655  0.00  0.00    -0.300 OA
BRANCH  21  22
ATOM     22  C   LIG    1       -2.128  -8.477   0.137  0.00  0.00    +0.130 A 
ATOM     23  C   LIG    1       -3.236  -8.976   0.806  0.00  0.00    -0.090 A 
ATOM     24  C   LIG    1       -3.941 -10.039   0.276  0.00  0.00    +0.040 A 
ATOM     25  C   LIG    1       -3.536 -10.612  -0.916  0.00  0.00    -0.040 A 
ATOM     26  C   LIG    1       -2.429 -10.120  -1.582  0.00  0.00    +0.050 A 
ATOM     27  C   LIG    1       -1.724  -9.053  -1.058  0.00  0.00    -0.020 A 
ENDBRANCH  21  22
ENDBRANCH  20  21
ENDBRANCH  19  20
ENDBRANCH   6  19
TORSDOF 6
