REMARK  Name = ZINCqH0000038Pqy.0
REMARK                            x       y       z     vdW  Elec       q    Type
REMARK                         _______ _______ _______ _____ _____    ______ ____
ROOT
ATOM      1  C   LIG    1        4.281  -0.019  -0.133  0.00  0.00    +0.140 A 
ATOM      2  C   LIG    1        5.228   0.995  -0.135  0.00  0.00    +0.040 A 
ATOM      3  C   LIG    1        6.577   0.681  -0.237  0.00  0.00    +0.160 A 
ATOM      4  C   LIG    1        6.974  -0.645  -0.348  0.00  0.00    +0.030 A 
ATOM      5  C   LIG    1        6.028  -1.654  -0.351  0.00  0.00    +0.050 A 
ATOM      6  C   LIG    1        4.685  -1.345  -0.244  0.00  0.00    +0.060 A 
ATOM      7  F   LIG    1        3.763  -2.333  -0.247  0.00  0.00    -0.140 F 
ENDROOT
BRANCH   1   9
ATOM      8  C   LIG    1        2.538   1.446   0.561  0.00  0.00    +0.600 C 
ATOM      9  N   LIG    1        2.921   0.294  -0.025  0.00  0.00    -0.660 N 
ATOM     10  H   LIG    1        2.254  -0.319  -0.371  0.00  0.00    +0.420 HD
ATOM     11  O   LIG    1        3.367   2.166   1.085  0.00  0.00    -0.520 OA
BRANCH   8  14
ATOM     12  C   LIG    1        1.326   4.045   1.831  0.00  0.00    +0.190 C 
ATOM     13  C   LIG    1        0.570   2.957   1.112  0.00  0.00    +0.100 A 
ATOM     14  C   LIG    1        1.117   1.833   0.567  0.00  0.00    -0.260 A 
ATOM     15  C   LIG    1       -0.009   1.088  -0.015  0.00  0.00    -0.030 A 
ATOM     16  C   LIG    1       -1.104   1.825   0.227  0.00  0.00    +0.180 A 
ATOM     17  O   LIG    1       -0.750   2.930   0.902  0.00  0.00    -0.170 OA
ENDBRANCH   8  14
ENDBRANCH   1   9
BRANCH   3  18
ATOM     18  N   LIG    1        7.534   1.700  -0.235  0.00  0.00    -1.050 N 
ATOM     19  H   LIG    1        7.474   2.421   0.411  0.00  0.00    +0.430 HD
BRANCH  18  20
ATOM     20  S   LIG    1        8.770   1.677  -1.336  0.00  0.00    +2.690 S 
ATOM     21  O   LIG    1        9.317   0.366  -1.298  0.00  0.00    -0.940 OA
ATOM     22  O   LIG    1        9.540   2.847  -1.099  0.00  0.00    -0.950 OA
BRANCH  20  23
ATOM     23  C   LIG    1        8.051   1.869  -2.933  0.00  0.00    -0.680 A 
ATOM     24  C   LIG    1        7.667   0.756  -3.657  0.00  0.00    +0.120 A 
ATOM     25  C   LIG    1        7.098   0.907  -4.907  0.00  0.00    -0.010 A 
ATOM     26  C   LIG    1        6.922   2.171  -5.439  0.00  0.00    +0.070 A 
ATOM     27  C   LIG    1        7.311   3.284  -4.717  0.00  0.00    -0.010 A 
ATOM     28  C   LIG    1        7.875   3.133  -3.464  0.00  0.00    +0.120 A 
ENDBRANCH  20  23
ENDBRANCH  18  20
ENDBRANCH   3  18
TORSDOF 5
