REMARK  Name = ZINCqH00000380Qz.0
REMARK                            x       y       z     vdW  Elec       q    Type
REMARK                         _______ _______ _______ _____ _____    ______ ____
ROOT
ATOM      1  N   LIG    1       -1.822   3.935   1.212  0.00  0.00    -0.510 N 
ATOM      2  H   LIG    1       -1.719   3.450   2.046  0.00  0.00    +0.440 HD
ATOM      3  C   LIG    1       -1.685   3.289   0.036  0.00  0.00    +0.590 C 
ATOM      4  O   LIG    1       -1.813   3.897  -1.010  0.00  0.00    -0.520 OA
ENDROOT
BRANCH   3   5
ATOM      5  C   LIG    1       -1.380   1.854   0.019  0.00  0.00    -0.190 A 
ATOM      6  C   LIG    1       -2.341   0.891   0.016  0.00  0.00    +0.060 A 
ATOM      7  S   LIG    1       -1.636  -0.656  -0.003  0.00  0.00    +0.240 S 
ATOM      8  C   LIG    1        0.002  -0.004   0.002  0.00  0.00    -0.200 A 
ATOM      9  C   LIG    1        1.229  -0.904  -0.000  0.00  0.00    +0.210 C 
ATOM     10  S   LIG    1        2.672   0.070  -0.514  0.00  0.00    -0.220 S 
ATOM     11  C   LIG    1        2.446   1.584   0.470  0.00  0.00    +0.120 C 
ATOM     12  C   LIG    1        1.171   2.274   0.003  0.00  0.00    +0.130 C 
ATOM     13  C   LIG    1       -0.016   1.328   0.009  0.00  0.00    -0.030 A 
BRANCH   6  14
ATOM     14  N   LIG    1       -3.709   1.138   0.024  0.00  0.00    -0.380 N 
ATOM     15  C   LIG    1       -4.297   2.372   0.046  0.00  0.00    +0.150 A 
ATOM     16  C   LIG    1       -5.634   2.202   0.044  0.00  0.00    -0.030 A 
ATOM     17  C   LIG    1       -5.885   0.814   0.030  0.00  0.00    -0.020 A 
ATOM     18  C   LIG    1       -4.691   0.187   0.018  0.00  0.00    +0.150 A 
ENDBRANCH   6  14
ENDBRANCH   3   5
BRANCH   1  20
ATOM     19  C   LIG    1       -2.250   5.950   2.404  0.00  0.00    +0.600 C 
ATOM     20  N   LIG    1       -2.113   5.305   1.229  0.00  0.00    -0.520 N 
ATOM     21  H   LIG    1       -2.215   5.790   0.395  0.00  0.00    +0.430 HD
ATOM     22  O   LIG    1       -2.122   5.342   3.451  0.00  0.00    -0.520 OA
BRANCH  19  27
ATOM     23  C   LIG    1       -3.354  11.150   1.434  0.00  0.00    +0.140 C 
ATOM     24  C   LIG    1       -3.061   9.773   1.971  0.00  0.00    -0.180 A 
ATOM     25  C   LIG    1       -2.996   9.464   3.272  0.00  0.00    -0.010 A 
ATOM     26  C   LIG    1       -2.722   8.145   3.545  0.00  0.00    +0.130 A 
ATOM     27  C   LIG    1       -2.554   7.384   2.422  0.00  0.00    -0.280 A 
ATOM     28  S   LIG    1       -2.770   8.399   1.002  0.00  0.00    +0.210 S 
ENDBRANCH  19  27
ENDBRANCH   1  20
TORSDOF 4
