REMARK  Name = ZINCvU00000008by.0
REMARK                            x       y       z     vdW  Elec       q    Type
REMARK                         _______ _______ _______ _____ _____    ______ ____
ROOT
ATOM      1  O   LIG    1       -5.540   5.245   3.328  0.00  0.00    -0.490 OA
ATOM      2  C   LIG    1       -4.925   4.810   2.372  0.00  0.00    +0.560 A 
ATOM      3  C   LIG    1       -5.346   5.110   0.996  0.00  0.00    -0.200 A 
ATOM      4  C   LIG    1       -6.462   5.899   0.724  0.00  0.00    +0.100 A 
ATOM      5  C   LIG    1       -6.814   6.150  -0.584  0.00  0.00    -0.010 A 
ATOM      6  C   LIG    1       -6.068   5.624  -1.631  0.00  0.00    +0.060 A 
ATOM      7  C   LIG    1       -4.962   4.841  -1.385  0.00  0.00    +0.030 A 
ATOM      8  C   LIG    1       -4.584   4.572  -0.067  0.00  0.00    +0.160 A 
ATOM      9  N   LIG    1       -3.504   3.807   0.218  0.00  0.00    -0.530 NA
ATOM     10  C   LIG    1       -3.149   3.554   1.453  0.00  0.00    +0.370 A 
ATOM     11  N   LIG    1       -3.832   4.029   2.536  0.00  0.00    -0.520 N 
ENDROOT
BRANCH  10  12
ATOM     12  S   LIG    1       -1.730   2.548   1.731  0.00  0.00    +0.010 S 
BRANCH  12  13
ATOM     13  C   LIG    1       -1.246   2.208   0.020  0.00  0.00    +0.220 C 
BRANCH  13  14
ATOM     14  C   LIG    1       -0.016   1.337   0.009  0.00  0.00    -0.010 A 
ATOM     15  C   LIG    1        1.259   1.767  -0.001  0.00  0.00    +0.200 A 
ATOM     16  O   LIG    1        2.049   0.675  -0.014  0.00  0.00    -0.190 OA
ATOM     17  C   LIG    1        1.251  -0.407  -0.012  0.00  0.00    +0.240 A 
ATOM     18  N   LIG    1        0.002  -0.004   0.002  0.00  0.00    -0.450 NA
BRANCH  17  19
ATOM     19  C   LIG    1        1.704  -1.813  -0.024  0.00  0.00    -0.020 A 
ATOM     20  C   LIG    1        0.770  -2.851  -0.014  0.00  0.00    +0.090 A 
ATOM     21  C   LIG    1        1.199  -4.161  -0.030  0.00  0.00    +0.040 A 
ATOM     22  C   LIG    1        2.554  -4.449  -0.045  0.00  0.00    -0.020 A 
ATOM     23  C   LIG    1        3.485  -3.425  -0.049  0.00  0.00    +0.030 A 
ATOM     24 CL   LIG    1        3.086  -6.102  -0.057  0.00  0.00    -0.060 Cl
ATOM     25  C   LIG    1        3.068  -2.110  -0.038  0.00  0.00    +0.070 A 
ENDBRANCH  17  19
ENDBRANCH  13  14
ENDBRANCH  12  13
ENDBRANCH  10  12
BRANCH  11  26
ATOM     26  C   LIG    1       -3.375   3.696   3.888  0.00  0.00    +0.300 C 
BRANCH  26  27
ATOM     27  C   LIG    1       -2.382   4.757   4.367  0.00  0.00    +0.160 C 
ATOM     28  C   LIG    1       -1.803   4.351   5.739  0.00  0.00    +0.020 C 
ATOM     29  C   LIG    1       -1.741   5.714   6.484  0.00  0.00    +0.010 C 
ATOM     30  C   LIG    1       -2.990   6.425   5.906  0.00  0.00    +0.200 C 
ATOM     31  O   LIG    1       -3.054   6.011   4.532  0.00  0.00    -0.360 OA
ENDBRANCH  26  27
ENDBRANCH  11  26
TORSDOF 6
