REMARK  Name = ZINCtV00000L6kK9.0
REMARK                            x       y       z     vdW  Elec       q    Type
REMARK                         _______ _______ _______ _____ _____    ______ ____
ROOT
ATOM      1  C   LIG    1        4.371   7.775   0.001  0.00  0.00    +0.240 C 
ENDROOT
BRANCH   1   2
ATOM      2  C   LIG    1        5.815   8.206  -0.011  0.00  0.00    +0.400 C 
ATOM      3  O   LIG    1        6.696   7.374  -0.023  0.00  0.00    -0.420 OA
BRANCH   2   4
ATOM      4  C   LIG    1        6.154   9.637  -0.006  0.00  0.00    -0.170 A 
ATOM      5  C   LIG    1        5.137  10.599   0.002  0.00  0.00    +0.070 A 
ATOM      6  C   LIG    1        5.457  11.932   0.010  0.00  0.00    +0.020 A 
ATOM      7  C   LIG    1        6.794  12.330  -0.000  0.00  0.00    -0.000 A 
ATOM      8  C   LIG    1        7.810  11.373  -0.014  0.00  0.00    +0.020 A 
ATOM      9  C   LIG    1        7.495  10.039  -0.017  0.00  0.00    +0.090 A 
BRANCH   7  10
ATOM     10  C   LIG    1        7.137  13.773   0.002  0.00  0.00    -0.060 A 
ATOM     11  C   LIG    1        8.472  14.175  -0.003  0.00  0.00    +0.030 A 
ATOM     12  C   LIG    1        8.785  15.519  -0.004  0.00  0.00    +0.010 A 
ATOM     13  C   LIG    1        7.777  16.466   0.009  0.00  0.00    +0.020 A 
ATOM     14  C   LIG    1        6.450  16.073   0.018  0.00  0.00    +0.010 A 
ATOM     15  C   LIG    1        6.125  14.732   0.016  0.00  0.00    +0.030 A 
ENDBRANCH   7  10
ENDBRANCH   2   4
ENDBRANCH   1   2
BRANCH   1  16
ATOM     16  O   LIG    1        4.299   6.325  -0.006  0.00  0.00    -0.330 OA
BRANCH  16  17
ATOM     17  C   LIG    1        3.074   5.775   0.003  0.00  0.00    +0.490 C 
ATOM     18  O   LIG    1        2.095   6.482   0.016  0.00  0.00    -0.480 OA
BRANCH  17  19
ATOM     19  C   LIG    1        2.921   4.276  -0.003  0.00  0.00    +0.120 C 
BRANCH  19  20
ATOM     20  S   LIG    1        1.158   3.848   0.011  0.00  0.00    -0.010 S 
BRANCH  20  24
ATOM     21  C   LIG    1        3.712  -0.718  -0.037  0.00  0.00    +0.100 C 
ATOM     22  C   LIG    1        2.400   0.023  -0.021  0.00  0.00    -0.040 A 
ATOM     23  C   LIG    1        2.388   1.403  -0.014  0.00  0.00    +0.000 A 
ATOM     24  C   LIG    1        1.178   2.086   0.002  0.00  0.00    -0.090 A 
ATOM     25  C   LIG    1       -0.017   1.377   0.010  0.00  0.00    -0.060 A 
ATOM     26  C   LIG    1        0.002  -0.004   0.002  0.00  0.00    +0.070 A 
ATOM     27  C   LIG    1       -1.331   2.113   0.020  0.00  0.00    +0.120 C 
ATOM     28  C   LIG    1        1.209  -0.681  -0.013  0.00  0.00    -0.090 A 
ATOM     29 BR   LIG    1        1.230  -2.572  -0.023  0.00  0.00    -0.040 Br
ENDBRANCH  20  24
ENDBRANCH  19  20
ENDBRANCH  17  19
ENDBRANCH  16  17
ENDBRANCH   1  16
TORSDOF 8
