REMARK  Name = ZINCrH000004jlDD.0
REMARK                            x       y       z     vdW  Elec       q    Type
REMARK                         _______ _______ _______ _____ _____    ______ ____
ROOT
ATOM      1  C   LIG    1        0.255  -0.579   2.523  0.00  0.00    +0.000 A 
ATOM      2  C   LIG    1       -0.153  -0.848   1.196  0.00  0.00    -0.180 A 
ATOM      3  C   LIG    1       -0.587  -0.037   0.126  0.00  0.00    +0.120 A 
ATOM      4  N   LIG    1       -0.851  -0.803  -0.895  0.00  0.00    -0.230 NA
ATOM      5  N   LIG    1       -0.600  -2.139  -0.562  0.00  0.00    -0.390 N 
ATOM      6  C   LIG    1       -0.773  -3.293  -1.448  0.00  0.00    +0.370 C 
ATOM      7  C   LIG    1       -0.728   1.463   0.159  0.00  0.00    +0.170 C 
ATOM      8  C   LIG    1       -0.168  -2.182   0.739  0.00  0.00    +0.320 A 
ATOM      9  N   LIG    1        0.196  -3.168   1.544  0.00  0.00    -0.480 NA
ATOM     10  C   LIG    1        0.583  -2.947   2.789  0.00  0.00    +0.250 A 
ATOM     11  C   LIG    1        0.627  -1.655   3.321  0.00  0.00    -0.020 A 
ENDROOT
BRANCH  10  12
ATOM     12  C   LIG    1        0.979  -4.096   3.640  0.00  0.00    -0.060 A 
ATOM     13  C   LIG    1        1.394  -3.883   4.954  0.00  0.00    +0.040 A 
ATOM     14  C   LIG    1        1.758  -4.955   5.742  0.00  0.00    +0.010 A 
ATOM     15  C   LIG    1        1.719  -6.239   5.228  0.00  0.00    +0.030 A 
ATOM     16  C   LIG    1        1.312  -6.456   3.924  0.00  0.00    +0.000 A 
ATOM     17  C   LIG    1        0.942  -5.391   3.128  0.00  0.00    +0.070 A 
ENDBRANCH  10  12
BRANCH   1  20
ATOM     18  N   LIG    1       -0.088   1.053   4.316  0.00  0.00    -0.620 N 
ATOM     19  H   LIG    1       -0.379   0.325   4.887  0.00  0.00    +0.420 HD
ATOM     20  C   LIG    1        0.286   0.804   3.045  0.00  0.00    +0.560 C 
ATOM     21  O   LIG    1        0.651   1.716   2.329  0.00  0.00    -0.490 OA
BRANCH  18  26
ATOM     22  C   LIG    1       -0.412   2.821   6.109  0.00  0.00    +0.010 A 
ATOM     23  N   LIG    1       -0.226   4.109   6.111  0.00  0.00    -0.350 NA
ATOM     24  O   LIG    1        0.178   4.505   5.042  0.00  0.00    +0.110 OA
ATOM     25  C   LIG    1        0.322   3.500   4.164  0.00  0.00    +0.180 A 
ATOM     26  C   LIG    1       -0.058   2.368   4.812  0.00  0.00    +0.020 A 
BRANCH  22  28
ATOM     27  C   LIG    1        0.286   1.496   8.085  0.00  0.00    +0.040 C 
ATOM     28  C   LIG    1       -0.906   1.978   7.256  0.00  0.00    +0.120 C 
ENDBRANCH  22  28
ENDBRANCH  18  26
ENDBRANCH   1  20
TORSDOF 4
