REMARK  Name = ZINCrD000000CWIF.0
REMARK                            x       y       z     vdW  Elec       q    Type
REMARK                         _______ _______ _______ _____ _____    ______ ____
ROOT
ATOM      1  N   LIG    1       -3.233  -3.240  -1.496  0.00  0.00    -1.060 N 
ATOM      2  H   LIG    1       -3.774  -3.587  -0.770  0.00  0.00    +0.430 HD
ENDROOT
BRANCH   1   7
ATOM      3  C   LIG    1       -2.159  -5.829  -3.880  0.00  0.00    +0.190 A 
ATOM      4  C   LIG    1       -0.784  -5.806  -3.685  0.00  0.00    -0.010 A 
ATOM      5  C   LIG    1       -0.228  -4.934  -2.768  0.00  0.00    +0.060 A 
ATOM      6  C   LIG    1       -1.037  -4.080  -2.045  0.00  0.00    +0.020 A 
ATOM      7  C   LIG    1       -2.415  -4.101  -2.231  0.00  0.00    +0.150 A 
ATOM      8  C   LIG    1       -2.975  -4.975  -3.151  0.00  0.00    +0.010 A 
BRANCH   3  14
ATOM      9  O   LIG    1       -4.882  -6.164  -4.530  0.00  0.00    -0.500 OA
ATOM     10  C   LIG    1       -4.028  -6.831  -5.079  0.00  0.00    +0.640 C 
ATOM     11  O   LIG    1       -4.306  -7.748  -6.012  0.00  0.00    -0.320 OA
ATOM     12  C   LIG    1       -3.069  -8.371  -6.465  0.00  0.00    +0.260 C 
ATOM     13  C   LIG    1       -1.973  -7.665  -5.643  0.00  0.00    +0.260 C 
ATOM     14  N   LIG    1       -2.721  -6.712  -4.809  0.00  0.00    -0.570 N 
ENDBRANCH   3  14
ENDBRANCH   1   7
BRANCH   1  15
ATOM     15  S   LIG    1       -3.279  -1.627  -1.865  0.00  0.00    +2.690 S 
ATOM     16  O   LIG    1       -4.244  -1.044  -0.999  0.00  0.00    -0.940 OA
ATOM     17  O   LIG    1       -1.928  -1.191  -1.928  0.00  0.00    -0.940 OA
BRANCH  15  18
ATOM     18  C   LIG    1       -3.925  -1.483  -3.498  0.00  0.00    -0.640 A 
ATOM     19  C   LIG    1       -3.064  -1.386  -4.575  0.00  0.00    +0.120 A 
ATOM     20  C   LIG    1       -3.568  -1.273  -5.858  0.00  0.00    +0.050 A 
ATOM     21  C   LIG    1       -4.933  -1.263  -6.066  0.00  0.00    +0.010 A 
ATOM     22  C   LIG    1       -5.799  -1.354  -4.986  0.00  0.00    +0.090 A 
ATOM     23  C   LIG    1       -5.291  -1.467  -3.700  0.00  0.00    +0.140 A 
BRANCH  22  24
ATOM     24  O   LIG    1       -7.143  -1.339  -5.188  0.00  0.00    -0.310 OA
BRANCH  24  25
ATOM     25  C   LIG    1       -7.595  -1.220  -6.539  0.00  0.00    +0.600 C 
ATOM     26  F   LIG    1       -7.118  -0.024  -7.087  0.00  0.00    -0.160 F 
ATOM     27  F   LIG    1       -8.993  -1.220  -6.565  0.00  0.00    -0.130 F 
ATOM     28  F   LIG    1       -7.114  -2.300  -7.288  0.00  0.00    -0.160 F 
ENDBRANCH  24  25
ENDBRANCH  22  24
ENDBRANCH  15  18
ENDBRANCH   1  15
TORSDOF 6
