REMARK  Name = ZINCqH0000034H0g.0
REMARK                            x       y       z     vdW  Elec       q    Type
REMARK                         _______ _______ _______ _____ _____    ______ ____
ROOT
ATOM      1  C   LIG    1       -0.652  -0.550   1.245  0.00  0.00    -0.160 A 
ATOM      2  C   LIG    1       -0.222  -1.750   1.781  0.00  0.00    +0.080 A 
ATOM      3  C   LIG    1       -0.816  -2.250   2.923  0.00  0.00    -0.060 A 
ATOM      4  C   LIG    1       -1.854  -1.552   3.527  0.00  0.00    +0.230 A 
ATOM      5  C   LIG    1       -2.288  -0.350   2.982  0.00  0.00    -0.070 A 
ATOM      6  C   LIG    1       -1.686   0.147   1.843  0.00  0.00    +0.070 A 
ENDROOT
BRANCH   1  12
ATOM      7  C   LIG    1        3.581   0.989  -0.026  0.00  0.00    +0.340 C 
ATOM      8  N   LIG    1        2.123   0.844  -0.014  0.00  0.00    -0.580 N 
ATOM      9  C   LIG    1        1.266   1.871   0.000  0.00  0.00    +0.700 C 
ATOM     10  N   LIG    1       -0.018   1.469   0.010  0.00  0.00    -0.720 N 
ATOM     11  H   LIG    1       -0.803   2.038   0.017  0.00  0.00    +0.440 HD
ATOM     12  C   LIG    1        0.002  -0.004   0.002  0.00  0.00    +0.170 C 
ATOM     13  C   LIG    1       -0.690  -0.545  -1.251  0.00  0.00    +0.100 C 
ATOM     14  O   LIG    1        1.608   3.037   0.003  0.00  0.00    -0.540 OA
ATOM     15  C   LIG    1        1.480  -0.340  -0.014  0.00  0.00    +0.540 C 
ATOM     16  O   LIG    1        1.980  -1.445  -0.025  0.00  0.00    -0.460 OA
ENDBRANCH   1  12
BRANCH   4  17
ATOM     17  N   LIG    1       -2.461  -2.058   4.679  0.00  0.00    -0.740 N 
ATOM     18  H   LIG    1       -3.186  -1.570   5.100  0.00  0.00    +0.400 HD
BRANCH  17  19
ATOM     19  C   LIG    1       -2.002  -3.326   5.252  0.00  0.00    +0.350 C 
BRANCH  19  20
ATOM     20  C   LIG    1       -2.814  -3.645   6.481  0.00  0.00    -0.130 A 
ATOM     21  C   LIG    1       -3.943  -4.353   6.431  0.00  0.00    +0.010 A 
ATOM     22  S   LIG    1       -4.606  -4.521   8.051  0.00  0.00    +0.210 S 
ATOM     23  C   LIG    1       -3.273  -3.593   8.725  0.00  0.00    -0.310 A 
ATOM     24  C   LIG    1       -2.441  -3.230   7.747  0.00  0.00    +0.100 A 
BRANCH  23  25
ATOM     25  C   LIG    1       -3.095  -3.263  10.185  0.00  0.00    +0.540 C 
ATOM     26  F   LIG    1       -1.730  -3.154  10.475  0.00  0.00    -0.170 F 
ATOM     27  F   LIG    1       -3.658  -4.278  10.965  0.00  0.00    -0.170 F 
ATOM     28  F   LIG    1       -3.730  -2.049  10.469  0.00  0.00    -0.170 F 
ENDBRANCH  23  25
ENDBRANCH  19  20
ENDBRANCH  17  19
ENDBRANCH   4  17
TORSDOF 5
