REMARK  Name = ZINCvU0000000Cl0.0
REMARK                            x       y       z     vdW  Elec       q    Type
REMARK                         _______ _______ _______ _____ _____    ______ ____
ROOT
ATOM      1  N   LIG    1       -0.288   1.272  -2.443  0.00  0.00    -0.650 N 
ATOM      2  H   LIG    1        0.258   0.473  -2.501  0.00  0.00    +0.420 HD
ATOM      3  C   LIG    1       -0.314   1.989  -1.302  0.00  0.00    +0.540 C 
ATOM      4  O   LIG    1       -0.916   3.042  -1.261  0.00  0.00    -0.500 OA
ENDROOT
BRANCH   1  10
ATOM      5  C   LIG    1       -0.677   1.302  -4.833  0.00  0.00    +0.140 A 
ATOM      6  C   LIG    1       -1.434   1.710  -5.919  0.00  0.00    -0.040 A 
ATOM      7  C   LIG    1       -2.558   2.491  -5.724  0.00  0.00    +0.110 A 
ATOM      8  C   LIG    1       -2.929   2.869  -4.447  0.00  0.00    -0.200 A 
ATOM      9  C   LIG    1       -2.182   2.461  -3.357  0.00  0.00    +0.110 A 
ATOM     10  C   LIG    1       -1.050   1.682  -3.545  0.00  0.00    +0.120 A 
BRANCH   8  11
ATOM     11  C   LIG    1       -4.155   3.721  -4.242  0.00  0.00    +0.510 C 
ATOM     12  F   LIG    1       -3.790   4.920  -3.619  0.00  0.00    -0.170 F 
ATOM     13  F   LIG    1       -5.069   3.036  -3.434  0.00  0.00    -0.180 F 
ATOM     14  F   LIG    1       -4.743   3.999  -5.480  0.00  0.00    -0.180 F 
ENDBRANCH   8  11
BRANCH   5  15
ATOM     15  O   LIG    1        0.428   0.532  -5.023  0.00  0.00    -0.300 OA
BRANCH  15  16
ATOM     16  C   LIG    1        0.751   0.182  -6.370  0.00  0.00    +0.220 C 
BRANCH  16  17
ATOM     17  C   LIG    1        2.015  -0.679  -6.384  0.00  0.00    +0.200 C 
BRANCH  17  19
ATOM     18  C   LIG    1        2.878  -2.802  -5.679  0.00  0.00    +0.200 C 
ATOM     19  O   LIG    1        1.755  -1.919  -5.722  0.00  0.00    -0.390 OA
ENDBRANCH  17  19
ENDBRANCH  16  17
ENDBRANCH  15  16
ENDBRANCH   5  15
ENDBRANCH   1  10
BRANCH   3  20
ATOM     20  C   LIG    1        0.405   1.484  -0.078  0.00  0.00    +0.080 C 
BRANCH  20  21
ATOM     21  S   LIG    1        0.184   2.660   1.280  0.00  0.00    +0.120 S 
BRANCH  21  22
ATOM     22  C   LIG    1        1.100   1.843   2.544  0.00  0.00    +0.040 A 
ATOM     23  N   LIG    1        1.262   2.281   3.755  0.00  0.00    -0.440 NA
ATOM     24  C   LIG    1        1.988   1.525   4.576  0.00  0.00    +0.120 A 
ATOM     25  C   LIG    1        2.468   0.390   4.039  0.00  0.00    -0.050 A 
ATOM     26  S   LIG    1        1.931   0.302   2.363  0.00  0.00    +0.080 S 
BRANCH  24  27
ATOM     27  C   LIG    1        2.250   1.909   5.985  0.00  0.00    -0.030 A 
ATOM     28  C   LIG    1        3.012   1.079   6.806  0.00  0.00    +0.020 A 
ATOM     29  C   LIG    1        3.256   1.444   8.114  0.00  0.00    +0.010 A 
ATOM     30  C   LIG    1        2.738   2.624   8.614  0.00  0.00    +0.020 A 
ATOM     31  C   LIG    1        1.976   3.449   7.806  0.00  0.00    +0.010 A 
ATOM     32  C   LIG    1        1.730   3.097   6.495  0.00  0.00    +0.050 A 
ENDBRANCH  24  27
ENDBRANCH  21  22
ENDBRANCH  20  21
ENDBRANCH   3  20
TORSDOF 10
