REMARK  Name = ZINCnE000001TwqB.1
REMARK                            x       y       z     vdW  Elec       q    Type
REMARK                         _______ _______ _______ _____ _____    ______ ____
ROOT
ATOM      1  O   LIG    1       -0.900   3.940   1.637  0.00  0.00    -0.550 OA
ATOM      2  C   LIG    1       -0.235   2.928   1.708  0.00  0.00    +0.450 C 
ATOM      3  N   LIG    1        1.011   2.976   2.218  0.00  0.00    -0.680 NA
ENDROOT
BRANCH   3   4
ATOM      4  C   LIG    1        1.533   4.180   2.660  0.00  0.00    +0.400 A 
ATOM      5  N   LIG    1        0.913   5.308   2.623  0.00  0.00    -0.560 NA
ATOM      6  C   LIG    1        1.553   6.396   3.095  0.00  0.00    +0.150 A 
ATOM      7  C   LIG    1        1.094   7.729   3.167  0.00  0.00    +0.010 A 
ATOM      8  C   LIG    1        1.900   8.714   3.680  0.00  0.00    +0.020 A 
ATOM      9  C   LIG    1        3.176   8.417   4.134  0.00  0.00    -0.040 A 
ATOM     10  C   LIG    1        3.645   7.124   4.074  0.00  0.00    +0.060 A 
ATOM     11  C   LIG    1        2.842   6.111   3.557  0.00  0.00    -0.220 A 
ATOM     12  S   LIG    1        3.140   4.387   3.344  0.00  0.00    -0.030 S 
ENDBRANCH   3   4
BRANCH   2  13
ATOM     13  C   LIG    1       -0.803   1.618   1.227  0.00  0.00    +0.180 C 
ATOM     14  C   LIG    1       -0.013   1.086   0.008  0.00  0.00    +0.080 C 
ATOM     15  C   LIG    1       -0.810   1.620  -1.166  0.00  0.00    +0.110 C 
ATOM     16  N   LIG    1       -1.965   2.001  -0.732  0.00  0.00    -0.280 NA
ATOM     17  O   LIG    1       -2.122   1.800   0.659  0.00  0.00    -0.180 OA
BRANCH  15  18
ATOM     18  C   LIG    1       -0.346   1.692  -2.566  0.00  0.00    -0.030 A 
ATOM     19  C   LIG    1        0.934   1.249  -2.904  0.00  0.00    +0.040 A 
ATOM     20  C   LIG    1        1.359   1.313  -4.215  0.00  0.00    +0.010 A 
ATOM     21  C   LIG    1        0.524   1.827  -5.192  0.00  0.00    +0.010 A 
ATOM     22  C   LIG    1       -0.744   2.272  -4.863  0.00  0.00    +0.010 A 
ATOM     23  C   LIG    1       -1.184   2.208  -3.557  0.00  0.00    +0.050 A 
ENDBRANCH  15  18
ENDBRANCH   2  13
TORSDOF 3
