REMARK  Name = ZINCtV000002Kfnw.0
REMARK                            x       y       z     vdW  Elec       q    Type
REMARK                         _______ _______ _______ _____ _____    ______ ____
ROOT
ATOM      1  C   LIG    1       -7.062   1.718   0.047  0.00  0.00    +0.180 C 
ATOM      2  C   LIG    1       -6.167   0.505   0.035  0.00  0.00    +0.150 A 
ATOM      3  N   LIG    1       -6.566  -0.731   0.031  0.00  0.00    -0.250 NA
ATOM      4  N   LIG    1       -5.454  -1.578   0.021  0.00  0.00    -0.300 N 
ATOM      5  C   LIG    1       -4.327  -0.800   0.020  0.00  0.00    +0.030 A 
ATOM      6  S   LIG    1       -2.570  -0.878   0.010  0.00  0.00    +0.200 S 
ATOM      7  C   LIG    1       -2.447   0.874   0.018  0.00  0.00    -0.270 A 
ATOM      8  C   LIG    1       -3.668   1.428   0.033  0.00  0.00    +0.190 A 
ATOM      9  C   LIG    1       -4.737   0.523   0.028  0.00  0.00    -0.220 A 
ENDROOT
BRANCH   4  10
ATOM     10  C   LIG    1       -5.487  -2.979   0.014  0.00  0.00    +0.160 A 
ATOM     11  C   LIG    1       -4.525  -3.694  -0.689  0.00  0.00    +0.020 A 
ATOM     12  C   LIG    1       -4.557  -5.074  -0.690  0.00  0.00    +0.070 A 
ATOM     13  C   LIG    1       -5.552  -5.746  -0.001  0.00  0.00    -0.040 A 
ATOM     14  C   LIG    1       -6.514  -5.036   0.696  0.00  0.00    +0.060 A 
ATOM     15 CL   LIG    1       -5.593  -7.481  -0.011  0.00  0.00    -0.050 Cl
ATOM     16  C   LIG    1       -6.484  -3.655   0.705  0.00  0.00    +0.060 A 
ENDBRANCH   4  10
BRANCH   7  17
ATOM     17  C   LIG    1       -1.187   1.624   0.017  0.00  0.00    +0.600 C 
ATOM     18  N   LIG    1       -0.011   0.966   0.007  0.00  0.00    -0.730 N 
ATOM     19  H   LIG    1        0.002  -0.004   0.002  0.00  0.00    +0.400 HD
ATOM     20  O   LIG    1       -1.204   2.841   0.023  0.00  0.00    -0.520 OA
BRANCH  18  21
ATOM     21  C   LIG    1        1.248   1.716  -0.001  0.00  0.00    +0.320 C 
BRANCH  21  22
ATOM     22  C   LIG    1        2.424   0.737  -0.017  0.00  0.00    +0.060 C 
BRANCH  22  23
ATOM     23  S   LIG    1        3.982   1.665  -0.027  0.00  0.00    -0.070 S 
BRANCH  23  24
ATOM     24  C   LIG    1        5.201   0.393  -0.045  0.00  0.00    -0.070 A 
ATOM     25  C   LIG    1        4.815  -0.942  -0.043  0.00  0.00    +0.000 A 
ATOM     26  C   LIG    1        5.772  -1.936  -0.064  0.00  0.00    +0.070 A 
ATOM     27  C   LIG    1        7.116  -1.605  -0.075  0.00  0.00    -0.100 A 
ATOM     28  C   LIG    1        7.504  -0.277  -0.071  0.00  0.00    +0.070 A 
ATOM     29 BR   LIG    1        8.424  -2.970  -0.094  0.00  0.00    -0.040 Br
ATOM     30  C   LIG    1        6.551   0.723  -0.057  0.00  0.00    +0.050 A 
ENDBRANCH  23  24
ENDBRANCH  22  23
ENDBRANCH  21  22
ENDBRANCH  18  21
ENDBRANCH   7  17
TORSDOF 6
