REMARK  Name = ZINCrH000004sHau.1
REMARK                            x       y       z     vdW  Elec       q    Type
REMARK                         _______ _______ _______ _____ _____    ______ ____
ROOT
ATOM      1  C   LIG    1       -3.741   2.117   0.495  0.00  0.00    +0.190 C 
ATOM      2  C   LIG    1       -4.585   1.435   1.574  0.00  0.00    +0.040 C 
ATOM      3  C   LIG    1       -3.639   0.755   2.572  0.00  0.00    +0.020 C 
ATOM      4  C   LIG    1       -2.933  -0.403   1.866  0.00  0.00    +0.260 C 
ATOM      5  N   LIG    1       -2.347   0.047   0.609  0.00  0.00    -0.590 N 
ATOM      6  C   LIG    1       -2.707   1.162  -0.027  0.00  0.00    +0.490 C 
ATOM      7  O   LIG    1       -2.173   1.416  -1.086  0.00  0.00    -0.540 OA
ENDROOT
BRANCH   1   8
ATOM      8  N   LIG    1       -4.613   2.545  -0.608  0.00  0.00    -0.650 NA
ATOM      9  H   LIG    1       -4.816   1.776  -1.228  0.00  0.00    +0.340 HD
BRANCH   8  10
ATOM     10  C   LIG    1       -4.018   3.670  -1.343  0.00  0.00    +0.260 C 
BRANCH  10  16
ATOM     11  C   LIG    1       -6.609   5.472  -1.060  0.00  0.00    +0.160 C 
ATOM     12  C   LIG    1       -6.082   4.876  -2.340  0.00  0.00    +0.090 A 
ATOM     13  N   LIG    1       -6.613   5.016  -3.527  0.00  0.00    -0.300 NA
ATOM     14  N   LIG    1       -5.828   4.305  -4.444  0.00  0.00    -0.370 N 
ATOM     15  C   LIG    1       -4.807   3.740  -3.766  0.00  0.00    +0.240 A 
ATOM     16  C   LIG    1       -4.938   4.080  -2.463  0.00  0.00    -0.230 A 
BRANCH  14  17
ATOM     17  C   LIG    1       -6.072   4.194  -5.884  0.00  0.00    +0.260 C 
ATOM     18  C   LIG    1       -5.655   2.804  -6.367  0.00  0.00    +0.060 C 
ATOM     19  C   LIG    1       -5.256   5.257  -6.623  0.00  0.00    +0.040 C 
ENDBRANCH  14  17
ENDBRANCH  10  16
ENDBRANCH   8  10
ENDBRANCH   1   8
BRANCH   5  20
ATOM     20  C   LIG    1       -1.292  -0.775   0.011  0.00  0.00    +0.270 C 
ATOM     21  C   LIG    1       -1.770  -1.315  -1.339  0.00  0.00    +0.040 C 
BRANCH  20  22
ATOM     22  C   LIG    1       -0.056   0.062  -0.192  0.00  0.00    -0.130 A 
ATOM     23  C   LIG    1        0.297   0.476  -1.462  0.00  0.00    +0.100 A 
ATOM     24  C   LIG    1        1.431   1.245  -1.649  0.00  0.00    -0.010 A 
ATOM     25  C   LIG    1        2.212   1.601  -0.565  0.00  0.00    +0.040 A 
ATOM     26  C   LIG    1        1.860   1.189   0.706  0.00  0.00    -0.030 A 
ATOM     27  C   LIG    1        0.725   0.419   0.894  0.00  0.00    +0.110 A 
ATOM     28  F   LIG    1        0.380   0.014   2.136  0.00  0.00    -0.140 F 
ENDBRANCH  20  22
ENDBRANCH   5  20
TORSDOF 6
