REMARK  Name = ZINCpe000000Z59L.0
REMARK                            x       y       z     vdW  Elec       q    Type
REMARK                         _______ _______ _______ _____ _____    ______ ____
ROOT
ATOM      1  O   LIG    1       -0.517   5.045   2.075  0.00  0.00    -0.580 OA
ATOM      2  C   LIG    1       -0.478   3.836   2.198  0.00  0.00    +0.710 C 
ATOM      3  N   LIG    1       -0.871   3.042   1.182  0.00  0.00    -0.630 N 
ATOM      4  C   LIG    1       -0.726   1.581   1.266  0.00  0.00    +0.280 C 
ATOM      5  C   LIG    1       -0.008   1.090   0.004  0.00  0.00    +0.190 C 
ATOM      6  N   LIG    1       -0.724   1.577  -1.184  0.00  0.00    -0.480 N 
ATOM      7  C   LIG    1       -0.709   3.044  -1.251  0.00  0.00    +0.200 C 
ATOM      8  C   LIG    1       -1.456   3.615  -0.040  0.00  0.00    +0.310 C 
ATOM      9  N   LIG    1       -0.043   3.289   3.350  0.00  0.00    -0.740 N 
ATOM     10  H   LIG    1        0.056   2.326   3.424  0.00  0.00    +0.400 HD
ENDROOT
BRANCH   6  11
ATOM     11  C   LIG    1       -0.197   1.016  -2.351  0.00  0.00    +0.080 A 
ATOM     12  C   LIG    1       -0.197  -0.361  -2.524  0.00  0.00    +0.030 A 
ATOM     13  C   LIG    1        0.319  -0.911  -3.682  0.00  0.00    +0.030 A 
ATOM     14  C   LIG    1        0.847  -0.094  -4.663  0.00  0.00    +0.020 A 
ATOM     15  C   LIG    1        0.856   1.279  -4.493  0.00  0.00    +0.010 A 
ATOM     16  C   LIG    1        0.336   1.837  -3.340  0.00  0.00    +0.050 A 
ATOM     17  F   LIG    1        0.343   3.178  -3.174  0.00  0.00    -0.130 F 
ENDBRANCH   6  11
BRANCH   9  18
ATOM     18  C   LIG    1        0.280   4.147   4.492  0.00  0.00    +0.270 C 
BRANCH  18  19
ATOM     19  C   LIG    1        0.747   3.282   5.665  0.00  0.00    +0.290 C 
BRANCH  19  20
ATOM     20  N   LIG    1        1.070   4.141   6.807  0.00  0.00    -0.570 N 
ATOM     21  C   LIG    1        2.294   4.643   7.012  0.00  0.00    +0.530 C 
ATOM     22  C   LIG    1        2.283   5.484   8.270  0.00  0.00    +0.080 C 
ATOM     23  C   LIG    1        0.827   5.372   8.767  0.00  0.00    +0.080 C 
ATOM     24  O   LIG    1        3.259   4.455   6.301  0.00  0.00    -0.480 OA
ATOM     25  C   LIG    1        0.168   4.484   7.734  0.00  0.00    +0.530 C 
ATOM     26  O   LIG    1       -0.994   4.138   7.745  0.00  0.00    -0.480 OA
ENDBRANCH  19  20
ENDBRANCH  18  19
ENDBRANCH   9  18
TORSDOF 4
