REMARK  Name = ZINCtV00000L6jrJ.0
REMARK                            x       y       z     vdW  Elec       q    Type
REMARK                         _______ _______ _______ _____ _____    ______ ____
ROOT
ATOM      1  N   LIG    1       -1.020   2.332   0.019  0.00  0.00    -0.470 N 
ATOM      2  C   LIG    1       -0.017   1.384   0.010  0.00  0.00    +0.060 A 
ATOM      3  C   LIG    1        0.002  -0.004   0.002  0.00  0.00    +0.010 A 
ATOM      4  C   LIG    1        1.209  -0.671  -0.013  0.00  0.00    +0.030 A 
ATOM      5  C   LIG    1        2.403   0.036  -0.021  0.00  0.00    +0.000 A 
ATOM      6  C   LIG    1        2.404   1.403  -0.013  0.00  0.00    +0.070 A 
ATOM      7  C   LIG    1        1.193   2.099   0.002  0.00  0.00    +0.040 A 
ATOM      8  N   LIG    1        0.871   3.419   0.012  0.00  0.00    -0.460 NA
ATOM      9  C   LIG    1       -0.423   3.554   0.025  0.00  0.00    +0.280 A 
ENDROOT
BRANCH   1  10
ATOM     10  C   LIG    1       -2.462   2.070   0.022  0.00  0.00    +0.350 C 
BRANCH  10  16
ATOM     11  C   LIG    1       -3.424  -0.675   4.095  0.00  0.00    +0.090 C 
ATOM     12  C   LIG    1       -3.412   0.659   3.392  0.00  0.00    -0.080 A 
ATOM     13  C   LIG    1       -3.850   1.792   4.053  0.00  0.00    +0.020 A 
ATOM     14  C   LIG    1       -3.838   3.015   3.408  0.00  0.00    +0.020 A 
ATOM     15  C   LIG    1       -3.389   3.105   2.104  0.00  0.00    +0.010 A 
ATOM     16  C   LIG    1       -2.951   1.972   1.444  0.00  0.00    -0.110 A 
ATOM     17  C   LIG    1       -2.967   0.748   2.086  0.00  0.00    +0.020 A 
ENDBRANCH  10  16
ENDBRANCH   1  10
BRANCH   9  18
ATOM     18  C   LIG    1       -1.153   4.872   0.039  0.00  0.00    +0.320 C 
BRANCH  18  19
ATOM     19  O   LIG    1       -1.396   5.296  -1.304  0.00  0.00    -0.300 OA
BRANCH  19  20
ATOM     20  C   LIG    1       -2.051   6.475  -1.469  0.00  0.00    +0.130 A 
ATOM     21  C   LIG    1       -2.455   7.207  -0.362  0.00  0.00    -0.080 A 
ATOM     22  C   LIG    1       -3.116   8.408  -0.533  0.00  0.00    -0.050 A 
ATOM     23  C   LIG    1       -3.383   8.876  -1.806  0.00  0.00    -0.030 A 
ATOM     24  C   LIG    1       -2.985   8.147  -2.911  0.00  0.00    +0.060 A 
ATOM     25  C   LIG    1       -3.552   9.205   0.669  0.00  0.00    +0.090 C 
ATOM     26  C   LIG    1       -2.320   6.947  -2.746  0.00  0.00    -0.110 A 
BRANCH  26  27
ATOM     27  C   LIG    1       -1.887   6.152  -3.951  0.00  0.00    +0.030 C 
ATOM     28  C   LIG    1       -0.929   6.992  -4.798  0.00  0.00    +0.040 C 
ATOM     29  C   LIG    1       -3.115   5.782  -4.785  0.00  0.00    +0.030 C 
ENDBRANCH  26  27
ENDBRANCH  19  20
ENDBRANCH  18  19
ENDBRANCH   9  18
TORSDOF 6
