REMARK  Name = ZINCkj000005i6mr.0
REMARK                            x       y       z     vdW  Elec       q    Type
REMARK                         _______ _______ _______ _____ _____    ______ ____
ROOT
ATOM      1  N   LIG    1       -0.727   2.949   3.796  0.00  0.00    -0.390 N 
ATOM      2  C   LIG    1       -0.913   1.531   3.462  0.00  0.00    +0.260 C 
ATOM      3  C   LIG    1       -0.032   1.168   2.265  0.00  0.00    +0.210 C 
ATOM      4  N   LIG    1       -0.397   2.012   1.118  0.00  0.00    -0.530 NA
ATOM      5  C   LIG    1       -0.239   3.436   1.446  0.00  0.00    +0.210 C 
ATOM      6  C   LIG    1       -1.119   3.779   2.650  0.00  0.00    +0.280 C 
ATOM      7  H   LIG    1        0.242   3.118   4.017  0.00  0.00    +0.430 HD
ENDROOT
BRANCH   1   8
ATOM      8  C   LIG    1       -1.561   3.292   4.956  0.00  0.00    +0.280 C 
BRANCH   8   9
ATOM      9  C   LIG    1       -1.060   2.533   6.186  0.00  0.00    +0.200 C 
BRANCH   9  11
ATOM     10  C   LIG    1        0.831   2.310   7.643  0.00  0.00    +0.240 C 
ATOM     11  O   LIG    1        0.267   2.961   6.503  0.00  0.00    -0.400 OA
ENDBRANCH   9  11
ENDBRANCH   8   9
ENDBRANCH   1   8
BRANCH   4  12
ATOM     12  C   LIG    1        0.391   1.655  -0.070  0.00  0.00    +0.260 C 
BRANCH  12  13
ATOM     13  C   LIG    1       -0.173   2.360  -1.276  0.00  0.00    -0.130 A 
ATOM     14  C   LIG    1        0.294   3.612  -1.629  0.00  0.00    +0.050 A 
ATOM     15  C   LIG    1       -0.221   4.263  -2.732  0.00  0.00    -0.010 A 
ATOM     16  C   LIG    1       -1.215   3.663  -3.500  0.00  0.00    +0.120 A 
ATOM     17  O   LIG    1       -1.866   4.125  -4.602  0.00  0.00    -0.300 OA
ATOM     18  C   LIG    1       -2.476   3.021  -5.291  0.00  0.00    +0.240 C 
ATOM     19  C   LIG    1       -2.728   2.004  -4.152  0.00  0.00    +0.080 C 
ATOM     20  C   LIG    1       -1.672   2.401  -3.139  0.00  0.00    -0.170 A 
ATOM     21  C   LIG    1       -1.156   1.753  -2.039  0.00  0.00    +0.090 A 
ENDBRANCH  12  13
ENDBRANCH   4  12
TORSDOF 5
