REMARK  Name = ZINCpe000000U4oi.0
REMARK                            x       y       z     vdW  Elec       q    Type
REMARK                         _______ _______ _______ _____ _____    ______ ____
ROOT
ATOM      1  C   LIG    1        0.888   2.135   8.334  0.00  0.00    +0.260 C 
ATOM      2  C   LIG    1        1.842   1.508   9.327  0.00  0.00    +0.510 C 
ATOM      3  N   LIG    1        3.103   1.964   9.404  0.00  0.00    -0.720 N 
ATOM      4  H   LIG    1        3.709   1.596  10.066  0.00  0.00    +0.400 HD
ATOM      5  C   LIG    1        3.569   3.014   8.492  0.00  0.00    +0.270 C 
ATOM      6  C   LIG    1        3.710   2.429   7.085  0.00  0.00    +0.020 C 
ATOM      7  C   LIG    1        2.395   2.550   6.332  0.00  0.00    +0.270 C 
ATOM      8  O   LIG    1        1.472   0.605  10.046  0.00  0.00    -0.520 OA
ATOM      9  N   LIG    1        1.328   1.790   6.978  0.00  0.00    -0.590 N 
ATOM     10  C   LIG    1        0.747   0.763   6.326  0.00  0.00    +0.560 C 
ATOM     11  O   LIG    1       -0.206   0.191   6.819  0.00  0.00    -0.500 OA
ENDROOT
BRANCH  10  12
ATOM     12  C   LIG    1        1.268   0.333   5.014  0.00  0.00    -0.150 A 
ATOM     13  C   LIG    1        2.618   0.001   4.871  0.00  0.00    +0.110 A 
ATOM     14  C   LIG    1        3.099  -0.404   3.646  0.00  0.00    +0.020 A 
ATOM     15  C   LIG    1        2.248  -0.474   2.549  0.00  0.00    +0.180 A 
ATOM     16  C   LIG    1        0.905  -0.146   2.685  0.00  0.00    +0.020 A 
ATOM     17  C   LIG    1        0.412   0.256   3.910  0.00  0.00    +0.170 A 
ATOM     18  F   LIG    1       -0.894   0.576   4.042  0.00  0.00    -0.110 F 
BRANCH  15  19
ATOM     19  N   LIG    1        2.745  -0.882   1.305  0.00  0.00    -0.340 N 
ATOM     20  N   LIG    1        2.079  -1.643   0.328  0.00  0.00    -0.070 NA
ATOM     21  N   LIG    1        2.903  -1.784  -0.654  0.00  0.00    -0.020 NA
ATOM     22  N   LIG    1        4.009  -1.187  -0.395  0.00  0.00    -0.320 NA
ATOM     23  C   LIG    1        3.966  -0.627   0.786  0.00  0.00    +0.260 A 
ATOM     24  C   LIG    1        5.070   0.160   1.443  0.00  0.00    +0.220 C 
ENDBRANCH  15  19
ENDBRANCH  10  12
BRANCH   1  26
ATOM     25  C   LIG    1       -0.488   4.213   8.161  0.00  0.00    +0.030 C 
ATOM     26  C   LIG    1        0.895   3.656   8.505  0.00  0.00    +0.030 C 
ENDBRANCH   1  26
TORSDOF 3
