REMARK  Name = ZINCrg000000nGXZ.0
REMARK                            x       y       z     vdW  Elec       q    Type
REMARK                         _______ _______ _______ _____ _____    ______ ____
ROOT
ATOM      1  C   LIG    1       -3.743   0.940   3.917  0.00  0.00    +0.330 C 
ATOM      2  N   LIG    1       -4.418   2.014   4.219  0.00  0.00    -0.280 NA
ATOM      3  N   LIG    1       -4.663   2.357   5.553  0.00  0.00    -0.400 N 
ATOM      4  C   LIG    1       -4.477   1.460   6.542  0.00  0.00    +0.490 C 
ATOM      5  C   LIG    1       -4.023   0.061   6.199  0.00  0.00    +0.270 C 
ATOM      6  C   LIG    1       -5.241  -0.848   6.020  0.00  0.00    +0.050 C 
ATOM      7  O   LIG    1       -4.672   1.775   7.697  0.00  0.00    -0.500 OA
ATOM      8  N   LIG    1       -3.260   0.123   4.944  0.00  0.00    -0.730 N 
ATOM      9  H   LIG    1       -2.444  -0.390   4.831  0.00  0.00    +0.420 HD
ENDROOT
BRANCH   3  10
ATOM     10  C   LIG    1       -5.103   3.649   5.864  0.00  0.00    +0.160 A 
ATOM     11  C   LIG    1       -4.443   4.753   5.340  0.00  0.00    +0.000 A 
ATOM     12  C   LIG    1       -4.882   6.027   5.646  0.00  0.00    +0.020 A 
ATOM     13  C   LIG    1       -5.971   6.203   6.480  0.00  0.00    +0.010 A 
ATOM     14  C   LIG    1       -6.626   5.105   7.007  0.00  0.00    +0.030 A 
ATOM     15  C   LIG    1       -6.196   3.829   6.702  0.00  0.00    +0.020 A 
ENDBRANCH   3  10
BRANCH   1  17
ATOM     16  N   LIG    1       -3.842   1.449   1.528  0.00  0.00    -0.570 N 
ATOM     17  C   LIG    1       -3.487   0.593   2.508  0.00  0.00    +0.590 C 
ATOM     18  O   LIG    1       -2.956  -0.464   2.228  0.00  0.00    -0.510 OA
BRANCH  16  19
ATOM     19  C   LIG    1       -4.379   2.769   1.868  0.00  0.00    +0.330 C 
BRANCH  19  22
ATOM     20  N   LIG    1       -6.572   3.756   2.448  0.00  0.00    -0.720 N 
ATOM     21  H   LIG    1       -6.129   4.616   2.525  0.00  0.00    +0.400 HD
ATOM     22  C   LIG    1       -5.861   2.659   2.118  0.00  0.00    +0.520 C 
ATOM     23  O   LIG    1       -6.414   1.584   2.022  0.00  0.00    -0.540 OA
BRANCH  20  24
ATOM     24  C   LIG    1       -8.012   3.649   2.691  0.00  0.00    +0.240 C 
BRANCH  24  26
ATOM     25  C   LIG    1      -10.078   4.917   3.300  0.00  0.00    +0.030 C 
ATOM     26  C   LIG    1       -8.573   5.028   3.046  0.00  0.00    +0.010 C 
ENDBRANCH  24  26
ENDBRANCH  20  24
ENDBRANCH  19  22
ENDBRANCH  16  19
BRANCH  16  27
ATOM     27  C   LIG    1       -3.691   1.058   0.124  0.00  0.00    +0.290 C 
BRANCH  27  28
ATOM     28  C   LIG    1       -2.301   1.465  -0.371  0.00  0.00    -0.010 C 
ATOM     29  C   LIG    1       -2.143   1.057  -1.837  0.00  0.00    +0.030 C 
ENDBRANCH  27  28
ENDBRANCH  16  27
ENDBRANCH   1  17
TORSDOF 8
