REMARK  Name = ZINCbw0000001gSa.0
REMARK                            x       y       z     vdW  Elec       q    Type
REMARK                         _______ _______ _______ _____ _____    ______ ____
ROOT
ATOM      1  C   LIG    1       -2.532   1.347   0.021  0.00  0.00    +0.130 C 
ATOM      2  C   LIG    1       -1.234   2.112   0.019  0.00  0.00    -0.070 A 
ATOM      3  C   LIG    1       -1.245   3.494   0.033  0.00  0.00    +0.120 A 
ATOM      4  C   LIG    1       -0.052   4.199   0.025  0.00  0.00    +0.040 A 
ATOM      5  C   LIG    1        1.156   3.526   0.010  0.00  0.00    +0.090 A 
ATOM      6  C   LIG    1        1.181   2.146   0.002  0.00  0.00    -0.080 A 
ATOM      7  I   LIG    1        3.013   1.129  -0.021  0.00  0.00    -0.010 I 
ATOM      8  F   LIG    1       -2.421   4.159   0.048  0.00  0.00    -0.120 F 
ATOM      9  C   LIG    1       -0.017   1.428   0.010  0.00  0.00    +0.030 A 
ENDROOT
BRANCH   9  10
ATOM     10  C   LIG    1        0.002  -0.004   0.002  0.00  0.00    +0.240 C 
ATOM     11  N   LIG    1        0.018  -1.140  -0.004  0.00  0.00    -0.370 NA
ENDBRANCH   9  10
TORSDOF 1
