REMARK  Name = ZINCpe00000MJLCZ.0
REMARK                            x       y       z     vdW  Elec       q    Type
REMARK                         _______ _______ _______ _____ _____    ______ ____
ROOT
ATOM      1  C   LIG    1        2.220   0.722   0.558  0.00  0.00    +0.110 C 
ATOM      2  C   LIG    1        1.450   1.947  -0.001  0.00  0.00    +0.010 C 
ATOM      3  C   LIG    1       -0.018   1.470   0.010  0.00  0.00    +0.190 C 
ATOM      4  N   LIG    1        0.002  -0.004   0.002  0.00  0.00    -0.520 NA
ATOM      5  C   LIG    1        1.409  -0.456  -0.038  0.00  0.00    +0.230 C 
ENDROOT
BRANCH   1   6
ATOM      6  O   LIG    1        2.180   0.700   1.986  0.00  0.00    -0.530 OA
ATOM      7  H   LIG    1        2.674   1.419   2.405  0.00  0.00    +0.380 HD
ENDBRANCH   1   6
BRANCH   4   8
ATOM      8  C   LIG    1       -0.754  -0.534  -1.141  0.00  0.00    +0.350 C 
BRANCH   8   9
ATOM      9  C   LIG    1       -2.224  -0.279  -0.932  0.00  0.00    +0.190 A 
ATOM     10  N   LIG    1       -2.894   0.783  -1.311  0.00  0.00    -0.470 NA
ATOM     11  C   LIG    1       -4.162   0.571  -0.917  0.00  0.00    +0.180 A 
ATOM     12  N   LIG    1       -4.197  -0.585  -0.323  0.00  0.00    -0.380 NA
ATOM     13  O   LIG    1       -3.094  -1.089  -0.321  0.00  0.00    +0.090 OA
BRANCH  11  14
ATOM     14  C   LIG    1       -5.328   1.504  -1.121  0.00  0.00    +0.220 C 
BRANCH  14  15
ATOM     15  C   LIG    1       -5.431   2.444   0.052  0.00  0.00    -0.090 A 
ATOM     16  C   LIG    1       -6.202   2.101   1.147  0.00  0.00    +0.010 A 
ATOM     17  C   LIG    1       -6.293   2.961   2.225  0.00  0.00    +0.000 A 
ATOM     18  C   LIG    1       -5.620   4.168   2.205  0.00  0.00    +0.000 A 
ATOM     19  C   LIG    1       -4.853   4.514   1.108  0.00  0.00    +0.000 A 
ATOM     20  C   LIG    1       -4.758   3.651   0.032  0.00  0.00    +0.020 A 
ENDBRANCH  14  15
ENDBRANCH  11  14
ENDBRANCH   8   9
ENDBRANCH   4   8
BRANCH   1  21
ATOM     21  C   LIG    1        3.664   0.705   0.052  0.00  0.00    +0.320 C 
BRANCH  21  22
ATOM     22  N   LIG    1        4.399   1.831   0.635  0.00  0.00    -0.300 N 
ATOM     23  C   LIG    1        5.552   1.746   1.338  0.00  0.00    +0.140 A 
ATOM     24  C   LIG    1        5.877   3.013   1.684  0.00  0.00    +0.140 A 
ATOM     25  N   LIG    1        4.919   3.801   1.183  0.00  0.00    -0.270 NA
ATOM     26  N   LIG    1        4.061   3.071   0.562  0.00  0.00    -0.080 NA
ENDBRANCH  21  22
ENDBRANCH   1  21
TORSDOF 7
