REMARK  Name = ZINCpk00000y6wrC.0
REMARK                            x       y       z     vdW  Elec       q    Type
REMARK                         _______ _______ _______ _____ _____    ______ ____
ROOT
ATOM      1  C   LIG    1       -2.220   1.139  -3.612  0.00  0.00    -0.080 A 
ATOM      2  C   LIG    1       -2.894   1.467  -4.777  0.00  0.00    +0.170 A 
ATOM      3  C   LIG    1       -4.125   2.094  -4.677  0.00  0.00    -0.050 A 
ATOM      4  C   LIG    1       -4.647   2.369  -3.419  0.00  0.00    +0.370 A 
ATOM      5  N   LIG    1       -3.980   2.038  -2.323  0.00  0.00    -0.480 NA
ATOM      6  C   LIG    1       -2.800   1.438  -2.385  0.00  0.00    +0.380 A 
ENDROOT
BRANCH   4   7
ATOM      7  N   LIG    1       -5.882   2.998  -3.309  0.00  0.00    -0.500 N 
ATOM      8  C   LIG    1       -6.921   2.245  -4.022  0.00  0.00    +0.190 C 
ATOM      9  C   LIG    1       -8.287   2.884  -3.760  0.00  0.00    +0.040 C 
ATOM     10  C   LIG    1       -8.265   4.338  -4.238  0.00  0.00    +0.030 C 
ATOM     11  C   LIG    1       -7.142   5.088  -3.515  0.00  0.00    +0.010 C 
ATOM     12  C   LIG    1       -5.810   4.385  -3.785  0.00  0.00    +0.200 C 
BRANCH  11  13
ATOM     13  C   LIG    1       -7.075   6.527  -4.030  0.00  0.00    +0.180 C 
BRANCH  13  14
ATOM     14  O   LIG    1       -8.276   7.216  -3.679  0.00  0.00    -0.570 OA
ATOM     15  H   LIG    1       -8.303   8.136  -3.975  0.00  0.00    +0.380 HD
ENDBRANCH  13  14
ENDBRANCH  11  13
ENDBRANCH   4   7
BRANCH   6  16
ATOM     16  N   LIG    1       -2.134   1.109  -1.210  0.00  0.00    -0.470 N 
ATOM     17  C   LIG    1       -1.756   2.315  -0.463  0.00  0.00    +0.180 C 
ATOM     18  C   LIG    1       -0.901   1.922   0.744  0.00  0.00    +0.030 C 
ATOM     19  C   LIG    1       -1.700   0.973   1.642  0.00  0.00    +0.030 C 
ATOM     20  C   LIG    1       -2.123  -0.253   0.826  0.00  0.00    +0.020 C 
ATOM     21  C   LIG    1       -2.942   0.203  -0.383  0.00  0.00    +0.200 C 
BRANCH  20  22
ATOM     22  C   LIG    1       -2.972  -1.179   1.699  0.00  0.00    +0.180 C 
BRANCH  22  23
ATOM     23  O   LIG    1       -2.171  -1.696   2.764  0.00  0.00    -0.570 OA
ATOM     24  H   LIG    1       -2.646  -2.293   3.358  0.00  0.00    +0.380 HD
ENDBRANCH  22  23
ENDBRANCH  20  22
ENDBRANCH   6  16
BRANCH   1  26
ATOM     25  O   LIG    1       -0.353   0.301  -4.748  0.00  0.00    -0.190 OA
ATOM     26  N   LIG    1       -0.899   0.474  -3.673  0.00  0.00    +0.030 N 
ATOM     27  O   LIG    1       -0.357   0.101  -2.648  0.00  0.00    -0.090 OA
ENDBRANCH   1  26
TORSDOF 7
