REMARK  Name = ZINCvU00000006Pf.0
REMARK                            x       y       z     vdW  Elec       q    Type
REMARK                         _______ _______ _______ _____ _____    ______ ____
ROOT
ATOM      1  C   LIG    1       -1.569   5.277   0.092  0.00  0.00    +0.510 C 
ATOM      2  N   LIG    1       -0.949   4.085  -0.021  0.00  0.00    -0.570 N 
ATOM      3  C   LIG    1       -0.457   3.618  -1.324  0.00  0.00    +0.280 C 
ATOM      4  C   LIG    1       -1.030   2.223  -1.596  0.00  0.00    +0.020 C 
ATOM      5  C   LIG    1       -0.687   1.298  -0.426  0.00  0.00    +0.020 C 
ATOM      6  C   LIG    1       -1.322   1.840   0.857  0.00  0.00    +0.020 C 
ATOM      7  C   LIG    1       -0.752   3.230   1.157  0.00  0.00    +0.270 C 
ATOM      8  O   LIG    1       -2.087   5.594   1.142  0.00  0.00    -0.490 OA
ENDROOT
BRANCH   7   9
ATOM      9  C   LIG    1       -1.470   3.826   2.340  0.00  0.00    -0.060 A 
ATOM     10  C   LIG    1       -2.851   3.819   2.385  0.00  0.00    +0.090 A 
ATOM     11  C   LIG    1       -3.510   4.362   3.473  0.00  0.00    +0.010 A 
ATOM     12  C   LIG    1       -2.788   4.920   4.511  0.00  0.00    +0.060 A 
ATOM     13  C   LIG    1       -1.406   4.931   4.463  0.00  0.00    -0.180 A 
ATOM     14  C   LIG    1       -0.747   4.384   3.378  0.00  0.00    +0.060 A 
BRANCH  13  15
ATOM     15  C   LIG    1       -0.618   5.539   5.595  0.00  0.00    +0.510 C 
ATOM     16  F   LIG    1        0.615   4.887   5.708  0.00  0.00    -0.180 F 
ATOM     17  F   LIG    1       -1.332   5.398   6.789  0.00  0.00    -0.180 F 
ATOM     18  F   LIG    1       -0.404   6.897   5.337  0.00  0.00    -0.180 F 
ENDBRANCH  13  15
ENDBRANCH   7   9
BRANCH   1  20
ATOM     19  O   LIG    1       -1.213   5.840  -2.160  0.00  0.00    -0.480 OA
ATOM     20  C   LIG    1       -1.618   6.206  -1.076  0.00  0.00    +0.510 C 
ATOM     21  N   LIG    1       -2.112   7.451  -0.926  0.00  0.00    -0.640 N 
ATOM     22  H   LIG    1       -2.518   7.714  -0.086  0.00  0.00    +0.430 HD
BRANCH  21  23
ATOM     23  C   LIG    1       -2.038   8.364  -1.982  0.00  0.00    +0.170 A 
ATOM     24  C   LIG    1       -1.002   8.281  -2.903  0.00  0.00    +0.020 A 
ATOM     25  C   LIG    1       -0.935   9.181  -3.948  0.00  0.00    +0.090 A 
ATOM     26  C   LIG    1       -1.892  10.172  -4.072  0.00  0.00    -0.200 A 
ATOM     27  C   LIG    1       -2.922  10.261  -3.153  0.00  0.00    +0.090 A 
ATOM     28  C   LIG    1       -2.998   9.360  -2.109  0.00  0.00    +0.000 A 
BRANCH  26  29
ATOM     29  C   LIG    1       -1.813  11.156  -5.210  0.00  0.00    +0.510 C 
ATOM     30  F   LIG    1       -3.102  11.573  -5.556  0.00  0.00    -0.180 F 
ATOM     31  F   LIG    1       -1.208  10.544  -6.314  0.00  0.00    -0.180 F 
ATOM     32  F   LIG    1       -1.054  12.263  -4.817  0.00  0.00    -0.180 F 
ENDBRANCH  26  29
ENDBRANCH  21  23
ENDBRANCH   1  20
TORSDOF 5
