REMARK  Name = ZINCrH00000tj1am.0
REMARK                            x       y       z     vdW  Elec       q    Type
REMARK                         _______ _______ _______ _____ _____    ______ ____
ROOT
ATOM      1  O   LIG    1        1.385  -0.408  -4.286  0.00  0.00    -0.510 OA
ATOM      2  C   LIG    1        2.017   0.371  -3.604  0.00  0.00    +0.520 C 
ATOM      3  N   LIG    1        3.118   0.967  -4.105  0.00  0.00    -0.670 N 
ATOM      4  H   LIG    1        3.665   1.531  -3.537  0.00  0.00    +0.420 HD
ENDROOT
BRANCH   3   5
ATOM      5  C   LIG    1        3.471   0.770  -5.447  0.00  0.00    +0.180 A 
ATOM      6  C   LIG    1        2.485   0.588  -6.405  0.00  0.00    +0.050 A 
ATOM      7  C   LIG    1        2.835   0.400  -7.734  0.00  0.00    +0.090 A 
ATOM      8  C   LIG    1        4.175   0.384  -8.102  0.00  0.00    +0.040 A 
ATOM      9  O   LIG    1        4.538   0.203  -9.402  0.00  0.00    -0.300 OA
ATOM     10  C   LIG    1        3.544  -0.339 -10.279  0.00  0.00    +0.230 C 
ATOM     11  C   LIG    1        2.227   0.411 -10.033  0.00  0.00    +0.230 C 
ATOM     12  C   LIG    1        5.159   0.558  -7.140  0.00  0.00    +0.090 A 
ATOM     13  O   LIG    1        1.855   0.225  -8.663  0.00  0.00    -0.300 OA
ATOM     14  C   LIG    1        4.810   0.752  -5.817  0.00  0.00    -0.120 A 
ATOM     15 BR   LIG    1        6.156   0.991  -4.510  0.00  0.00    -0.030 Br
ENDBRANCH   3   5
BRANCH   2  16
ATOM     16  C   LIG    1        1.571   0.674  -2.197  0.00  0.00    +0.000 C 
ATOM     17  C   LIG    1        0.306  -0.127  -1.880  0.00  0.00    +0.050 C 
ATOM     18  C   LIG    1       -0.125   0.157  -0.437  0.00  0.00    +0.280 C 
ATOM     19  N   LIG    1       -0.270   1.609  -0.264  0.00  0.00    -0.610 N 
ATOM     20  C   LIG    1        0.856   2.480  -0.626  0.00  0.00    +0.270 C 
ATOM     21  C   LIG    1       -1.417   2.132   0.213  0.00  0.00    +0.590 C 
ATOM     22  O   LIG    1       -2.374   1.410   0.424  0.00  0.00    -0.520 OA
ATOM     23  C   LIG    1        1.276   2.170  -2.066  0.00  0.00    +0.040 C 
BRANCH  21  24
ATOM     24  C   LIG    1       -1.512   3.571   0.477  0.00  0.00    -0.280 A 
ATOM     25  C   LIG    1       -2.667   4.301   0.483  0.00  0.00    +0.100 A 
ATOM     26  C   LIG    1       -2.468   5.632   0.761  0.00  0.00    +0.000 A 
ATOM     27  C   LIG    1       -1.194   5.982   0.976  0.00  0.00    -0.070 A 
ATOM     28  S   LIG    1       -0.160   4.632   0.844  0.00  0.00    +0.220 S 
ENDBRANCH  21  24
ENDBRANCH   2  16
TORSDOF 3
