REMARK  Name = ZINCqH0000007Ni8.1
REMARK                            x       y       z     vdW  Elec       q    Type
REMARK                         _______ _______ _______ _____ _____    ______ ____
ROOT
ATOM      1  C   LIG    1       -0.016   1.337   0.009  0.00  0.00    +0.290 A 
ATOM      2  N   LIG    1        1.222   1.778  -0.000  0.00  0.00    -0.270 NA
ATOM      3  N   LIG    1        2.057   0.649  -0.014  0.00  0.00    -0.470 N 
ATOM      4  H   LIG    1        3.027   0.645  -0.023  0.00  0.00    +0.450 HD
ATOM      5  C   LIG    1        1.245  -0.429  -0.012  0.00  0.00    +0.500 A 
ATOM      6  N   LIG    1        0.002  -0.004   0.002  0.00  0.00    -0.550 NA
ENDROOT
BRANCH   1  12
ATOM      7  C   LIG    1       -1.121   3.577   0.027  0.00  0.00    +0.160 A 
ATOM      8  C   LIG    1       -2.264   4.360   0.036  0.00  0.00    -0.090 A 
ATOM      9  C   LIG    1       -3.511   3.764   0.039  0.00  0.00    +0.070 A 
ATOM     10  C   LIG    1       -3.626   2.386   0.033  0.00  0.00    -0.030 A 
ATOM     11  C   LIG    1       -2.496   1.593   0.017  0.00  0.00    +0.100 A 
ATOM     12  C   LIG    1       -1.234   2.183   0.020  0.00  0.00    -0.050 A 
BRANCH   7  14
ATOM     13  C   LIG    1        0.144   5.589   0.032  0.00  0.00    +0.240 C 
ATOM     14  O   LIG    1        0.106   4.161   0.024  0.00  0.00    -0.290 OA
ENDBRANCH   7  14
ENDBRANCH   1  12
BRANCH   5  15
ATOM     15  N   LIG    1        1.652  -1.756  -0.022  0.00  0.00    -0.620 N 
ATOM     16  H   LIG    1        0.991  -2.466  -0.020  0.00  0.00    +0.440 HD
ATOM     17  C   LIG    1        2.965  -2.058  -0.036  0.00  0.00    +0.550 C 
ATOM     18  O   LIG    1        3.792  -1.170  -0.040  0.00  0.00    -0.500 OA
BRANCH  17  19
ATOM     19  C   LIG    1        3.408  -3.498  -0.047  0.00  0.00    +0.020 C 
ATOM     20  C   LIG    1        3.424  -4.016  -1.487  0.00  0.00    +0.080 C 
BRANCH  19  21
ATOM     21  S   LIG    1        5.073  -3.625   0.659  0.00  0.00    -0.160 S 
BRANCH  21  22
ATOM     22  C   LIG    1        5.363  -5.415   0.702  0.00  0.00    +0.130 C 
BRANCH  22  23
ATOM     23  C   LIG    1        6.730  -5.689   1.274  0.00  0.00    -0.080 A 
ATOM     24  C   LIG    1        7.827  -5.771   0.436  0.00  0.00    +0.020 A 
ATOM     25  C   LIG    1        9.081  -6.017   0.961  0.00  0.00    +0.010 A 
ATOM     26  C   LIG    1        9.238  -6.193   2.324  0.00  0.00    +0.010 A 
ATOM     27  C   LIG    1        8.141  -6.117   3.161  0.00  0.00    +0.010 A 
ATOM     28  C   LIG    1        6.887  -5.865   2.636  0.00  0.00    +0.020 A 
ENDBRANCH  22  23
ENDBRANCH  21  22
ENDBRANCH  19  21
ENDBRANCH  17  19
ENDBRANCH   5  15
TORSDOF 7
