REMARK  Name = ZINCqH0000007Ni8.0
REMARK                            x       y       z     vdW  Elec       q    Type
REMARK                         _______ _______ _______ _____ _____    ______ ____
ROOT
ATOM      1  C   LIG    1       -5.401  -1.983   2.092  0.00  0.00    +0.350 A 
ATOM      2  N   LIG    1       -4.096  -1.851   2.228  0.00  0.00    -0.520 NA
ATOM      3  C   LIG    1       -3.716  -0.655   1.777  0.00  0.00    +0.440 A 
ATOM      4  N   LIG    1       -4.770  -0.007   1.338  0.00  0.00    -0.280 NA
ATOM      5  N   LIG    1       -5.878  -0.848   1.532  0.00  0.00    -0.480 N 
ATOM      6  H   LIG    1       -6.801  -0.654   1.308  0.00  0.00    +0.440 HD
ENDROOT
BRANCH   1  12
ATOM      7  C   LIG    1       -5.577  -4.279   3.054  0.00  0.00    +0.180 A 
ATOM      8  C   LIG    1       -6.336  -5.381   3.413  0.00  0.00    -0.070 A 
ATOM      9  C   LIG    1       -7.702  -5.380   3.206  0.00  0.00    +0.080 A 
ATOM     10  C   LIG    1       -8.322  -4.280   2.638  0.00  0.00    -0.030 A 
ATOM     11  C   LIG    1       -7.581  -3.173   2.280  0.00  0.00    +0.070 A 
ATOM     12  C   LIG    1       -6.201  -3.165   2.479  0.00  0.00    -0.080 A 
BRANCH   7  14
ATOM     13  C   LIG    1       -3.669  -5.452   3.847  0.00  0.00    +0.240 C 
ATOM     14  O   LIG    1       -4.235  -4.280   3.257  0.00  0.00    -0.280 OA
ENDBRANCH   7  14
ENDBRANCH   1  12
BRANCH   3  15
ATOM     15  N   LIG    1       -2.404  -0.171   1.767  0.00  0.00    -0.620 N 
ATOM     16  H   LIG    1       -1.682  -0.719   2.112  0.00  0.00    +0.430 HD
ATOM     17  C   LIG    1       -2.143   1.058   1.278  0.00  0.00    +0.530 C 
ATOM     18  O   LIG    1       -3.045   1.743   0.846  0.00  0.00    -0.460 OA
BRANCH  17  19
ATOM     19  C   LIG    1       -0.729   1.579   1.267  0.00  0.00    +0.020 C 
ATOM     20  C   LIG    1       -0.013   1.086   0.008  0.00  0.00    +0.080 C 
BRANCH  19  21
ATOM     21  S   LIG    1       -0.753   3.393   1.277  0.00  0.00    -0.160 S 
BRANCH  21  22
ATOM     22  C   LIG    1        1.003   3.824   1.416  0.00  0.00    +0.120 C 
BRANCH  22  23
ATOM     23  C   LIG    1        1.152   5.324   1.438  0.00  0.00    -0.080 A 
ATOM     24  C   LIG    1        1.319   6.019   0.255  0.00  0.00    +0.020 A 
ATOM     25  C   LIG    1        1.451   7.395   0.274  0.00  0.00    +0.010 A 
ATOM     26  C   LIG    1        1.426   8.074   1.477  0.00  0.00    +0.010 A 
ATOM     27  C   LIG    1        1.264   7.379   2.661  0.00  0.00    +0.000 A 
ATOM     28  C   LIG    1        1.127   6.004   2.641  0.00  0.00    +0.020 A 
ENDBRANCH  22  23
ENDBRANCH  21  22
ENDBRANCH  19  21
ENDBRANCH  17  19
ENDBRANCH   3  15
TORSDOF 7
