REMARK  Name = ZINCpe000000WpDK.0
REMARK                            x       y       z     vdW  Elec       q    Type
REMARK                         _______ _______ _______ _____ _____    ______ ____
ROOT
ATOM      1  N   LIG    1       -0.100   6.127  -1.347  0.00  0.00    -0.720 N 
ATOM      2  H   LIG    1       -0.097   5.500  -2.087  0.00  0.00    +0.400 HD
ATOM      3  C   LIG    1       -0.124   7.453  -1.586  0.00  0.00    +0.530 C 
ATOM      4  O   LIG    1       -0.128   8.236  -0.661  0.00  0.00    -0.520 OA
ENDROOT
BRANCH   3   5
ATOM      5  C   LIG    1       -0.145   7.963  -3.005  0.00  0.00    +0.000 C 
ATOM      6  C   LIG    1       -1.587   7.993  -3.514  0.00  0.00    +0.090 C 
BRANCH   5   7
ATOM      7  S   LIG    1        0.549   9.633  -3.056  0.00  0.00    +0.110 S 
BRANCH   7   8
ATOM      8  C   LIG    1        0.544   9.914  -4.795  0.00  0.00    +0.390 A 
ATOM      9  N   LIG    1        0.098   8.970  -5.620  0.00  0.00    -0.640 NA
ATOM     10  C   LIG    1        0.089   9.183  -6.932  0.00  0.00    +0.640 A 
ATOM     11  N   LIG    1        0.536  10.336  -7.421  0.00  0.00    -0.660 NA
ATOM     12  C   LIG    1        0.987  11.277  -6.597  0.00  0.00    +0.640 A 
ATOM     13  N   LIG    1        0.991  11.067  -5.285  0.00  0.00    -0.620 NA
BRANCH  12  14
ATOM     14  N   LIG    1        1.451  12.474  -7.105  0.00  0.00    -0.800 N 
ATOM     15  H   LIG    1        1.448  12.628  -8.063  0.00  0.00    +0.420 HD
ATOM     16  H   LIG    1        1.779  13.161  -6.504  0.00  0.00    +0.420 HD
ENDBRANCH  12  14
BRANCH  10  17
ATOM     17  N   LIG    1       -0.378   8.206  -7.787  0.00  0.00    -0.810 N 
ATOM     18  H   LIG    1       -0.704   7.365  -7.430  0.00  0.00    +0.420 HD
ATOM     19  H   LIG    1       -0.381   8.360  -8.745  0.00  0.00    +0.420 HD
ENDBRANCH  10  17
ENDBRANCH   7   8
ENDBRANCH   5   7
ENDBRANCH   3   5
BRANCH   1  20
ATOM     20  C   LIG    1       -0.079   5.632   0.032  0.00  0.00    +0.330 C 
BRANCH  20  24
ATOM     21  C   LIG    1       -0.016   1.356   0.009  0.00  0.00    +0.110 A 
ATOM     22  C   LIG    1       -1.224   2.034   0.019  0.00  0.00    -0.040 A 
ATOM     23  C   LIG    1       -1.241   3.416   0.031  0.00  0.00    +0.040 A 
ATOM     24  C   LIG    1       -0.055   4.125   0.024  0.00  0.00    -0.110 A 
ATOM     25  C   LIG    1        1.155   3.455   0.009  0.00  0.00    -0.010 A 
ATOM     26  C   LIG    1        1.179   2.070   0.002  0.00  0.00    +0.100 A 
BRANCH  21  28
ATOM     27  C   LIG    1       -1.262  -0.670   0.011  0.00  0.00    +0.240 C 
ATOM     28  O   LIG    1        0.002  -0.004   0.002  0.00  0.00    -0.310 OA
ENDBRANCH  21  28
BRANCH  26  29
ATOM     29  O   LIG    1        2.367   1.409  -0.012  0.00  0.00    -0.310 OA
ATOM     30  C   LIG    1        3.553   2.206  -0.019  0.00  0.00    +0.240 C 
ENDBRANCH  26  29
ENDBRANCH  20  24
ENDBRANCH   1  20
TORSDOF 9
