REMARK  Name = ZINCvU0000000AeO.0
REMARK                            x       y       z     vdW  Elec       q    Type
REMARK                         _______ _______ _______ _____ _____    ______ ____
ROOT
ATOM      1  N   LIG    1        3.626  -0.651  -0.035  0.00  0.00    -0.510 N 
ATOM      2  C   LIG    1        3.785  -1.990   0.058  0.00  0.00    +0.520 C 
ATOM      3  C   LIG    1        5.236  -2.219  -0.007  0.00  0.00    -0.050 C 
ATOM      4  N   LIG    1        5.808  -0.983  -0.125  0.00  0.00    -0.470 NA
ATOM      5  C   LIG    1        5.890  -3.436   0.045  0.00  0.00    +0.260 C 
ATOM      6  O   LIG    1        2.910  -2.830   0.169  0.00  0.00    -0.470 OA
ATOM      7  C   LIG    1        4.867  -0.074  -0.141  0.00  0.00    +0.310 C 
ENDROOT
BRANCH   1  11
ATOM      8  C   LIG    1       -0.018   1.383   0.010  0.00  0.00    +0.150 A 
ATOM      9  C   LIG    1        0.872   1.530   1.064  0.00  0.00    -0.030 A 
ATOM     10  C   LIG    1        2.079   0.857   1.049  0.00  0.00    +0.080 A 
ATOM     11  C   LIG    1        2.400   0.033  -0.021  0.00  0.00    +0.090 A 
ATOM     12  C   LIG    1        1.510  -0.115  -1.075  0.00  0.00    +0.090 A 
ATOM     13  C   LIG    1        0.303   0.559  -1.060  0.00  0.00    -0.060 A 
ATOM     14 CL   LIG    1       -0.810   0.375  -2.379  0.00  0.00    -0.040 Cl
BRANCH   8  16
ATOM     15  C   LIG    1       -1.467   2.881   1.155  0.00  0.00    +0.250 C 
ATOM     16  O   LIG    1       -1.202   2.050   0.023  0.00  0.00    -0.300 OA
ENDBRANCH   8  16
ENDBRANCH   1  11
BRANCH   5  17
ATOM     17  C   LIG    1        7.298  -3.484  -0.024  0.00  0.00    -0.020 A 
ATOM     18  C   LIG    1        8.078  -4.625   0.017  0.00  0.00    +0.020 A 
ATOM     19  C   LIG    1        9.411  -4.200  -0.082  0.00  0.00    -0.070 A 
ATOM     20  C   LIG    1        9.396  -2.852  -0.177  0.00  0.00    +0.210 A 
ATOM     21  O   LIG    1        8.125  -2.424  -0.148  0.00  0.00    -0.130 OA
ENDBRANCH   5  17
BRANCH   7  22
ATOM     22  S   LIG    1        5.155   1.658  -0.280  0.00  0.00    +0.040 S 
BRANCH  22  23
ATOM     23  C   LIG    1        6.963   1.670  -0.375  0.00  0.00    +0.100 C 
BRANCH  23  24
ATOM     24  C   LIG    1        7.457   3.112  -0.504  0.00  0.00    +0.220 C 
BRANCH  24  25
ATOM     25  O   LIG    1        8.884   3.122  -0.579  0.00  0.00    -0.310 OA
BRANCH  25  26
ATOM     26  C   LIG    1        9.488   4.334  -0.697  0.00  0.00    +0.130 A 
ATOM     27  C   LIG    1        8.722   5.489  -0.746  0.00  0.00    -0.080 A 
ATOM     28  C   LIG    1        9.338   6.721  -0.860  0.00  0.00    +0.050 A 
ATOM     29  C   LIG    1       10.716   6.801  -0.937  0.00  0.00    -0.040 A 
ATOM     30  C   LIG    1       11.482   5.649  -0.894  0.00  0.00    +0.050 A 
ATOM     31  C   LIG    1       10.870   4.417  -0.774  0.00  0.00    -0.020 A 
ENDBRANCH  25  26
ENDBRANCH  24  25
ENDBRANCH  23  24
ENDBRANCH  22  23
ENDBRANCH   7  22
TORSDOF 8
