REMARK  Name = ZINCrH000004quIf.0
REMARK                            x       y       z     vdW  Elec       q    Type
REMARK                         _______ _______ _______ _____ _____    ______ ____
ROOT
ATOM      1  C   LIG    1        0.628   1.216   0.030  0.00  0.00    +0.220 C 
ENDROOT
BRANCH   1   2
ATOM      2  N   LIG    1        0.714   1.708  -1.352  0.00  0.00    -0.520 NA
ATOM      3  C   LIG    1        0.306   3.116  -1.436  0.00  0.00    +0.170 C 
ATOM      4  C   LIG    1        0.268   3.551  -2.903  0.00  0.00    +0.040 C 
ATOM      5  C   LIG    1        1.657   3.364  -3.522  0.00  0.00    +0.030 C 
ATOM      6  C   LIG    1        2.078   1.899  -3.378  0.00  0.00    +0.100 C 
ATOM      7  C   LIG    1        2.063   1.512  -1.897  0.00  0.00    +0.190 C 
BRANCH   6   8
ATOM      8  C   LIG    1        3.468   1.719  -3.931  0.00  0.00    +0.190 A 
ATOM      9  N   LIG    1        4.550   2.321  -3.518  0.00  0.00    -0.290 NA
ATOM     10  N   LIG    1        5.557   1.929  -4.215  0.00  0.00    -0.290 NA
ATOM     11  C   LIG    1        5.163   1.059  -5.104  0.00  0.00    +0.350 A 
ATOM     12  N   LIG    1        3.828   0.897  -4.947  0.00  0.00    -0.440 N 
BRANCH  12  13
ATOM     13  C   LIG    1        2.950   0.014  -5.719  0.00  0.00    +0.200 C 
ATOM     14  C   LIG    1        3.611  -0.974  -6.682  0.00  0.00    +0.060 C 
ATOM     15  C   LIG    1        2.866   0.246  -7.229  0.00  0.00    +0.050 C 
ENDBRANCH  12  13
ENDBRANCH   6   8
ENDBRANCH   1   2
BRANCH   1  18
ATOM     16  N   LIG    1        0.655  -0.964   1.196  0.00  0.00    -0.680 N 
ATOM     17  H   LIG    1        0.398  -0.500   2.008  0.00  0.00    +0.410 HD
ATOM     18  C   LIG    1        0.773  -0.283   0.039  0.00  0.00    +0.510 C 
ATOM     19  O   LIG    1        0.996  -0.878  -0.994  0.00  0.00    -0.480 OA
BRANCH  16  24
ATOM     20  C   LIG    1        1.664  -6.547   1.319  0.00  0.00    +0.090 C 
ATOM     21  C   LIG    1        1.395  -5.064   1.286  0.00  0.00    -0.070 A 
ATOM     22  C   LIG    1        2.029  -4.229   2.187  0.00  0.00    +0.020 A 
ATOM     23  C   LIG    1        1.785  -2.869   2.160  0.00  0.00    -0.080 A 
ATOM     24  C   LIG    1        0.903  -2.342   1.227  0.00  0.00    +0.140 A 
ATOM     25  C   LIG    1        0.264  -3.185   0.326  0.00  0.00    -0.020 A 
ATOM     26 CL   LIG    1       -0.846  -2.531  -0.839  0.00  0.00    -0.040 Cl
ATOM     27  C   LIG    1        2.476  -1.960   3.143  0.00  0.00    +0.110 C 
ATOM     28  C   LIG    1        0.516  -4.543   0.354  0.00  0.00    +0.020 A 
ENDBRANCH  16  24
ENDBRANCH   1  18
TORSDOF 5
