REMARK  Name = ZINCrg000000qdz2.0
REMARK                            x       y       z     vdW  Elec       q    Type
REMARK                         _______ _______ _______ _____ _____    ______ ____
ROOT
ATOM      1  C   LIG    1       -0.730  -0.572  -1.498  0.00  0.00    -0.660 A 
ATOM      2  C   LIG    1       -2.011  -1.092  -1.522  0.00  0.00    +0.120 A 
ATOM      3  C   LIG    1       -2.578  -1.484  -2.717  0.00  0.00    +0.020 A 
ATOM      4  C   LIG    1       -1.850  -1.365  -3.903  0.00  0.00    -0.070 A 
ATOM      5  C   LIG    1       -0.556  -0.844  -3.871  0.00  0.00    +0.050 A 
ATOM      6  C   LIG    1       -0.003  -0.451  -2.670  0.00  0.00    +0.130 A 
ENDROOT
BRANCH   4   7
ATOM      7  C   LIG    1       -2.449  -1.789  -5.187  0.00  0.00    +0.560 C 
ATOM      8  N   LIG    1       -3.748  -1.534  -5.441  0.00  0.00    -0.610 N 
ATOM      9  C   LIG    1       -4.556  -0.732  -4.511  0.00  0.00    +0.300 C 
ATOM     10  C   LIG    1       -5.251   0.381  -5.311  0.00  0.00    +0.200 C 
ATOM     11  N   LIG    1       -5.998  -0.218  -6.425  0.00  0.00    -0.450 N 
ATOM     12  C   LIG    1       -5.098  -0.895  -7.368  0.00  0.00    +0.220 C 
ATOM     13  C   LIG    1       -4.396  -2.055  -6.654  0.00  0.00    +0.300 C 
ATOM     14  O   LIG    1       -1.770  -2.367  -6.013  0.00  0.00    -0.520 OA
BRANCH  11  15
ATOM     15  C   LIG    1       -6.772   0.733  -7.073  0.00  0.00    +0.220 A 
ATOM     16  N   LIG    1       -6.712   1.001  -8.340  0.00  0.00    -0.520 NA
ATOM     17  C   LIG    1       -7.528   1.938  -8.791  0.00  0.00    +0.240 A 
ATOM     18  C   LIG    1       -8.304   2.492  -7.860  0.00  0.00    -0.100 A 
ATOM     19  S   LIG    1       -7.938   1.728  -6.315  0.00  0.00    +0.140 S 
ENDBRANCH  11  15
ENDBRANCH   4   7
BRANCH   1  20
ATOM     20  S   LIG    1       -0.016  -0.067   0.032  0.00  0.00    +2.700 S 
ATOM     21  O   LIG    1       -0.701  -0.784   1.050  0.00  0.00    -0.950 OA
ATOM     22  O   LIG    1        1.393  -0.122  -0.145  0.00  0.00    -0.950 OA
BRANCH  20  23
ATOM     23  N   LIG    1       -0.398   1.530   0.248  0.00  0.00    -1.110 NA
ATOM     24  H   LIG    1        0.303   2.200   0.256  0.00  0.00    +0.420 HD
BRANCH  23  25
ATOM     25  C   LIG    1       -1.796   1.932   0.421  0.00  0.00    +0.300 C 
BRANCH  25  26
ATOM     26  C   LIG    1       -1.853   3.360   0.965  0.00  0.00    +0.180 C 
BRANCH  26  28
ATOM     27  C   LIG    1       -1.324   5.630   0.406  0.00  0.00    +0.200 C 
ATOM     28  O   LIG    1       -1.318   4.262  -0.006  0.00  0.00    -0.390 OA
ENDBRANCH  26  28
ENDBRANCH  25  26
ENDBRANCH  23  25
ENDBRANCH  20  23
ENDBRANCH   1  20
TORSDOF 7
