REMARK  Name = ZINCvU0000000J1e.0
REMARK                            x       y       z     vdW  Elec       q    Type
REMARK                         _______ _______ _______ _____ _____    ______ ____
ROOT
ATOM      1  N   LIG    1        5.312   6.322   1.400  0.00  0.00    -1.230 NA
ATOM      2  P   LIG    1        5.643   5.508   0.119  0.00  0.00    +2.890 P 
ENDROOT
BRANCH   1   6
ATOM      3  C   LIG    1        6.070   4.726   5.091  0.00  0.00    -0.120 A 
ATOM      4  C   LIG    1        5.368   5.921   4.990  0.00  0.00    +0.040 A 
ATOM      5  C   LIG    1        5.107   6.465   3.767  0.00  0.00    -0.070 A 
ATOM      6  C   LIG    1        5.557   5.805   2.595  0.00  0.00    +0.290 A 
ATOM      7  C   LIG    1        6.267   4.583   2.716  0.00  0.00    -0.210 A 
ATOM      8  C   LIG    1        6.517   4.067   3.953  0.00  0.00    +0.050 A 
ENDBRANCH   1   6
BRANCH   2   9
ATOM      9  C   LIG    1        5.055   6.411  -1.340  0.00  0.00    -0.740 A 
ATOM     10  C   LIG    1        4.382   5.739  -2.344  0.00  0.00    +0.070 A 
ATOM     11  C   LIG    1        3.929   6.428  -3.453  0.00  0.00    -0.010 A 
ATOM     12  C   LIG    1        4.158   7.787  -3.564  0.00  0.00    +0.050 A 
ATOM     13  C   LIG    1        4.835   8.457  -2.563  0.00  0.00    -0.010 A 
ATOM     14  C   LIG    1        5.283   7.769  -1.451  0.00  0.00    +0.110 A 
ENDBRANCH   2   9
BRANCH   2  15
ATOM     15  C   LIG    1        7.438   5.271   0.001  0.00  0.00    -0.770 A 
ATOM     16  C   LIG    1        8.280   5.915   0.888  0.00  0.00    +0.120 A 
ATOM     17  C   LIG    1        9.647   5.731   0.801  0.00  0.00    +0.000 A 
ATOM     18  C   LIG    1       10.173   4.911  -0.181  0.00  0.00    +0.050 A 
ATOM     19  C   LIG    1        9.331   4.272  -1.071  0.00  0.00    -0.010 A 
ATOM     20  C   LIG    1        7.963   4.452  -0.981  0.00  0.00    +0.050 A 
ENDBRANCH   2  15
BRANCH   2  21
ATOM     21  C   LIG    1        4.824   3.891   0.201  0.00  0.00    -0.900 A 
ATOM     22  C   LIG    1        3.558   3.661   0.619  0.00  0.00    +0.360 A 
ATOM     23  N   LIG    1        3.332   2.330   0.532  0.00  0.00    -0.310 N 
ATOM     24  N   LIG    1        4.495   1.728   0.036  0.00  0.00    -0.280 NA
ATOM     25  C   LIG    1        5.388   2.663  -0.162  0.00  0.00    +0.290 A 
BRANCH  23  26
ATOM     26  C   LIG    1        2.142   1.672   0.872  0.00  0.00    +0.140 A 
ATOM     27  C   LIG    1        1.060   2.395   1.354  0.00  0.00    -0.010 A 
ATOM     28  C   LIG    1       -0.112   1.744   1.687  0.00  0.00    +0.050 A 
ATOM     29  C   LIG    1       -0.207   0.372   1.541  0.00  0.00    +0.010 A 
ATOM     30  C   LIG    1        0.870  -0.352   1.062  0.00  0.00    +0.040 A 
ATOM     31  C   LIG    1        2.043   0.294   0.727  0.00  0.00    +0.030 A 
ENDBRANCH  23  26
ENDBRANCH   2  21
TORSDOF 5
