REMARK  Name = ZINCrH000004sqOS.0
REMARK                            x       y       z     vdW  Elec       q    Type
REMARK                         _______ _______ _______ _____ _____    ______ ____
ROOT
ATOM      1  N   LIG    1       -1.996   4.756  -0.105  0.00  0.00    -0.720 N 
ATOM      2  H   LIG    1       -1.596   5.424   0.474  0.00  0.00    +0.400 HD
ATOM      3  C   LIG    1       -1.735   3.449   0.092  0.00  0.00    +0.500 C 
ATOM      4  O   LIG    1       -2.234   2.615  -0.633  0.00  0.00    -0.460 OA
ENDROOT
BRANCH   1   5
ATOM      5  C   LIG    1       -2.882   5.170  -1.196  0.00  0.00    +0.290 C 
ATOM      6  C   LIG    1       -2.308   4.721  -2.512  0.00  0.00    +0.030 C 
ATOM      7  C   LIG    1       -0.775   4.563  -2.461  0.00  0.00    +0.020 C 
ATOM      8  C   LIG    1       -0.079   5.695  -1.681  0.00  0.00    +0.000 C 
ATOM      9  C   LIG    1       -0.663   7.048  -1.987  0.00  0.00    +0.020 C 
ATOM     10  C   LIG    1       -1.739   7.368  -0.929  0.00  0.00    +0.010 C 
ATOM     11  C   LIG    1       -3.005   6.707  -1.209  0.00  0.00    +0.040 C 
BRANCH   5  15
ATOM     12  C   LIG    1       -6.619   1.907  -0.518  0.00  0.00    +0.230 C 
ATOM     13  C   LIG    1       -5.814   3.165  -0.715  0.00  0.00    +0.160 A 
ATOM     14  N   LIG    1       -4.513   3.245  -0.858  0.00  0.00    -0.430 NA
ATOM     15  C   LIG    1       -4.244   4.555  -1.002  0.00  0.00    +0.160 A 
ATOM     16  N   LIG    1       -5.375   5.192  -0.948  0.00  0.00    -0.380 NA
ATOM     17  O   LIG    1       -6.290   4.412  -0.784  0.00  0.00    +0.070 OA
ENDBRANCH   5  15
ENDBRANCH   1   5
BRANCH   3  18
ATOM     18  C   LIG    1       -0.822   3.023   1.213  0.00  0.00    +0.200 C 
BRANCH  18  19
ATOM     19  N   LIG    1       -0.700   1.560   1.217  0.00  0.00    -0.480 N 
ATOM     20  C   LIG    1       -0.013   1.086   0.008  0.00  0.00    +0.210 C 
BRANCH  19  21
ATOM     21  C   LIG    1       -0.050   1.114   2.370  0.00  0.00    +0.090 A 
ATOM     22  C   LIG    1        1.247   1.531   2.642  0.00  0.00    -0.030 A 
ATOM     23  C   LIG    1        1.885   1.093   3.786  0.00  0.00    +0.010 A 
ATOM     24  C   LIG    1        1.239   0.231   4.654  0.00  0.00    +0.000 A 
ATOM     25  C   LIG    1       -0.050  -0.190   4.382  0.00  0.00    -0.080 A 
ATOM     26  C   LIG    1       -0.751  -1.129   5.330  0.00  0.00    +0.090 C 
ATOM     27  C   LIG    1       -0.696   0.249   3.243  0.00  0.00    -0.060 A 
ATOM     28  C   LIG    1       -2.101  -0.210   2.949  0.00  0.00    +0.100 C 
ENDBRANCH  19  21
ENDBRANCH  18  19
ENDBRANCH   3  18
TORSDOF 5
