REMARK  Name = ZINCpe00000gMTvy.2
REMARK                            x       y       z     vdW  Elec       q    Type
REMARK                         _______ _______ _______ _____ _____    ______ ____
ROOT
ATOM      1  N   LIG    1        4.948   0.902   6.556  0.00  0.00    -0.730 N 
ATOM      2  H   LIG    1        4.702   0.312   7.285  0.00  0.00    +0.400 HD
ATOM      3  C   LIG    1        4.031   1.252   5.633  0.00  0.00    +0.520 C 
ATOM      4  O   LIG    1        4.340   1.990   4.721  0.00  0.00    -0.520 OA
ENDROOT
BRANCH   1   5
ATOM      5  C   LIG    1        6.318   1.412   6.458  0.00  0.00    +0.300 C 
BRANCH   5   6
ATOM      6  C   LIG    1        7.150   0.867   7.621  0.00  0.00    +0.200 C 
BRANCH   6   7
ATOM      7  O   LIG    1        7.266  -0.552   7.499  0.00  0.00    -0.310 OA
BRANCH   7  13
ATOM      8  C   LIG    1        9.024  -4.726   9.319  0.00  0.00    +0.090 C 
ATOM      9  C   LIG    1        8.858  -3.229   9.379  0.00  0.00    -0.050 A 
ATOM     10  C   LIG    1        9.431  -2.512  10.413  0.00  0.00    -0.040 A 
ATOM     11  C   LIG    1        9.280  -1.139  10.471  0.00  0.00    +0.050 A 
ATOM     12  C   LIG    1        8.556  -0.480   9.497  0.00  0.00    -0.090 A 
ATOM     13  C   LIG    1        7.979  -1.198   8.459  0.00  0.00    +0.130 A 
ATOM     14  C   LIG    1        8.127  -2.576   8.405  0.00  0.00    -0.020 A 
ENDBRANCH   7  13
ENDBRANCH   6   7
ENDBRANCH   5   6
ENDBRANCH   1   5
BRANCH   3  15
ATOM     15  C   LIG    1        2.622   0.727   5.733  0.00  0.00    +0.210 C 
BRANCH  15  16
ATOM     16  N   LIG    1        1.824   1.251   4.617  0.00  0.00    -0.520 NA
ATOM     17  C   LIG    1        2.301   0.719   3.333  0.00  0.00    +0.190 C 
ATOM     18  C   LIG    1        1.497   1.349   2.193  0.00  0.00    +0.190 C 
ATOM     19  N   LIG    1        0.070   1.055   2.383  0.00  0.00    -0.530 NA
ATOM     20  C   LIG    1       -0.408   1.587   3.667  0.00  0.00    +0.160 C 
ATOM     21  C   LIG    1       -1.890   1.249   3.840  0.00  0.00    +0.040 C 
ATOM     22  C   LIG    1        0.396   0.958   4.807  0.00  0.00    +0.180 C 
BRANCH  19  23
ATOM     23  C   LIG    1       -0.729   1.579   1.267  0.00  0.00    +0.230 C 
BRANCH  23  24
ATOM     24  C   LIG    1       -0.332   3.031   0.993  0.00  0.00    +0.120 C 
ATOM     25  C   LIG    1       -1.051   3.529  -0.262  0.00  0.00    +0.010 C 
BRANCH  24  26
ATOM     26  O   LIG    1       -0.703   3.845   2.108  0.00  0.00    -0.560 OA
ATOM     27  H   LIG    1       -0.481   4.780   2.004  0.00  0.00    +0.370 HD
ENDBRANCH  24  26
ENDBRANCH  23  24
ENDBRANCH  19  23
ENDBRANCH  15  16
ENDBRANCH   3  15
TORSDOF 9
