REMARK  Name = ZINCnE000001RF0i.0
REMARK                            x       y       z     vdW  Elec       q    Type
REMARK                         _______ _______ _______ _____ _____    ______ ____
ROOT
ATOM      1  N   LIG    1        4.970   1.159  -4.850  0.00  0.00    -0.680 NA
ATOM      2  C   LIG    1        4.294   1.756  -3.904  0.00  0.00    +0.440 A 
ATOM      3  N   LIG    1        3.350   2.736  -4.068  0.00  0.00    -0.530 NA
ATOM      4  N   LIG    1        2.894   3.067  -2.784  0.00  0.00    -0.270 NA
ATOM      5  C   LIG    1        3.533   2.339  -1.931  0.00  0.00    +0.050 A 
ATOM      6  O   LIG    1        4.392   1.526  -2.579  0.00  0.00    -0.290 OA
ENDROOT
BRANCH   5   7
ATOM      7  C   LIG    1        3.344   2.386  -0.437  0.00  0.00    +0.330 C 
ATOM      8  C   LIG    1        2.577   3.664  -0.021  0.00  0.00    +0.120 C 
ATOM      9  C   LIG    1        1.142   3.175   0.003  0.00  0.00    -0.150 A 
ATOM     10  C   LIG    1       -0.062   3.842   0.020  0.00  0.00    +0.050 A 
ATOM     11  C   LIG    1       -1.248   3.129   0.031  0.00  0.00    -0.030 A 
ATOM     12  C   LIG    1       -1.218   1.747   0.017  0.00  0.00    +0.040 A 
ATOM     13  C   LIG    1       -0.013   1.076   0.008  0.00  0.00    -0.020 A 
ATOM     14  C   LIG    1        1.185   1.786   0.000  0.00  0.00    +0.110 A 
ATOM     15  O   LIG    1        2.469   1.333   0.003  0.00  0.00    -0.300 OA
ENDBRANCH   5   7
BRANCH   1  16
ATOM     16  C   LIG    1        4.747   1.524  -6.252  0.00  0.00    +0.240 C 
BRANCH  16  22
ATOM     17  F   LIG    1        7.532   5.415  -7.165  0.00  0.00    -0.150 F 
ATOM     18  C   LIG    1        7.343   4.080  -7.247  0.00  0.00    +0.090 A 
ATOM     19  C   LIG    1        8.300   3.280  -7.849  0.00  0.00    -0.040 A 
ATOM     20  C   LIG    1        8.105   1.915  -7.932  0.00  0.00    +0.030 A 
ATOM     21  C   LIG    1        6.956   1.347  -7.415  0.00  0.00    +0.010 A 
ATOM     22  C   LIG    1        6.000   2.144  -6.814  0.00  0.00    -0.020 A 
ATOM     23  C   LIG    1        6.189   3.511  -6.735  0.00  0.00    -0.020 A 
ENDBRANCH  16  22
ENDBRANCH   1  16
TORSDOF 3
