REMARK  Name = ZINCpe000000XrDo.0
REMARK                            x       y       z     vdW  Elec       q    Type
REMARK                         _______ _______ _______ _____ _____    ______ ____
ROOT
ATOM      1  C   LIG    1        0.224   0.477   3.559  0.00  0.00    -0.690 A 
ATOM      2  C   LIG    1        0.269   1.369   4.616  0.00  0.00    +0.160 A 
ATOM      3  C   LIG    1        1.326   1.340   5.509  0.00  0.00    +0.010 A 
ATOM      4  C   LIG    1        2.342   0.421   5.350  0.00  0.00    +0.110 A 
ATOM      5  C   LIG    1        2.303  -0.481   4.286  0.00  0.00    -0.150 A 
ATOM      6  C   LIG    1        1.231  -0.451   3.392  0.00  0.00    +0.200 A 
ENDROOT
BRANCH   5   7
ATOM      7  C   LIG    1        3.388  -1.469   4.109  0.00  0.00    +0.560 C 
ATOM      8  N   LIG    1        4.419  -1.500   4.977  0.00  0.00    -0.630 N 
ATOM      9  H   LIG    1        4.449  -0.874   5.717  0.00  0.00    +0.420 HD
ATOM     10  O   LIG    1        3.351  -2.254   3.181  0.00  0.00    -0.460 OA
BRANCH   8  11
ATOM     11  C   LIG    1        5.446  -2.434   4.810  0.00  0.00    +0.450 A 
ATOM     12  N   LIG    1        6.497  -2.560   5.585  0.00  0.00    -0.340 NA
ATOM     13  N   LIG    1        7.264  -3.611   5.058  0.00  0.00    -0.480 N 
ATOM     14  H   LIG    1        8.104  -3.949   5.407  0.00  0.00    +0.450 HD
ATOM     15  C   LIG    1        6.607  -4.057   3.974  0.00  0.00    +0.510 A 
ATOM     16  N   LIG    1        5.516  -3.348   3.838  0.00  0.00    -0.520 NA
ENDBRANCH   8  11
ENDBRANCH   5   7
BRANCH   1  17
ATOM     17  S   LIG    1       -1.127   0.522   2.429  0.00  0.00    +2.690 S 
ATOM     18  O   LIG    1       -1.202  -0.770   1.842  0.00  0.00    -0.940 OA
ATOM     19  O   LIG    1       -2.210   1.126   3.122  0.00  0.00    -0.950 OA
BRANCH  17  23
ATOM     20  C   LIG    1        0.044   1.281  -2.485  0.00  0.00    +0.070 C 
ATOM     21  C   LIG    1       -0.764   1.599  -1.226  0.00  0.00    +0.140 C 
ATOM     22  C   LIG    1       -0.013   1.086   0.008  0.00  0.00    +0.280 C 
ATOM     23  N   LIG    1       -0.712   1.565   1.211  0.00  0.00    -1.000 NA
ATOM     24  C   LIG    1       -1.032   2.999   1.299  0.00  0.00    +0.280 C 
ATOM     25  C   LIG    1       -1.734   3.419   0.003  0.00  0.00    +0.200 C 
ATOM     26  C   LIG    1       -3.107   2.748  -0.075  0.00  0.00    +0.010 C 
ATOM     27  O   LIG    1       -0.940   3.013  -1.115  0.00  0.00    -0.370 OA
ENDBRANCH  17  23
ENDBRANCH   1  17
TORSDOF 4
