REMARK  Name = ZINCAx0000000bcM.0
REMARK                            x       y       z     vdW  Elec       q    Type
REMARK                         _______ _______ _______ _____ _____    ______ ____
ROOT
ATOM      1  C   LIG    1       -2.981   4.801   3.458  0.00  0.00    +0.510 A 
ATOM      2  N   LIG    1       -2.508   4.495   4.657  0.00  0.00    -0.510 NA
ATOM      3  C   LIG    1       -1.453   3.704   4.791  0.00  0.00    +0.350 A 
ATOM      4  C   LIG    1       -0.843   3.195   3.662  0.00  0.00    -0.100 A 
ATOM      5  C   LIG    1       -1.364   3.535   2.412  0.00  0.00    +0.370 A 
ATOM      6  N   LIG    1       -2.421   4.338   2.351  0.00  0.00    -0.580 NA
ENDROOT
BRANCH   5   7
ATOM      7  N   LIG    1       -0.783   3.048   1.252  0.00  0.00    -0.480 N 
ATOM      8  C   LIG    1       -0.730   1.580   1.267  0.00  0.00    +0.220 C 
ATOM      9  C   LIG    1       -0.013   1.086   0.008  0.00  0.00    +0.240 C 
ATOM     10  N   LIG    1       -0.724   1.573  -1.182  0.00  0.00    -0.480 N 
ATOM     11  C   LIG    1       -0.777   3.042  -1.196  0.00  0.00    +0.220 C 
ATOM     12  C   LIG    1       -1.495   3.536   0.062  0.00  0.00    +0.240 C 
BRANCH  10  13
ATOM     13  C   LIG    1       -0.143   1.086  -2.342  0.00  0.00    +0.370 A 
ATOM     14  C   LIG    1       -0.666   1.421  -3.588  0.00  0.00    -0.110 A 
ATOM     15  C   LIG    1       -0.043   0.910  -4.723  0.00  0.00    +0.370 A 
ATOM     16  N   LIG    1        1.016   0.116  -4.577  0.00  0.00    -0.570 NA
ATOM     17  C   LIG    1        1.478  -0.182  -3.379  0.00  0.00    +0.550 A 
ATOM     18  N   LIG    1        0.920   0.286  -2.281  0.00  0.00    -0.570 NA
BRANCH  15  19
ATOM     19  N   LIG    1       -0.521   1.219  -5.987  0.00  0.00    -0.470 N 
ATOM     20  C   LIG    1       -1.939   0.851  -6.118  0.00  0.00    +0.180 C 
ATOM     21  C   LIG    1       -2.441   1.262  -7.504  0.00  0.00    +0.240 C 
ATOM     22  O   LIG    1       -1.626   0.644  -8.504  0.00  0.00    -0.380 OA
ATOM     23  C   LIG    1       -0.240   0.982  -8.406  0.00  0.00    +0.230 C 
ATOM     24  C   LIG    1        0.285   0.567  -7.029  0.00  0.00    +0.190 C 
ENDBRANCH  15  19
ENDBRANCH  10  13
ENDBRANCH   5   7
BRANCH   1  28
ATOM     25  C   LIG    1       -5.177   7.333   2.108  0.00  0.00    +0.050 C 
ATOM     26  C   LIG    1       -5.954   6.020   1.861  0.00  0.00    +0.040 C 
ATOM     27  C   LIG    1       -5.202   4.949   2.673  0.00  0.00    +0.200 C 
ATOM     28  N   LIG    1       -4.084   5.631   3.361  0.00  0.00    -0.460 N 
ATOM     29  C   LIG    1       -3.777   6.831   2.541  0.00  0.00    +0.220 C 
BRANCH  25  35
ATOM     30  C   LIG    1       -6.131  11.551  -0.410  0.00  0.00    +0.090 C 
ATOM     31  C   LIG    1       -5.545  10.164  -0.363  0.00  0.00    -0.080 A 
ATOM     32  C   LIG    1       -4.926   9.637  -1.481  0.00  0.00    +0.000 A 
ATOM     33  C   LIG    1       -4.387   8.364  -1.437  0.00  0.00    +0.010 A 
ATOM     34  C   LIG    1       -4.469   7.619  -0.276  0.00  0.00    +0.000 A 
ATOM     35  C   LIG    1       -5.088   8.146   0.842  0.00  0.00    -0.070 A 
ATOM     36  C   LIG    1       -5.630   9.416   0.797  0.00  0.00    +0.010 A 
ENDBRANCH  25  35
ENDBRANCH   1  28
TORSDOF 5
