REMARK  Name = ZINCrD000000CxQX.1
REMARK                            x       y       z     vdW  Elec       q    Type
REMARK                         _______ _______ _______ _____ _____    ______ ____
ROOT
ATOM      1  C   LIG    1       -0.682   3.397  -3.250  0.00  0.00    -0.010 A 
ATOM      2  N   LIG    1       -1.954   3.071  -3.132  0.00  0.00    -0.230 NA
ATOM      3  N   LIG    1       -2.574   3.279  -4.237  0.00  0.00    -0.370 N 
ATOM      4  H   LIG    1       -3.518   3.111  -4.386  0.00  0.00    +0.450 HD
ATOM      5  C   LIG    1       -1.711   3.771  -5.171  0.00  0.00    +0.030 A 
ATOM      6  C   LIG    1       -0.488   3.865  -4.568  0.00  0.00    +0.030 A 
ENDROOT
BRANCH   1   8
ATOM      7  O   LIG    1        1.493   3.634  -2.431  0.00  0.00    -0.530 OA
ATOM      8  C   LIG    1        0.348   3.299  -2.196  0.00  0.00    +0.630 C 
ATOM      9  N   LIG    1        0.020   2.836  -0.974  0.00  0.00    -0.610 N 
ATOM     10  C   LIG    1       -1.311   2.384  -0.502  0.00  0.00    +0.290 C 
ATOM     11  C   LIG    1       -1.413   2.913   0.948  0.00  0.00    +0.000 C 
ATOM     12  C   LIG    1        0.045   3.090   1.399  0.00  0.00    -0.090 C 
ATOM     13  C   LIG    1        0.390   4.445   2.014  0.00  0.00    +0.020 C 
ATOM     14  C   LIG    1        1.305   3.675   2.984  0.00  0.00    +0.010 C 
ATOM     15  C   LIG    1        0.410   2.447   2.736  0.00  0.00    +0.030 C 
ATOM     16  C   LIG    1        0.908   2.666   0.203  0.00  0.00    +0.300 C 
BRANCH  11  17
ATOM     17  C   LIG    1       -2.130   1.896   1.838  0.00  0.00    +0.190 C 
BRANCH  17  18
ATOM     18  O   LIG    1       -3.493   1.779   1.424  0.00  0.00    -0.570 OA
ATOM     19  H   LIG    1       -4.010   1.149   1.945  0.00  0.00    +0.380 HD
ENDBRANCH  17  18
ENDBRANCH  11  17
ENDBRANCH   1   8
BRANCH   5  20
ATOM     20  C   LIG    1       -2.037   4.140  -6.567  0.00  0.00    +0.020 A 
ATOM     21  C   LIG    1       -1.220   3.711  -7.613  0.00  0.00    +0.050 A 
ATOM     22  C   LIG    1       -1.532   4.054  -8.913  0.00  0.00    +0.060 A 
ATOM     23  C   LIG    1       -2.646   4.829  -9.179  0.00  0.00    +0.030 A 
ATOM     24  C   LIG    1       -3.457   5.262  -8.145  0.00  0.00    +0.070 A 
ATOM     25  C   LIG    1       -3.159   4.922  -6.841  0.00  0.00    -0.180 A 
BRANCH  25  26
ATOM     26  C   LIG    1       -4.044   5.394  -5.716  0.00  0.00    +0.510 C 
ATOM     27  F   LIG    1       -3.265   6.041  -4.751  0.00  0.00    -0.170 F 
ATOM     28  F   LIG    1       -4.687   4.295  -5.136  0.00  0.00    -0.180 F 
ATOM     29  F   LIG    1       -5.000   6.283  -6.217  0.00  0.00    -0.170 F 
ENDBRANCH  25  26
ENDBRANCH   5  20
TORSDOF 5
