REMARK  Name = ZINCrD000000CxQX.0
REMARK                            x       y       z     vdW  Elec       q    Type
REMARK                         _______ _______ _______ _____ _____    ______ ____
ROOT
ATOM      1  C   LIG    1       -0.918   3.747   0.138  0.00  0.00    -0.040 A 
ATOM      2  C   LIG    1       -1.917   4.694   0.259  0.00  0.00    +0.050 A 
ATOM      3  C   LIG    1       -1.249   5.929   0.339  0.00  0.00    +0.040 A 
ATOM      4  N   LIG    1        0.043   5.688   0.267  0.00  0.00    -0.240 NA
ATOM      5  N   LIG    1        0.266   4.429   0.156  0.00  0.00    -0.370 N 
ATOM      6  H   LIG    1        1.144   4.022   0.092  0.00  0.00    +0.450 HD
ENDROOT
BRANCH   1   8
ATOM      7  O   LIG    1       -2.198   1.798   0.159  0.00  0.00    -0.510 OA
ATOM      8  C   LIG    1       -1.095   2.290   0.020  0.00  0.00    +0.620 C 
ATOM      9  N   LIG    1       -0.034   1.502  -0.242  0.00  0.00    -0.620 N 
ATOM     10  C   LIG    1        1.349   1.922  -0.575  0.00  0.00    +0.250 C 
ATOM     11  C   LIG    1        1.808   0.928  -1.667  0.00  0.00    +0.020 C 
ATOM     12  C   LIG    1        0.930  -0.311  -1.455  0.00  0.00    -0.090 C 
ATOM     13  C   LIG    1        0.231  -0.848  -2.702  0.00  0.00    +0.030 C 
ATOM     14  C   LIG    1        0.498  -2.256  -2.140  0.00  0.00    +0.010 C 
ATOM     15  C   LIG    1        1.676  -1.642  -1.361  0.00  0.00    +0.040 C 
ATOM     16  C   LIG    1        0.012   0.019  -0.270  0.00  0.00    +0.300 C 
BRANCH  11  17
ATOM     17  C   LIG    1        3.285   0.575  -1.484  0.00  0.00    +0.190 C 
BRANCH  17  18
ATOM     18  O   LIG    1        4.090   1.712  -1.799  0.00  0.00    -0.580 OA
ATOM     19  H   LIG    1        5.040   1.560  -1.705  0.00  0.00    +0.390 HD
ENDBRANCH  17  18
ENDBRANCH  11  17
ENDBRANCH   1   8
BRANCH   3  20
ATOM     20  C   LIG    1       -1.886   7.263   0.479  0.00  0.00    +0.040 A 
ATOM     21  C   LIG    1       -3.274   7.372   0.537  0.00  0.00    +0.040 A 
ATOM     22  C   LIG    1       -3.861   8.615   0.673  0.00  0.00    +0.060 A 
ATOM     23  C   LIG    1       -3.074   9.750   0.739  0.00  0.00    +0.020 A 
ATOM     24  C   LIG    1       -1.696   9.648   0.676  0.00  0.00    +0.070 A 
ATOM     25  C   LIG    1       -1.099   8.410   0.546  0.00  0.00    -0.170 A 
BRANCH  25  26
ATOM     26  C   LIG    1        0.403   8.300   0.477  0.00  0.00    +0.520 C 
ATOM     27  F   LIG    1        0.772   7.709  -0.736  0.00  0.00    -0.170 F 
ATOM     28  F   LIG    1        0.862   7.513   1.538  0.00  0.00    -0.170 F 
ATOM     29  F   LIG    1        0.968   9.577   0.564  0.00  0.00    -0.180 F 
ENDBRANCH  25  26
ENDBRANCH   3  20
TORSDOF 5
