REMARK  Name = ZINCvU0000000DUT.0
REMARK                            x       y       z     vdW  Elec       q    Type
REMARK                         _______ _______ _______ _____ _____    ______ ____
ROOT
ATOM      1  N   LIG    1       -6.007   1.960   0.068  0.00  0.00    -0.590 N 
ATOM      2  C   LIG    1       -6.535   2.398  -1.092  0.00  0.00    +0.530 C 
ATOM      3  O   LIG    1       -6.079   2.016  -2.148  0.00  0.00    -0.540 OA
ENDROOT
BRANCH   1   4
ATOM      4  C   LIG    1       -6.558   2.423   1.345  0.00  0.00    +0.270 C 
BRANCH   4   6
ATOM      5  C   LIG    1       -6.401   4.174   3.119  0.00  0.00    +0.010 C 
ATOM      6  C   LIG    1       -5.826   3.692   1.786  0.00  0.00    +0.000 C 
ENDBRANCH   4   6
ENDBRANCH   1   4
BRANCH   2   7
ATOM      7  C   LIG    1       -7.692   3.363  -1.076  0.00  0.00    +0.070 C 
BRANCH   7   8
ATOM      8  C   LIG    1       -8.097   3.698  -2.513  0.00  0.00    +0.100 C 
BRANCH   8   9
ATOM      9  C   LIG    1       -9.255   4.663  -2.497  0.00  0.00    -0.090 A 
ATOM     10  C   LIG    1      -10.552   4.186  -2.494  0.00  0.00    +0.010 A 
ATOM     11  C   LIG    1      -11.614   5.072  -2.474  0.00  0.00    +0.010 A 
ATOM     12  C   LIG    1      -11.378   6.434  -2.469  0.00  0.00    -0.070 A 
ATOM     13  C   LIG    1      -10.080   6.910  -2.478  0.00  0.00    +0.010 A 
ATOM     14  C   LIG    1       -9.019   6.025  -2.492  0.00  0.00    +0.010 A 
BRANCH  12  15
ATOM     15  C   LIG    1      -12.535   7.399  -2.454  0.00  0.00    -0.030 C 
ATOM     16  C   LIG    1      -12.454   8.273  -1.201  0.00  0.00    +0.040 C 
ATOM     17  C   LIG    1      -13.851   6.617  -2.447  0.00  0.00    +0.040 C 
ATOM     18  C   LIG    1      -12.476   8.285  -3.700  0.00  0.00    +0.040 C 
ENDBRANCH  12  15
ENDBRANCH   8   9
ENDBRANCH   7   8
ENDBRANCH   2   7
BRANCH   1  19
ATOM     19  C   LIG    1       -4.882   1.022   0.053  0.00  0.00    +0.390 C 
BRANCH  19  20
ATOM     20  C   LIG    1       -3.586   1.792   0.045  0.00  0.00    +0.430 A 
ATOM     21  N   LIG    1       -3.641   3.095   0.053  0.00  0.00    -0.570 NA
ATOM     22  C   LIG    1       -2.527   3.851   0.046  0.00  0.00    +0.530 A 
ATOM     23  C   LIG    1       -1.223   3.166   0.031  0.00  0.00    -0.210 A 
ATOM     24  C   LIG    1       -0.019   3.865   0.023  0.00  0.00    +0.140 A 
ATOM     25  C   LIG    1        1.163   3.176   0.008  0.00  0.00    +0.010 A 
ATOM     26  C   LIG    1        1.171   1.788   0.001  0.00  0.00    +0.030 A 
ATOM     27  C   LIG    1       -0.013   1.076   0.008  0.00  0.00    -0.010 A 
ATOM     28 CL   LIG    1        2.685   0.938  -0.018  0.00  0.00    -0.050 Cl
ATOM     29  C   LIG    1       -1.221   1.758   0.017  0.00  0.00    +0.190 A 
ATOM     30  O   LIG    1       -2.596   5.068   0.053  0.00  0.00    -0.470 OA
ATOM     31  N   LIG    1       -2.434   1.099   0.030  0.00  0.00    -0.620 N 
ATOM     32  H   LIG    1       -2.455   0.129   0.025  0.00  0.00    +0.420 HD
ENDBRANCH  19  20
ENDBRANCH   1  19
TORSDOF 8
