REMARK  Name = ZINCkj000005miN3.0
REMARK                            x       y       z     vdW  Elec       q    Type
REMARK                         _______ _______ _______ _____ _____    ______ ____
ROOT
ATOM      1  N   LIG    1        3.870  -1.148  -0.220  0.00  0.00    -0.500 N 
ATOM      2  H   LIG    1        4.369  -1.391  -1.063  0.00  0.00    +0.420 HD
ATOM      3  H   LIG    1        3.574  -1.990   0.250  0.00  0.00    +0.430 HD
ENDROOT
BRANCH   1   4
ATOM      4  C   LIG    1        2.693  -0.339  -0.563  0.00  0.00    +0.160 C 
ATOM      5  C   LIG    1        1.715  -1.183  -1.383  0.00  0.00    +0.040 C 
ATOM      6  C   LIG    1        0.346  -0.502  -1.403  0.00  0.00    +0.050 C 
ATOM      7  C   LIG    1        0.002  -0.004   0.002  0.00  0.00    +0.030 C 
ATOM      8  C   LIG    1       -0.019   1.526   0.010  0.00  0.00    +0.170 C 
ATOM      9  C   LIG    1        1.417   2.054  -0.000  0.00  0.00    -0.010 C 
ATOM     10  C   LIG    1        2.003   1.910  -1.406  0.00  0.00    +0.050 C 
ATOM     11  C   LIG    1        3.131   0.875  -1.385  0.00  0.00    +0.030 C 
BRANCH   8  12
ATOM     12  O   LIG    1       -0.687   1.987   1.186  0.00  0.00    -0.570 OA
ATOM     13  H   LIG    1       -0.738   2.950   1.258  0.00  0.00    +0.390 HD
ENDBRANCH   8  12
ENDBRANCH   1   4
BRANCH   1  14
ATOM     14  C   LIG    1        4.753  -0.377   0.666  0.00  0.00    +0.250 C 
BRANCH  14  15
ATOM     15  C   LIG    1        5.979  -1.219   1.023  0.00  0.00    +0.190 C 
BRANCH  15  19
ATOM     16  C   LIG    1        9.339   0.729   2.810  0.00  0.00    -0.010 C 
ATOM     17  C   LIG    1        8.732  -0.501   3.490  0.00  0.00    +0.050 C 
ATOM     18  C   LIG    1        7.923  -1.298   2.463  0.00  0.00    +0.180 C 
ATOM     19  N   LIG    1        6.861  -0.448   1.909  0.00  0.00    -0.530 NA
ATOM     20  C   LIG    1        7.422   0.715   1.211  0.00  0.00    +0.160 C 
ATOM     21  C   LIG    1        8.216   1.572   2.200  0.00  0.00    +0.040 C 
BRANCH  16  22
ATOM     22  C   LIG    1       10.099   1.562   3.845  0.00  0.00    +0.180 C 
BRANCH  22  23
ATOM     23  O   LIG    1       10.762   2.646   3.190  0.00  0.00    -0.580 OA
ATOM     24  H   LIG    1       11.264   3.217   3.787  0.00  0.00    +0.390 HD
ENDBRANCH  22  23
ENDBRANCH  16  22
ENDBRANCH  15  19
ENDBRANCH  14  15
ENDBRANCH   1  14
TORSDOF 7
