REMARK  Name = ZINCqH0000038OoG.0
REMARK                            x       y       z     vdW  Elec       q    Type
REMARK                         _______ _______ _______ _____ _____    ______ ____
ROOT
ATOM      1  C   LIG    1        2.328  -0.407   1.067  0.00  0.00    +0.570 C 
ATOM      2  N   LIG    1        2.266   0.894   1.416  0.00  0.00    -0.660 N 
ATOM      3  H   LIG    1        3.083   1.397   1.558  0.00  0.00    +0.420 HD
ATOM      4  O   LIG    1        1.308  -1.018   0.815  0.00  0.00    -0.490 OA
ENDROOT
BRANCH   1  13
ATOM      5  C   LIG    1        1.280  -3.226  -0.028  0.00  0.00    +0.210 C 
ATOM      6  C   LIG    1        2.770  -3.417   0.086  0.00  0.00    +0.160 A 
ATOM      7  N   LIG    1        3.431  -4.496  -0.205  0.00  0.00    -0.270 NA
ATOM      8  O   LIG    1        4.809  -4.289   0.032  0.00  0.00    -0.080 OA
ATOM      9  C   LIG    1        5.003  -3.034   0.487  0.00  0.00    +0.300 A 
ATOM     10  N   LIG    1        6.083  -2.360   0.849  0.00  0.00    -0.450 NA
ATOM     11  C   LIG    1        6.020  -1.115   1.270  0.00  0.00    +0.240 A 
ATOM     12  C   LIG    1        4.815  -0.435   1.352  0.00  0.00    -0.010 A 
ATOM     13  C   LIG    1        3.638  -1.090   0.990  0.00  0.00    -0.010 A 
ATOM     14  C   LIG    1        3.739  -2.422   0.545  0.00  0.00    -0.200 A 
BRANCH  11  15
ATOM     15  C   LIG    1        7.290  -0.408   1.666  0.00  0.00    +0.020 C 
ATOM     16  C   LIG    1        7.245   1.117   1.780  0.00  0.00    +0.040 C 
ATOM     17  C   LIG    1        7.977   0.459   0.608  0.00  0.00    +0.060 C 
ENDBRANCH  11  15
ENDBRANCH   1  13
BRANCH   2  18
ATOM     18  C   LIG    1        1.024   1.517   1.573  0.00  0.00    +0.140 A 
ATOM     19  C   LIG    1       -0.037   1.173   0.745  0.00  0.00    +0.130 A 
ATOM     20  C   LIG    1       -1.261   1.794   0.898  0.00  0.00    +0.040 A 
ATOM     21  C   LIG    1       -1.435   2.750   1.885  0.00  0.00    +0.160 A 
ATOM     22  C   LIG    1       -0.379   3.095   2.712  0.00  0.00    -0.070 A 
ATOM     23  F   LIG    1       -2.635   3.351   2.037  0.00  0.00    -0.100 F 
ATOM     24  C   LIG    1        0.849   2.481   2.558  0.00  0.00    +0.120 A 
BRANCH  22  25
ATOM     25  N   LIG    1       -0.566   4.122   3.761  0.00  0.00    +0.030 N 
ATOM     26  O   LIG    1       -1.648   4.663   3.897  0.00  0.00    -0.140 OA
ATOM     27  O   LIG    1        0.363   4.425   4.489  0.00  0.00    -0.150 OA
ENDBRANCH  22  25
ENDBRANCH   2  18
TORSDOF 4
