REMARK  Name = ZINCkj000005iBJ3.0
REMARK                            x       y       z     vdW  Elec       q    Type
REMARK                         _______ _______ _______ _____ _____    ______ ____
ROOT
ATOM      1  S   LIG    1        3.756   2.261  -1.918  0.00  0.00    +2.690 S 
ATOM      2  O   LIG    1        3.398   3.595  -1.584  0.00  0.00    -0.950 OA
ATOM      3  O   LIG    1        4.375   1.907  -3.148  0.00  0.00    -0.940 OA
ENDROOT
BRANCH   1   7
ATOM      4  C   LIG    1        6.520   0.817   1.366  0.00  0.00    +0.200 A 
ATOM      5  C   LIG    1        6.389   0.084   0.196  0.00  0.00    -0.040 A 
ATOM      6  C   LIG    1        5.545   0.527  -0.805  0.00  0.00    +0.060 A 
ATOM      7  C   LIG    1        4.832   1.699  -0.640  0.00  0.00    -0.730 A 
ATOM      8  C   LIG    1        4.964   2.435   0.523  0.00  0.00    +0.060 A 
ATOM      9  C   LIG    1        4.189   3.716   0.696  0.00  0.00    +0.120 C 
ATOM     10  C   LIG    1        5.403  -0.270  -2.076  0.00  0.00    +0.110 C 
ATOM     11  C   LIG    1        5.802   1.994   1.529  0.00  0.00    -0.100 A 
BRANCH   4  13
ATOM     12  C   LIG    1        7.433   1.190   3.529  0.00  0.00    +0.250 C 
ATOM     13  O   LIG    1        7.348   0.384   2.352  0.00  0.00    -0.310 OA
ENDBRANCH   4  13
ENDBRANCH   1   7
BRANCH   1  14
ATOM     14  N   LIG    1        2.367   1.365  -1.819  0.00  0.00    -1.140 NA
ATOM     15  H   LIG    1        2.124   0.766  -2.543  0.00  0.00    +0.420 HD
BRANCH  14  16
ATOM     16  C   LIG    1        1.506   1.476  -0.639  0.00  0.00    +0.310 C 
BRANCH  16  17
ATOM     17  C   LIG    1        0.140   0.859  -0.945  0.00  0.00    +0.170 C 
ATOM     18  C   LIG    1       -0.850   1.140   0.213  0.00  0.00    +0.090 C 
ATOM     19  C   LIG    1       -2.219   1.031  -0.515  0.00  0.00    +0.080 C 
ATOM     20  C   LIG    1       -1.919   1.619  -1.911  0.00  0.00    +0.270 C 
ATOM     21  N   LIG    1       -0.465   1.507  -2.128  0.00  0.00    -0.520 N 
ATOM     22  H   LIG    1       -0.288   0.949  -2.949  0.00  0.00    +0.430 HD
ATOM     23  H   LIG    1       -0.068   2.427  -2.250  0.00  0.00    +0.430 HD
ENDBRANCH  16  17
ENDBRANCH  14  16
ENDBRANCH   1  14
TORSDOF 5
