REMARK  Name = ZINCnE000005t9rQ.0
REMARK                            x       y       z     vdW  Elec       q    Type
REMARK                         _______ _______ _______ _____ _____    ______ ____
ROOT
ATOM      1  C   LIG    1       -0.268   1.258  -2.409  0.00  0.00    +0.570 C 
ATOM      2  N   LIG    1       -0.721   1.571  -1.179  0.00  0.00    -0.750 N 
ATOM      3  H   LIG    1       -1.516   2.118  -1.079  0.00  0.00    +0.390 HD
ATOM      4  O   LIG    1        0.729   0.574  -2.534  0.00  0.00    -0.520 OA
ENDROOT
BRANCH   1  10
ATOM      5  C   LIG    1       -4.027   3.834  -4.434  0.00  0.00    +0.070 C 
ATOM      6  C   LIG    1       -2.791   2.987  -4.586  0.00  0.00    -0.240 A 
ATOM      7  C   LIG    1       -2.326   2.666  -5.850  0.00  0.00    +0.080 A 
ATOM      8  C   LIG    1       -1.193   1.889  -6.002  0.00  0.00    -0.220 A 
ATOM      9  C   LIG    1       -0.514   1.424  -4.885  0.00  0.00    +0.320 A 
ATOM     10  C   LIG    1       -0.982   1.747  -3.604  0.00  0.00    -0.290 A 
ATOM     11  O   LIG    1        0.598   0.661  -5.033  0.00  0.00    -0.640 OA
ATOM     12 BR   LIG    1       -0.569   1.458  -7.735  0.00  0.00    -0.090 Br
ATOM     13  C   LIG    1       -2.131   2.529  -3.466  0.00  0.00    +0.080 A 
ENDBRANCH   1  10
BRANCH   2  14
ATOM     14  C   LIG    1       -0.013   1.086   0.008  0.00  0.00    +0.260 C 
BRANCH  14  15
ATOM     15  C   LIG    1       -0.729   1.579   1.267  0.00  0.00    -0.050 C 
ATOM     16  C   LIG    1       -0.632   3.108   1.351  0.00  0.00    +0.250 C 
ATOM     17  O   LIG    1       -1.395   3.546   2.476  0.00  0.00    -0.310 OA
ATOM     18  C   LIG    1       -1.190   2.921   3.665  0.00  0.00    +0.130 A 
ATOM     19  C   LIG    1       -1.632   3.544   4.827  0.00  0.00    -0.020 A 
ATOM     20  C   LIG    1       -1.445   2.938   6.054  0.00  0.00    +0.040 A 
ATOM     21  C   LIG    1       -0.819   1.708   6.128  0.00  0.00    -0.040 A 
ATOM     22  C   LIG    1       -0.378   1.087   4.975  0.00  0.00    +0.040 A 
ATOM     23  C   LIG    1       -0.561   1.691   3.743  0.00  0.00    -0.160 A 
ATOM     24  C   LIG    1       -0.059   0.985   2.508  0.00  0.00    +0.100 C 
ENDBRANCH  14  15
ENDBRANCH   2  14
TORSDOF 3
