REMARK  Name = ZINCpk00000k0ldA.0
REMARK                            x       y       z     vdW  Elec       q    Type
REMARK                         _______ _______ _______ _____ _____    ______ ____
ROOT
ATOM      1  C   LIG    1        2.725   6.949  -4.348  0.00  0.00    +0.320 C 
ATOM      2  N   LIG    1        1.262   6.961  -4.424  0.00  0.00    -0.560 N 
ENDROOT
BRANCH   2   3
ATOM      3  C   LIG    1        0.510   6.562  -3.334  0.00  0.00    +0.420 A 
ATOM      4  N   LIG    1       -0.798   6.524  -3.265  0.00  0.00    -0.350 NA
ATOM      5  N   LIG    1       -1.151   6.102  -2.102  0.00  0.00    -0.250 NA
ATOM      6  C   LIG    1       -0.091   5.856  -1.389  0.00  0.00    +0.150 A 
ATOM      7  O   LIG    1        0.985   6.145  -2.146  0.00  0.00    -0.240 OA
BRANCH   6   8
ATOM      8  C   LIG    1       -0.070   5.347   0.030  0.00  0.00    +0.240 C 
BRANCH   8   9
ATOM      9  C   LIG    1       -0.050   3.840   0.022  0.00  0.00    -0.100 A 
ATOM     10  C   LIG    1        1.156   3.165   0.008  0.00  0.00    +0.010 A 
ATOM     11  C   LIG    1        1.175   1.783   0.000  0.00  0.00    +0.000 A 
ATOM     12  C   LIG    1       -0.013   1.076   0.008  0.00  0.00    +0.010 A 
ATOM     13  C   LIG    1       -1.219   1.751   0.017  0.00  0.00    +0.010 A 
ATOM     14  C   LIG    1       -1.238   3.133   0.030  0.00  0.00    +0.030 A 
ENDBRANCH   8   9
ENDBRANCH   6   8
ENDBRANCH   2   3
BRANCH   2  15
ATOM     15  C   LIG    1        0.596   7.397  -5.653  0.00  0.00    +0.470 C 
BRANCH  15  16
ATOM     16  C   LIG    1        0.354   8.884  -5.594  0.00  0.00    +0.150 A 
ATOM     17  N   LIG    1        1.166   9.819  -6.011  0.00  0.00    -0.280 NA
ATOM     18  N   LIG    1        0.634  10.976  -5.814  0.00  0.00    -0.280 NA
ATOM     19  C   LIG    1       -0.538  10.829  -5.273  0.00  0.00    +0.180 A 
ATOM     20  C   LIG    1       -1.530  11.902  -4.908  0.00  0.00    +0.140 C 
ATOM     21  C   LIG    1       -2.090  11.610  -3.519  0.00  0.00    +0.220 C 
ATOM     22  O   LIG    1       -3.210  10.736  -3.625  0.00  0.00    -0.370 OA
ATOM     23  C   LIG    1       -3.133   9.789  -4.692  0.00  0.00    +0.230 C 
ATOM     24  C   LIG    1       -1.918   8.879  -4.492  0.00  0.00    +0.290 C 
ATOM     25  N   LIG    1       -0.744   9.498  -5.105  0.00  0.00    -0.460 N 
ENDBRANCH  15  16
ENDBRANCH   2  15
TORSDOF 5
