REMARK  Name = ZINCpk00000xSEQK.0
REMARK                            x       y       z     vdW  Elec       q    Type
REMARK                         _______ _______ _______ _____ _____    ______ ____
ROOT
ATOM      1  C   LIG    1       -3.845   1.225  -0.715  0.00  0.00    +0.520 C 
ATOM      2  O   LIG    1       -4.051   2.347  -1.134  0.00  0.00    -0.490 OA
ENDROOT
BRANCH   1   6
ATOM      3  C   LIG    1       -6.868  -1.733  -1.016  0.00  0.00    +0.310 A 
ATOM      4  C   LIG    1       -5.643  -2.054  -0.438  0.00  0.00    -0.050 A 
ATOM      5  C   LIG    1       -4.657  -1.098  -0.342  0.00  0.00    +0.190 A 
ATOM      6  C   LIG    1       -4.894   0.196  -0.818  0.00  0.00    -0.190 A 
ATOM      7  C   LIG    1       -6.128   0.508  -1.398  0.00  0.00    +0.230 A 
ATOM      8  C   LIG    1       -7.101  -0.446  -1.494  0.00  0.00    -0.140 A 
BRANCH   8   9
ATOM      9  N   LIG    1       -8.405  -0.111  -2.107  0.00  0.00    +0.050 N 
ATOM     10  O   LIG    1       -9.315  -0.921  -2.085  0.00  0.00    -0.200 OA
ATOM     11  O   LIG    1       -8.569   0.975  -2.635  0.00  0.00    -0.140 OA
ENDBRANCH   8   9
BRANCH   3  12
ATOM     12  N   LIG    1       -7.862  -2.700  -1.116  0.00  0.00    -0.700 N 
ATOM     13  H   LIG    1       -8.677  -2.509  -1.607  0.00  0.00    +0.420 HD
BRANCH  12  15
ATOM     14  C   LIG    1       -8.910  -4.878  -0.741  0.00  0.00    +0.050 C 
ATOM     15  C   LIG    1       -7.679  -4.007  -0.481  0.00  0.00    +0.250 C 
ENDBRANCH  12  15
ENDBRANCH   3  12
ENDBRANCH   1   6
BRANCH   1  16
ATOM     16  O   LIG    1       -2.657   0.922  -0.156  0.00  0.00    -0.360 OA
BRANCH  16  17
ATOM     17  C   LIG    1       -1.670   1.985  -0.088  0.00  0.00    +0.210 C 
BRANCH  17  18
ATOM     18  C   LIG    1       -0.286   1.391  -0.158  0.00  0.00    +0.530 C 
ATOM     19  N   LIG    1       -0.126   0.053  -0.147  0.00  0.00    -0.680 N 
ATOM     20  H   LIG    1       -0.895  -0.527  -0.031  0.00  0.00    +0.420 HD
ATOM     21  C   LIG    1        1.103  -0.479  -0.297  0.00  0.00    +0.700 C 
ATOM     22  O   LIG    1        2.067   0.247  -0.442  0.00  0.00    -0.530 OA
ATOM     23  N   LIG    1        1.264  -1.817  -0.286  0.00  0.00    -0.860 N 
ATOM     24  H   LIG    1        2.148  -2.200  -0.394  0.00  0.00    +0.420 HD
ATOM     25  H   LIG    1        0.495  -2.397  -0.170  0.00  0.00    +0.400 HD
ATOM     26  O   LIG    1        0.682   2.118  -0.219  0.00  0.00    -0.440 OA
ENDBRANCH  17  18
BRANCH  17  27
ATOM     27  C   LIG    1       -1.832   2.747   1.229  0.00  0.00    -0.020 C 
ATOM     28  C   LIG    1       -3.276   3.233   1.362  0.00  0.00    +0.040 C 
ATOM     29  C   LIG    1       -0.886   3.950   1.242  0.00  0.00    +0.050 C 
ENDBRANCH  17  27
ENDBRANCH  16  17
ENDBRANCH   1  16
TORSDOF 8
