REMARK  Name = ZINCvU0000000Hh6.0
REMARK                            x       y       z     vdW  Elec       q    Type
REMARK                         _______ _______ _______ _____ _____    ______ ____
ROOT
ATOM      1  N   LIG    1        6.096   3.828  -1.873  0.00  0.00    -0.670 N 
ATOM      2  H   LIG    1        6.678   4.072  -2.611  0.00  0.00    +0.410 HD
ATOM      3  C   LIG    1        6.277   4.385  -0.660  0.00  0.00    +0.510 C 
ATOM      4  O   LIG    1        5.617   4.008   0.285  0.00  0.00    -0.510 OA
ENDROOT
BRANCH   1  11
ATOM      5  C   LIG    1        6.373   1.948  -3.992  0.00  0.00    +0.080 C 
ATOM      6  C   LIG    1        5.163   1.963  -3.093  0.00  0.00    -0.110 A 
ATOM      7  C   LIG    1        4.148   1.047  -3.284  0.00  0.00    +0.030 A 
ATOM      8  C   LIG    1        3.038   1.060  -2.460  0.00  0.00    -0.010 A 
ATOM      9  C   LIG    1        2.941   1.990  -1.441  0.00  0.00    -0.090 A 
ATOM     10  C   LIG    1        3.951   2.912  -1.248  0.00  0.00    +0.050 A 
ATOM     11  C   LIG    1        5.069   2.898  -2.070  0.00  0.00    +0.150 A 
BRANCH   9  12
ATOM     12  C   LIG    1        1.729   2.002  -0.546  0.00  0.00    +0.330 C 
BRANCH  12  13
ATOM     13  C   LIG    1        0.594   2.705  -1.245  0.00  0.00    +0.100 A 
ATOM     14  C   LIG    1       -0.618   2.058  -1.400  0.00  0.00    -0.030 A 
ATOM     15  C   LIG    1       -1.654   2.712  -2.050  0.00  0.00    +0.070 A 
ATOM     16  C   LIG    1       -1.434   4.000  -2.512  0.00  0.00    -0.030 A 
ATOM     17  C   LIG    1       -0.196   4.583  -2.320  0.00  0.00    +0.260 A 
ATOM     18  N   LIG    1        0.768   3.929  -1.702  0.00  0.00    -0.470 NA
ENDBRANCH  12  13
BRANCH  12  19
ATOM     19  O   LIG    1        1.345   0.658  -0.246  0.00  0.00    -0.540 OA
ATOM     20  H   LIG    1        1.119   0.131  -1.025  0.00  0.00    +0.380 HD
ENDBRANCH  12  19
ENDBRANCH   9  12
ENDBRANCH   1  11
BRANCH   3  21
ATOM     21  C   LIG    1        7.301   5.476  -0.477  0.00  0.00    +0.060 C 
BRANCH  21  22
ATOM     22  C   LIG    1        7.305   5.931   0.984  0.00  0.00    +0.050 C 
ATOM     23  C   LIG    1        5.960   6.576   1.322  0.00  0.00    +0.040 C 
BRANCH  22  24
ATOM     24  C   LIG    1        8.411   6.933   1.195  0.00  0.00    -0.050 A 
ATOM     25  C   LIG    1        8.421   8.112   0.473  0.00  0.00    +0.010 A 
ATOM     26  C   LIG    1        9.433   9.034   0.669  0.00  0.00    +0.070 A 
ATOM     27  C   LIG    1       10.439   8.772   1.581  0.00  0.00    -0.190 A 
ATOM     28  C   LIG    1       10.431   7.591   2.298  0.00  0.00    +0.070 A 
ATOM     29  C   LIG    1        9.417   6.671   2.105  0.00  0.00    +0.020 A 
BRANCH  27  30
ATOM     30  C   LIG    1       11.544   9.775   1.792  0.00  0.00    +0.510 C 
ATOM     31  F   LIG    1       12.007   9.687   3.109  0.00  0.00    -0.180 F 
ATOM     32  F   LIG    1       11.055  11.064   1.554  0.00  0.00    -0.180 F 
ATOM     33  F   LIG    1       12.594   9.504   0.908  0.00  0.00    -0.180 F 
ENDBRANCH  27  30
ENDBRANCH  22  24
ENDBRANCH  21  22
ENDBRANCH   3  21
TORSDOF 8
