REMARK  Name = ZINCrD00000eDO4Y.0
REMARK                            x       y       z     vdW  Elec       q    Type
REMARK                         _______ _______ _______ _____ _____    ______ ____
ROOT
ATOM      1  C   LIG    1        0.069  -0.331   2.303  0.00  0.00    +0.370 A 
ATOM      2  N   LIG    1       -0.563  -1.231   1.585  0.00  0.00    -0.310 NA
ATOM      3  N   LIG    1       -0.542  -2.368   2.183  0.00  0.00    -0.260 NA
ATOM      4  C   LIG    1        0.098  -2.261   3.324  0.00  0.00    +0.220 A 
ATOM      5  N   LIG    1        0.508  -0.953   3.436  0.00  0.00    -0.480 N 
ATOM      6  C   LIG    1        1.260  -0.353   4.540  0.00  0.00    +0.340 C 
ENDROOT
BRANCH   1  17
ATOM      7  C   LIG    1        0.349   0.514  -0.418  0.00  0.00    +0.070 C 
ATOM      8  C   LIG    1       -0.360   1.311   0.678  0.00  0.00    +0.220 C 
ATOM      9  C   LIG    1       -0.242   2.783   0.378  0.00  0.00    -0.080 A 
ATOM     10  C   LIG    1       -0.423   3.206  -0.930  0.00  0.00    +0.020 A 
ATOM     11  C   LIG    1       -0.327   4.546  -1.250  0.00  0.00    +0.000 A 
ATOM     12  C   LIG    1       -0.051   5.471  -0.261  0.00  0.00    +0.000 A 
ATOM     13  C   LIG    1        0.130   5.051   1.042  0.00  0.00    +0.000 A 
ATOM     14  C   LIG    1        0.036   3.706   1.363  0.00  0.00    -0.080 A 
ATOM     15  C   LIG    1        0.244   3.294   2.798  0.00  0.00    +0.110 C 
ATOM     16  C   LIG    1       -0.298   1.881   3.019  0.00  0.00    +0.200 C 
ATOM     17  N   LIG    1        0.251   1.002   1.974  0.00  0.00    -0.440 N 
ENDBRANCH   1  17
BRANCH   4  18
ATOM     18  C   LIG    1        0.332  -3.343   4.305  0.00  0.00    -0.010 A 
ATOM     19  C   LIG    1        0.633  -3.031   5.631  0.00  0.00    +0.030 A 
ATOM     20  C   LIG    1        0.852  -4.042   6.544  0.00  0.00    +0.030 A 
ATOM     21  C   LIG    1        0.773  -5.371   6.148  0.00  0.00    +0.060 A 
ATOM     22  O   LIG    1        0.997  -6.352   7.065  0.00  0.00    -0.300 OA
ATOM     23  C   LIG    1        0.545  -7.667   6.724  0.00  0.00    +0.230 C 
ATOM     24  C   LIG    1        0.980  -7.966   5.283  0.00  0.00    +0.230 C 
ATOM     25  O   LIG    1        0.388  -6.986   4.424  0.00  0.00    -0.300 OA
ATOM     26  C   LIG    1        0.472  -5.688   4.827  0.00  0.00    +0.060 A 
ATOM     27  C   LIG    1        0.248  -4.678   3.908  0.00  0.00    +0.080 A 
ENDBRANCH   4  18
TORSDOF 2
