REMARK  Name = ZINCvU00000004aH.0
REMARK                            x       y       z     vdW  Elec       q    Type
REMARK                         _______ _______ _______ _____ _____    ______ ____
ROOT
ATOM      1  C   LIG    1       -2.982  -0.110  -0.505  0.00  0.00    +0.100 C 
ENDROOT
BRANCH   1   2
ATOM      2  C   LIG    1       -2.599   1.348  -0.493  0.00  0.00    +0.450 C 
ATOM      3  O   LIG    1       -3.378   2.176  -0.069  0.00  0.00    -0.460 OA
BRANCH   2   4
ATOM      4  C   LIG    1       -1.288   1.765  -0.994  0.00  0.00    -0.260 A 
ATOM      5  C   LIG    1       -0.788   3.053  -1.048  0.00  0.00    +0.130 A 
ATOM      6  N   LIG    1        0.446   3.001  -1.580  0.00  0.00    -0.430 N 
ATOM      7  C   LIG    1        0.784   1.712  -1.877  0.00  0.00    +0.010 A 
ATOM      8  C   LIG    1        2.090   1.270  -2.485  0.00  0.00    +0.130 C 
ATOM      9  C   LIG    1       -1.504   4.299  -0.595  0.00  0.00    +0.150 C 
ATOM     10  C   LIG    1       -0.233   0.901  -1.540  0.00  0.00    +0.000 A 
BRANCH   6  11
ATOM     11  C   LIG    1        1.307   4.164  -1.809  0.00  0.00    +0.390 C 
BRANCH  11  12
ATOM     12  C   LIG    1        1.049   4.717  -3.187  0.00  0.00    -0.220 A 
ATOM     13  C   LIG    1        0.140   5.647  -3.484  0.00  0.00    +0.030 A 
ATOM     14  C   LIG    1        0.085   6.002  -4.821  0.00  0.00    +0.000 A 
ATOM     15  C   LIG    1        0.942   5.353  -5.611  0.00  0.00    -0.030 A 
ATOM     16  S   LIG    1        1.894   4.229  -4.650  0.00  0.00    +0.120 S 
ENDBRANCH  11  12
ENDBRANCH   6  11
ENDBRANCH   2   4
ENDBRANCH   1   2
BRANCH   1  17
ATOM     17  S   LIG    1       -4.649  -0.302   0.172  0.00  0.00    +0.060 S 
BRANCH  17  19
ATOM     18  N   LIG    1       -5.923  -2.779   0.419  0.00  0.00    -0.450 N 
ATOM     19  C   LIG    1       -4.833  -2.049   0.042  0.00  0.00    +0.150 A 
ATOM     20  N   LIG    1       -3.943  -2.894  -0.431  0.00  0.00    -0.290 NA
ATOM     21  N   LIG    1       -4.403  -4.093  -0.380  0.00  0.00    -0.270 NA
ATOM     22  C   LIG    1       -5.613  -4.088   0.128  0.00  0.00    +0.230 A 
BRANCH  22  23
ATOM     23  C   LIG    1       -6.477  -5.266   0.351  0.00  0.00    -0.020 A 
ATOM     24  C   LIG    1       -5.912  -6.497   0.689  0.00  0.00    +0.060 A 
ATOM     25  C   LIG    1       -6.724  -7.591   0.900  0.00  0.00    +0.010 A 
ATOM     26  C   LIG    1       -8.096  -7.474   0.767  0.00  0.00    +0.030 A 
ATOM     27  C   LIG    1       -8.663  -6.259   0.426  0.00  0.00    +0.010 A 
ATOM     28  C   LIG    1       -7.862  -5.155   0.217  0.00  0.00    +0.010 A 
ENDBRANCH  22  23
BRANCH  18  29
ATOM     29  C   LIG    1       -7.166  -2.275   1.008  0.00  0.00    +0.350 C 
BRANCH  29  31
ATOM     30  C   LIG    1       -9.314  -2.247  -0.152  0.00  0.00    +0.060 C 
ATOM     31  C   LIG    1       -8.085  -1.799  -0.087  0.00  0.00    -0.060 C 
ENDBRANCH  29  31
ENDBRANCH  18  29
ENDBRANCH  17  19
ENDBRANCH   1  17
TORSDOF 9
