REMARK  Name = ZINCwl0000000nxh.1
REMARK                            x       y       z     vdW  Elec       q    Type
REMARK                         _______ _______ _______ _____ _____    ______ ____
ROOT
ATOM      1  C   LIG    1        3.072   3.387  -0.147  0.00  0.00    +0.510 C 
ATOM      2  N   LIG    1        1.762   3.081  -0.228  0.00  0.00    -0.610 N 
ATOM      3  H   LIG    1        1.102   3.788  -0.304  0.00  0.00    +0.430 HD
ATOM      4  O   LIG    1        3.897   2.502  -0.052  0.00  0.00    -0.490 OA
ENDROOT
BRANCH   2   5
ATOM      5  C   LIG    1        1.356   1.750  -0.205  0.00  0.00    +0.320 A 
ATOM      6  C   LIG    1        2.167   0.662  -0.103  0.00  0.00    -0.080 A 
ATOM      7  C   LIG    1        1.359  -0.479  -0.116  0.00  0.00    +0.120 A 
ATOM      8  N   LIG    1        0.111  -0.102  -0.221  0.00  0.00    -0.260 NA
ATOM      9  N   LIG    1        0.073   1.297  -0.279  0.00  0.00    -0.340 N 
BRANCH   9  10
ATOM     10  C   LIG    1       -1.074   2.086  -0.398  0.00  0.00    +0.360 A 
ATOM     11  C   LIG    1       -2.219   1.553  -0.976  0.00  0.00    +0.000 A 
ATOM     12  C   LIG    1       -3.349   2.346  -1.087  0.00  0.00    +0.100 A 
ATOM     13  C   LIG    1       -3.292   3.649  -0.615  0.00  0.00    -0.030 A 
ATOM     14  C   LIG    1       -2.119   4.114  -0.051  0.00  0.00    +0.310 A 
ATOM     15  N   LIG    1       -1.061   3.333   0.046  0.00  0.00    -0.520 NA
ENDBRANCH   9  10
BRANCH   7  16
ATOM     16  C   LIG    1        1.845  -1.903  -0.025  0.00  0.00    +0.010 C 
ATOM     17  C   LIG    1        3.045  -2.093  -0.955  0.00  0.00    +0.050 C 
ATOM     18  C   LIG    1        0.720  -2.852  -0.442  0.00  0.00    +0.040 C 
ATOM     19  C   LIG    1        2.262  -2.208   1.415  0.00  0.00    +0.050 C 
ENDBRANCH   7  16
ENDBRANCH   2   5
BRANCH   1  22
ATOM     20  N   LIG    1        4.817   5.122  -0.090  0.00  0.00    -0.700 N 
ATOM     21  H   LIG    1        5.477   4.415  -0.015  0.00  0.00    +0.420 HD
ATOM     22  C   LIG    1        3.507   4.815  -0.172  0.00  0.00    +0.520 C 
ATOM     23  O   LIG    1        2.682   5.700  -0.266  0.00  0.00    -0.500 OA
BRANCH  20  24
ATOM     24  C   LIG    1        5.245   6.523  -0.115  0.00  0.00    +0.280 C 
BRANCH  24  26
ATOM     25  C   LIG    1        7.210   6.059   1.356  0.00  0.00    +0.040 C 
ATOM     26  C   LIG    1        6.769   6.593  -0.008  0.00  0.00    -0.020 C 
BRANCH  26  27
ATOM     27  C   LIG    1        7.225   8.046  -0.159  0.00  0.00    +0.200 C 
BRANCH  27  28
ATOM     28  N   LIG    1        8.693   8.098  -0.183  0.00  0.00    -0.540 NA
ATOM     29  C   LIG    1        9.176   9.449   0.136  0.00  0.00    +0.210 C 
ATOM     30  C   LIG    1       10.706   9.448   0.159  0.00  0.00    +0.280 C 
ATOM     31  N   LIG    1       11.216   9.023  -1.152  0.00  0.00    -0.390 N 
ATOM     32  C   LIG    1       10.745   7.663  -1.445  0.00  0.00    +0.280 C 
ATOM     33  C   LIG    1       12.684   9.039  -1.134  0.00  0.00    +0.310 C 
ATOM     34  H   LIG    1       10.881   9.655  -1.863  0.00  0.00    +0.420 HD
ATOM     35  C   LIG    1        9.215   7.650  -1.481  0.00  0.00    +0.200 C 
ENDBRANCH  27  28
ENDBRANCH  26  27
ENDBRANCH  24  26
ENDBRANCH  20  24
ENDBRANCH   1  22
TORSDOF 8
