REMARK  Name = ZINCwl0000000nxh.0
REMARK                            x       y       z     vdW  Elec       q    Type
REMARK                         _______ _______ _______ _____ _____    ______ ____
ROOT
ATOM      1  C   LIG    1       -3.351   8.857   7.478  0.00  0.00    +0.510 C 
ATOM      2  N   LIG    1       -3.859   9.427   8.588  0.00  0.00    -0.610 N 
ATOM      3  H   LIG    1       -4.111   8.875   9.345  0.00  0.00    +0.430 HD
ATOM      4  O   LIG    1       -3.036   9.548   6.531  0.00  0.00    -0.480 OA
ENDROOT
BRANCH   2   5
ATOM      5  C   LIG    1       -4.021  10.808   8.649  0.00  0.00    +0.310 A 
ATOM      6  C   LIG    1       -3.707  11.701   7.670  0.00  0.00    -0.070 A 
ATOM      7  C   LIG    1       -4.029  12.979   8.136  0.00  0.00    +0.120 A 
ATOM      8  N   LIG    1       -4.510  12.871   9.348  0.00  0.00    -0.260 NA
ATOM      9  N   LIG    1       -4.519  11.515   9.702  0.00  0.00    -0.340 N 
BRANCH   9  10
ATOM     10  C   LIG    1       -4.959  10.984  10.917  0.00  0.00    +0.360 A 
ATOM     11  C   LIG    1       -4.948  11.776  12.059  0.00  0.00    +0.000 A 
ATOM     12  C   LIG    1       -5.388  11.238  13.256  0.00  0.00    +0.100 A 
ATOM     13  C   LIG    1       -5.824   9.921  13.269  0.00  0.00    -0.030 A 
ATOM     14  C   LIG    1       -5.807   9.192  12.096  0.00  0.00    +0.300 A 
ATOM     15  N   LIG    1       -5.388   9.733  10.969  0.00  0.00    -0.520 NA
ENDBRANCH   9  10
BRANCH   7  16
ATOM     16  C   LIG    1       -3.847  14.265   7.372  0.00  0.00    +0.010 C 
ATOM     17  C   LIG    1       -2.471  14.271   6.704  0.00  0.00    +0.050 C 
ATOM     18  C   LIG    1       -3.951  15.449   8.335  0.00  0.00    +0.040 C 
ATOM     19  C   LIG    1       -4.934  14.381   6.302  0.00  0.00    +0.050 C 
ENDBRANCH   7  16
ENDBRANCH   2   5
BRANCH   1  22
ATOM     20  N   LIG    1       -2.669   6.805   6.301  0.00  0.00    -0.700 N 
ATOM     21  H   LIG    1       -2.417   7.357   5.545  0.00  0.00    +0.420 HD
ATOM     22  C   LIG    1       -3.177   7.376   7.412  0.00  0.00    +0.520 C 
ATOM     23  O   LIG    1       -3.492   6.685   8.359  0.00  0.00    -0.500 OA
BRANCH  20  24
ATOM     24  C   LIG    1       -2.498   5.352   6.237  0.00  0.00    +0.260 C 
BRANCH  24  26
ATOM     25  C   LIG    1       -2.911   5.306   3.773  0.00  0.00    +0.080 C 
ATOM     26  C   LIG    1       -1.909   4.967   4.878  0.00  0.00    -0.020 C 
BRANCH  26  27
ATOM     27  C   LIG    1       -1.614   3.466   4.857  0.00  0.00    +0.280 C 
BRANCH  27  28
ATOM     28  N   LIG    1       -0.594   3.153   5.867  0.00  0.00    -0.390 N 
ATOM     29  C   LIG    1       -0.262   1.724   5.800  0.00  0.00    +0.280 C 
ATOM     30  C   LIG    1        0.786   1.393   6.864  0.00  0.00    +0.210 C 
ATOM     31  N   LIG    1        1.990   2.204   6.632  0.00  0.00    -0.540 NA
ATOM     32  C   LIG    1        1.668   3.638   6.671  0.00  0.00    +0.200 C 
ATOM     33  C   LIG    1        3.043   1.875   7.601  0.00  0.00    +0.230 C 
ATOM     34  C   LIG    1        0.612   3.950   5.608  0.00  0.00    +0.270 C 
ATOM     35  H   LIG    1       -0.951   3.372   6.785  0.00  0.00    +0.420 HD
ENDBRANCH  27  28
ENDBRANCH  26  27
ENDBRANCH  24  26
ENDBRANCH  20  24
ENDBRANCH   1  22
TORSDOF 8
