REMARK  Name = ZINCqH0000001PDO.0
REMARK                            x       y       z     vdW  Elec       q    Type
REMARK                         _______ _______ _______ _____ _____    ______ ____
ROOT
ATOM      1  C   LIG    1       -3.187   3.621  -2.868  0.00  0.00    +0.020 A 
ATOM      2  C   LIG    1       -4.270   4.395  -3.109  0.00  0.00    -0.010 A 
ATOM      3  S   LIG    1       -4.472   4.549  -4.799  0.00  0.00    +0.290 S 
ATOM      4  C   LIG    1       -3.106   3.565  -5.087  0.00  0.00    +0.010 A 
ATOM      5  N   LIG    1       -2.581   3.185  -3.976  0.00  0.00    -0.400 NA
ENDROOT
BRANCH   1   6
ATOM      6  C   LIG    1       -2.724   3.285  -1.512  0.00  0.00    +0.560 C 
ATOM      7  O   LIG    1       -3.319   3.713  -0.543  0.00  0.00    -0.490 OA
BRANCH   6   8
ATOM      8  O   LIG    1       -1.639   2.503  -1.345  0.00  0.00    -0.330 OA
BRANCH   8   9
ATOM      9  C   LIG    1       -1.239   2.213   0.020  0.00  0.00    +0.400 C 
BRANCH   9  13
ATOM     10  C   LIG    1        1.972   0.606  -0.013  0.00  0.00    +0.180 A 
ATOM     11  N   LIG    1        1.149  -0.400  -0.011  0.00  0.00    -0.370 NA
ATOM     12  O   LIG    1        0.002  -0.004   0.002  0.00  0.00    +0.090 OA
ATOM     13  C   LIG    1       -0.016   1.332   0.009  0.00  0.00    +0.170 A 
ATOM     14  N   LIG    1        1.233   1.730  -0.000  0.00  0.00    -0.450 NA
BRANCH  10  16
ATOM     15  C   LIG    1        3.960  -0.226   1.213  0.00  0.00    +0.040 C 
ATOM     16  C   LIG    1        3.476   0.527  -0.028  0.00  0.00    +0.090 C 
ATOM     17  C   LIG    1        3.936  -0.213  -1.286  0.00  0.00    +0.040 C 
ENDBRANCH  10  16
ENDBRANCH   9  13
ENDBRANCH   8   9
ENDBRANCH   6   8
ENDBRANCH   1   6
BRANCH   4  18
ATOM     18  C   LIG    1       -2.588   3.193  -6.452  0.00  0.00    +0.330 C 
BRANCH  18  19
ATOM     19  O   LIG    1       -3.213   1.983  -6.885  0.00  0.00    -0.300 OA
BRANCH  19  20
ATOM     20  C   LIG    1       -2.854   1.506  -8.107  0.00  0.00    +0.120 A 
ATOM     21  C   LIG    1       -1.925   2.192  -8.874  0.00  0.00    -0.040 A 
ATOM     22  C   LIG    1       -1.558   1.704 -10.113  0.00  0.00    +0.030 A 
ATOM     23  C   LIG    1       -2.124   0.535 -10.593  0.00  0.00    +0.060 A 
ATOM     24  C   LIG    1       -3.056  -0.148  -9.830  0.00  0.00    +0.030 A 
ATOM     25  F   LIG    1       -1.768   0.062 -11.807  0.00  0.00    -0.140 F 
ATOM     26  C   LIG    1       -3.421   0.336  -8.589  0.00  0.00    +0.020 A 
ENDBRANCH  19  20
ENDBRANCH  18  19
ENDBRANCH   4  18
TORSDOF 8
