REMARK  Name = ZINCpk000000oicn.0
REMARK                            x       y       z     vdW  Elec       q    Type
REMARK                         _______ _______ _______ _____ _____    ______ ____
ROOT
ATOM      1  N   LIG    1       -0.774   5.541  -0.839  0.00  0.00    -0.360 N 
ATOM      2  N   LIG    1       -0.641   4.291  -0.598  0.00  0.00    -0.180 NA
ATOM      3  C   LIG    1       -1.641   3.466  -0.405  0.00  0.00    +0.050 A 
ATOM      4  C   LIG    1       -3.019   3.980  -0.471  0.00  0.00    -0.030 A 
ATOM      5  C   LIG    1       -4.134   3.171  -0.284  0.00  0.00    +0.070 A 
ATOM      6  C   LIG    1       -5.394   3.727  -0.361  0.00  0.00    +0.050 A 
ATOM      7  C   LIG    1       -5.559   5.080  -0.622  0.00  0.00    +0.020 A 
ATOM      8  C   LIG    1       -4.466   5.903  -0.798  0.00  0.00    +0.090 A 
ATOM      9  C   LIG    1       -3.187   5.360  -0.730  0.00  0.00    -0.140 A 
ATOM     10  C   LIG    1       -1.970   6.160  -0.924  0.00  0.00    +0.520 A 
ATOM     11  O   LIG    1       -2.038   7.353  -1.156  0.00  0.00    -0.500 OA
ENDROOT
BRANCH   3  12
ATOM     12  C   LIG    1       -1.389   2.038  -0.132  0.00  0.00    +0.600 C 
ATOM     13  N   LIG    1       -0.127   1.598   0.046  0.00  0.00    -0.580 N 
ATOM     14  O   LIG    1       -2.320   1.258  -0.066  0.00  0.00    -0.520 OA
BRANCH  13  15
ATOM     15  C   LIG    1        0.983   2.553   0.079  0.00  0.00    +0.290 C 
ATOM     16  C   LIG    1        1.464   2.826  -1.348  0.00  0.00    +0.020 C 
ENDBRANCH  13  15
BRANCH  13  17
ATOM     17  C   LIG    1        0.134   0.165   0.199  0.00  0.00    +0.330 C 
BRANCH  17  18
ATOM     18  C   LIG    1        0.075  -0.203   1.659  0.00  0.00    +0.490 C 
ATOM     19  N   LIG    1        0.286  -1.478   2.042  0.00  0.00    -0.740 N 
ATOM     20  H   LIG    1        0.476  -2.159   1.377  0.00  0.00    +0.400 HD
ATOM     21  C   LIG    1        0.229  -1.836   3.461  0.00  0.00    +0.290 C 
ATOM     22  O   LIG    1       -0.162   0.648   2.490  0.00  0.00    -0.530 OA
ENDBRANCH  17  18
ENDBRANCH  13  17
ENDBRANCH   3  12
BRANCH   1  23
ATOM     23  C   LIG    1        0.437   6.342  -1.034  0.00  0.00    +0.320 C 
BRANCH  23  24
ATOM     24  C   LIG    1        0.901   6.899   0.314  0.00  0.00    +0.000 C 
BRANCH  24  26
ATOM     25  C   LIG    1        2.630   8.293   1.458  0.00  0.00    +0.020 C 
ATOM     26  C   LIG    1        2.166   7.736   0.111  0.00  0.00    +0.020 C 
ENDBRANCH  24  26
ENDBRANCH  23  24
ENDBRANCH   1  23
TORSDOF 7
