REMARK  Name = ZINCrH00000tj1h0.0
REMARK                            x       y       z     vdW  Elec       q    Type
REMARK                         _______ _______ _______ _____ _____    ______ ____
ROOT
ATOM      1  C   LIG    1        4.029   6.259  -0.624  0.00  0.00    +0.050 C 
ATOM      2  C   LIG    1        4.193   4.984  -1.453  0.00  0.00    +0.410 C 
ATOM      3  N   LIG    1        5.252   4.157  -0.863  0.00  0.00    -0.740 N 
ATOM      4  H   LIG    1        5.558   4.320   0.043  0.00  0.00    +0.410 HD
ATOM      5  C   LIG    1        5.809   3.137  -1.626  0.00  0.00    +0.240 A 
ATOM      6  C   LIG    1        6.339   1.998  -1.045  0.00  0.00    -0.060 A 
ATOM      7  C   LIG    1        6.902   1.021  -1.844  0.00  0.00    +0.080 A 
ATOM      8  C   LIG    1        6.941   1.173  -3.220  0.00  0.00    -0.040 A 
ATOM      9  C   LIG    1        6.411   2.299  -3.816  0.00  0.00    +0.110 A 
ATOM     10  C   LIG    1        5.835   3.289  -3.024  0.00  0.00    -0.200 A 
ATOM     11  C   LIG    1        5.243   4.503  -3.613  0.00  0.00    +0.580 C 
ATOM     12  O   LIG    1        5.392   4.746  -4.795  0.00  0.00    -0.520 OA
ATOM     13  N   LIG    1        4.536   5.341  -2.830  0.00  0.00    -0.620 N 
ENDROOT
BRANCH   2  14
ATOM     14  C   LIG    1        2.877   4.203  -1.445  0.00  0.00    +0.020 C 
BRANCH  14  15
ATOM     15  C   LIG    1        2.452   3.935  -0.000  0.00  0.00    +0.090 C 
BRANCH  15  16
ATOM     16  C   LIG    1        1.156   3.166   0.007  0.00  0.00    -0.090 A 
ATOM     17  C   LIG    1        1.174   1.783   0.000  0.00  0.00    +0.030 A 
ATOM     18  C   LIG    1       -0.013   1.076   0.008  0.00  0.00    -0.010 A 
ATOM     19  C   LIG    1       -1.223   1.754   0.017  0.00  0.00    +0.100 A 
ATOM     20  C   LIG    1       -1.238   3.141   0.029  0.00  0.00    -0.010 A 
ATOM     21  C   LIG    1       -0.049   3.844   0.022  0.00  0.00    +0.030 A 
BRANCH  19  22
ATOM     22  O   LIG    1       -2.392   1.060   0.019  0.00  0.00    -0.500 OA
ATOM     23  H   LIG    1       -2.726   0.854   0.903  0.00  0.00    +0.390 HD
ENDBRANCH  19  22
ENDBRANCH  15  16
ENDBRANCH  14  15
ENDBRANCH   2  14
BRANCH  13  24
ATOM     24  C   LIG    1        4.102   6.633  -3.367  0.00  0.00    +0.310 C 
BRANCH  24  25
ATOM     25  C   LIG    1        5.176   7.687  -3.092  0.00  0.00    +0.120 C 
ATOM     26  C   LIG    1        4.688   9.083  -3.538  0.00  0.00    +0.010 C 
ATOM     27  C   LIG    1        5.953   9.758  -4.113  0.00  0.00    +0.010 C 
ATOM     28  C   LIG    1        7.057   8.690  -3.947  0.00  0.00    +0.190 C 
ATOM     29  O   LIG    1        6.348   7.432  -3.897  0.00  0.00    -0.350 OA
ENDBRANCH  24  25
ENDBRANCH  13  24
TORSDOF 6
