REMARK  Name = ZINCvU0000000BG5.0
REMARK                            x       y       z     vdW  Elec       q    Type
REMARK                         _______ _______ _______ _____ _____    ______ ____
ROOT
ATOM      1  C   LIG    1       -2.692   0.439  -1.177  0.00  0.00    +0.300 C 
ENDROOT
BRANCH   1   5
ATOM      2  O   LIG    1       -4.480   4.189   1.092  0.00  0.00    -0.460 OA
ATOM      3  C   LIG    1       -3.506   3.654   0.596  0.00  0.00    +0.500 A 
ATOM      4  C   LIG    1       -3.618   2.368   0.036  0.00  0.00    -0.070 A 
ATOM      5  C   LIG    1       -2.501   1.720  -0.407  0.00  0.00    +0.020 A 
ATOM      6  C   LIG    1       -1.237   2.310  -0.191  0.00  0.00    -0.150 A 
ATOM      7  C   LIG    1       -1.202   3.670   0.167  0.00  0.00    +0.180 A 
ATOM      8  C   LIG    1        0.002   4.380   0.139  0.00  0.00    +0.010 A 
ATOM      9  C   LIG    1        1.157   3.797  -0.260  0.00  0.00    +0.120 A 
ATOM     10  C   LIG    1        1.199   2.426  -0.581  0.00  0.00    -0.080 A 
ATOM     11  C   LIG    1        2.390   1.835  -1.026  0.00  0.00    +0.060 A 
ATOM     12  C   LIG    1        2.473   0.479  -1.131  0.00  0.00    +0.010 A 
ATOM     13  C   LIG    1        1.379  -0.317  -0.812  0.00  0.00    +0.040 A 
ATOM     14  C   LIG    1        0.185   0.241  -0.452  0.00  0.00    +0.000 A 
ATOM     15  C   LIG    1        0.038   1.627  -0.398  0.00  0.00    +0.010 A 
ATOM     16  O   LIG    1       -2.325   4.292   0.585  0.00  0.00    -0.260 OA
ENDBRANCH   1   5
BRANCH   1  17
ATOM     17  O   LIG    1       -4.086   0.223  -1.404  0.00  0.00    -0.340 OA
BRANCH  17  18
ATOM     18  C   LIG    1       -4.431  -0.890  -2.085  0.00  0.00    +0.500 C 
ATOM     19  O   LIG    1       -3.570  -1.655  -2.476  0.00  0.00    -0.500 OA
BRANCH  18  20
ATOM     20  C   LIG    1       -5.840  -1.175  -2.354  0.00  0.00    -0.040 C 
ATOM     21  C   LIG    1       -6.184  -2.288  -3.035  0.00  0.00    +0.140 C 
BRANCH  21  22
ATOM     22  C   LIG    1       -7.602  -2.575  -3.306  0.00  0.00    -0.080 A 
ATOM     23  C   LIG    1       -8.595  -1.698  -2.859  0.00  0.00    +0.070 A 
ATOM     24  C   LIG    1       -9.921  -1.974  -3.117  0.00  0.00    +0.020 A 
ATOM     25  C   LIG    1      -10.271  -3.116  -3.816  0.00  0.00    +0.080 A 
ATOM     26  C   LIG    1       -9.294  -3.990  -4.261  0.00  0.00    -0.180 A 
ATOM     27  C   LIG    1       -7.963  -3.724  -4.017  0.00  0.00    +0.100 A 
BRANCH  26  28
ATOM     28  C   LIG    1       -9.685  -5.230  -5.022  0.00  0.00    +0.510 C 
ATOM     29  F   LIG    1       -9.241  -6.362  -4.329  0.00  0.00    -0.170 F 
ATOM     30  F   LIG    1       -9.101  -5.202  -6.293  0.00  0.00    -0.170 F 
ATOM     31  F   LIG    1      -11.077  -5.279  -5.150  0.00  0.00    -0.170 F 
ENDBRANCH  26  28
ENDBRANCH  21  22
ENDBRANCH  18  20
ENDBRANCH  17  18
ENDBRANCH   1  17
TORSDOF 6
