REMARK  Name = ZINCpk00000y6v8Z.0
REMARK                            x       y       z     vdW  Elec       q    Type
REMARK                         _______ _______ _______ _____ _____    ______ ____
ROOT
ATOM      1  O   LIG    1       -1.404   3.744  -3.824  0.00  0.00    -0.510 OA
ATOM      2  C   LIG    1       -0.213   3.547  -3.941  0.00  0.00    +0.500 C 
ATOM      3  N   LIG    1        0.362   3.596  -5.160  0.00  0.00    -0.660 N 
ATOM      4  H   LIG    1        1.325   3.515  -5.245  0.00  0.00    +0.420 HD
ENDROOT
BRANCH   3   5
ATOM      5  C   LIG    1       -0.430   3.765  -6.300  0.00  0.00    +0.040 A 
ATOM      6  C   LIG    1        0.050   4.467  -7.405  0.00  0.00    +0.300 A 
ATOM      7  N   LIG    1       -0.725   4.602  -8.466  0.00  0.00    -0.490 NA
ATOM      8  C   LIG    1       -1.948   4.089  -8.485  0.00  0.00    +0.340 A 
ATOM      9  N   LIG    1       -2.439   3.421  -7.451  0.00  0.00    -0.490 NA
ATOM     10  C   LIG    1       -1.720   3.241  -6.357  0.00  0.00    +0.340 A 
BRANCH   8  11
ATOM     11  C   LIG    1       -2.787   4.268  -9.694  0.00  0.00    -0.050 A 
ATOM     12  C   LIG    1       -4.073   3.733  -9.738  0.00  0.00    +0.070 A 
ATOM     13  C   LIG    1       -4.852   3.907 -10.864  0.00  0.00    +0.000 A 
ATOM     14  C   LIG    1       -4.355   4.603 -11.951  0.00  0.00    +0.030 A 
ATOM     15  C   LIG    1       -3.077   5.131 -11.915  0.00  0.00    +0.000 A 
ATOM     16  C   LIG    1       -2.291   4.968 -10.793  0.00  0.00    +0.070 A 
ENDBRANCH   8  11
ENDBRANCH   3   5
BRANCH   2  17
ATOM     17  C   LIG    1        0.625   3.247  -2.725  0.00  0.00    +0.330 C 
BRANCH  17  18
ATOM     18  N   LIG    1       -0.227   3.251  -1.533  0.00  0.00    -0.580 N 
ATOM     19  C   LIG    1       -0.874   2.004  -1.093  0.00  0.00    +0.290 C 
ATOM     20  C   LIG    1       -0.182   1.516   0.181  0.00  0.00    +0.010 C 
ATOM     21  C   LIG    1       -0.796   2.161   1.410  0.00  0.00    +0.020 C 
ATOM     22  C   LIG    1       -0.550   3.656   1.504  0.00  0.00    +0.050 C 
ATOM     23  C   LIG    1       -1.285   4.396   0.384  0.00  0.00    +0.190 C 
ATOM     24  C   LIG    1       -0.412   4.383  -0.854  0.00  0.00    +0.490 C 
ATOM     25  O   LIG    1        0.122   5.406  -1.228  0.00  0.00    -0.540 OA
BRANCH  23  26
ATOM     26  O   LIG    1       -2.523   3.739   0.105  0.00  0.00    -0.540 OA
ATOM     27  H   LIG    1       -3.033   4.148  -0.608  0.00  0.00    +0.390 HD
ENDBRANCH  23  26
ENDBRANCH  17  18
ENDBRANCH   2  17
TORSDOF 5
