REMARK  Name = ZINCpe000000WMv1.0
REMARK                            x       y       z     vdW  Elec       q    Type
REMARK                         _______ _______ _______ _____ _____    ______ ____
ROOT
ATOM      1  C   LIG    1       -0.042   2.198  -2.203  0.00  0.00    +0.510 C 
ATOM      2  N   LIG    1       -0.685   1.943  -1.046  0.00  0.00    -0.610 N 
ATOM      3  C   LIG    1       -2.135   2.160  -0.920  0.00  0.00    +0.250 C 
ATOM      4  C   LIG    1       -2.392   3.005   0.332  0.00  0.00    +0.230 C 
ATOM      5  O   LIG    1       -1.747   2.395   1.453  0.00  0.00    -0.350 OA
ATOM      6  C   LIG    1       -0.326   2.309   1.335  0.00  0.00    +0.100 C 
ATOM      7  C   LIG    1        0.275   3.706   1.175  0.00  0.00    +0.060 C 
ATOM      8  C   LIG    1        0.623   4.347   2.527  0.00  0.00    -0.300 C 
ATOM      9  S   LIG    1        0.210   3.081   3.785  0.00  0.00    +2.390 S 
ATOM     10  O   LIG    1       -1.118   3.284   4.249  0.00  0.00    -0.910 OA
ATOM     11  O   LIG    1        1.279   2.965   4.714  0.00  0.00    -0.930 OA
ATOM     12  C   LIG    1        0.251   1.661   2.618  0.00  0.00    -0.270 C 
ATOM     13  C   LIG    1        0.043   1.440   0.130  0.00  0.00    +0.300 C 
ATOM     14  O   LIG    1        1.165   2.102  -2.260  0.00  0.00    -0.510 OA
ENDROOT
BRANCH   1  16
ATOM     15  C   LIG    1       -1.508   1.371  -4.024  0.00  0.00    +0.100 C 
ATOM     16  C   LIG    1       -0.825   2.602  -3.426  0.00  0.00    +0.270 C 
BRANCH  16  17
ATOM     17  N   LIG    1        0.084   3.185  -4.417  0.00  0.00    -0.340 N 
ATOM     18  C   LIG    1        0.813   2.502  -5.324  0.00  0.00    +0.270 A 
ATOM     19  C   LIG    1        1.518   3.402  -6.049  0.00  0.00    -0.060 A 
ATOM     20  C   LIG    1        1.208   4.679  -5.567  0.00  0.00    -0.010 A 
ATOM     21  N   LIG    1        0.345   4.550  -4.593  0.00  0.00    -0.240 NA
BRANCH  20  22
ATOM     22  C   LIG    1        1.768   5.978  -6.086  0.00  0.00    +0.560 C 
ATOM     23  F   LIG    1        3.058   5.764  -6.585  0.00  0.00    -0.160 F 
ATOM     24  F   LIG    1        1.820   6.912  -5.046  0.00  0.00    -0.170 F 
ATOM     25  F   LIG    1        0.947   6.465  -7.109  0.00  0.00    -0.170 F 
ENDBRANCH  20  22
ENDBRANCH  16  17
ENDBRANCH   1  16
TORSDOF 3
