REMARK  Name = ZINCrD0000075ATB.0
REMARK                            x       y       z     vdW  Elec       q    Type
REMARK                         _______ _______ _______ _____ _____    ______ ____
ROOT
ATOM      1  O   LIG    1        0.776   0.547   2.530  0.00  0.00    -0.520 OA
ATOM      2  C   LIG    1       -0.222   1.232   2.431  0.00  0.00    +0.570 C 
ATOM      3  N   LIG    1       -0.698   1.558   1.213  0.00  0.00    -0.710 N 
ATOM      4  H   LIG    1       -1.495   2.106   1.135  0.00  0.00    +0.410 HD
ENDROOT
BRANCH   2   5
ATOM      5  C   LIG    1       -0.915   1.710   3.650  0.00  0.00    +0.080 A 
ATOM      6  C   LIG    1       -0.418   1.370   4.906  0.00  0.00    +0.100 A 
ATOM      7  C   LIG    1       -1.077   1.825   6.037  0.00  0.00    -0.140 A 
ATOM      8  C   LIG    1       -2.212   2.604   5.873  0.00  0.00    +0.060 A 
ATOM      9  C   LIG    1       -2.650   2.904   4.593  0.00  0.00    +0.290 A 
ATOM     10  N   LIG    1       -2.002   2.463   3.537  0.00  0.00    -0.440 NA
BRANCH   7  11
ATOM     11  C   LIG    1       -0.573   1.479   7.415  0.00  0.00    +0.510 C 
ATOM     12  F   LIG    1        0.069   0.237   7.378  0.00  0.00    -0.170 F 
ATOM     13  F   LIG    1       -1.650   1.421   8.305  0.00  0.00    -0.170 F 
ATOM     14  F   LIG    1        0.331   2.459   7.840  0.00  0.00    -0.170 F 
ENDBRANCH   7  11
ENDBRANCH   2   5
BRANCH   3  15
ATOM     15  C   LIG    1       -0.013   1.086   0.008  0.00  0.00    +0.280 C 
BRANCH  15  16
ATOM     16  C   LIG    1       -0.753   1.593  -1.232  0.00  0.00    +0.140 C 
BRANCH  16  17
ATOM     17  C   LIG    1       -0.047   1.107  -2.471  0.00  0.00    +0.090 A 
ATOM     18  N   LIG    1        1.216   1.292  -2.757  0.00  0.00    -0.280 NA
ATOM     19  N   LIG    1        1.479   0.688  -3.994  0.00  0.00    -0.320 N 
ATOM     20  C   LIG    1        0.328   0.135  -4.439  0.00  0.00    +0.240 A 
ATOM     21  C   LIG    1       -0.629   0.375  -3.512  0.00  0.00    -0.090 A 
BRANCH  19  22
ATOM     22  C   LIG    1        2.716   0.662  -4.654  0.00  0.00    +0.150 A 
ATOM     23  C   LIG    1        2.837   0.019  -5.878  0.00  0.00    +0.030 A 
ATOM     24  C   LIG    1        4.055  -0.001  -6.529  0.00  0.00    +0.030 A 
ATOM     25  C   LIG    1        5.158   0.609  -5.956  0.00  0.00    +0.090 A 
ATOM     26  C   LIG    1        5.040   1.246  -4.732  0.00  0.00    +0.020 A 
ATOM     27  F   LIG    1        6.349   0.584  -6.591  0.00  0.00    -0.130 F 
ATOM     28  C   LIG    1        3.822   1.273  -4.080  0.00  0.00    +0.060 A 
ENDBRANCH  19  22
ENDBRANCH  16  17
ENDBRANCH  15  16
ENDBRANCH   3  15
TORSDOF 6
