REMARK  Name = ZINCpe00000bFr2d.0
REMARK                            x       y       z     vdW  Elec       q    Type
REMARK                         _______ _______ _______ _____ _____    ______ ____
ROOT
ATOM      1  C   LIG    1        2.206   1.596  -1.236  0.00  0.00    +0.250 C 
ATOM      2  C   LIG    1        1.484   2.088   0.020  0.00  0.00    +0.020 C 
ATOM      3  C   LIG    1        0.041   1.580   0.011  0.00  0.00    +0.000 C 
ATOM      4  C   LIG    1        0.039   0.050  -0.012  0.00  0.00    +0.010 C 
ATOM      5  C   LIG    1        0.760  -0.442  -1.268  0.00  0.00    +0.020 C 
ATOM      6  C   LIG    1        2.204   0.066  -1.260  0.00  0.00    -0.060 C 
ATOM      7  C   LIG    1        2.924  -0.424  -2.519  0.00  0.00    +0.020 C 
ATOM      8  C   LIG    1        2.892  -1.955  -2.557  0.00  0.00    +0.270 C 
ATOM      9  N   LIG    1        3.453  -2.471  -1.302  0.00  0.00    -0.600 N 
ATOM     10  C   LIG    1        2.893  -1.996  -0.029  0.00  0.00    +0.280 C 
ATOM     11  C   LIG    1        4.462  -3.365  -1.316  0.00  0.00    +0.520 C 
ATOM     12  O   LIG    1        4.981  -3.711  -0.276  0.00  0.00    -0.530 OA
ATOM     13  C   LIG    1        2.924  -0.464  -0.019  0.00  0.00    +0.030 C 
ENDROOT
BRANCH   1  15
ATOM     14  C   LIG    1        1.805   3.333  -2.897  0.00  0.00    +0.510 C 
ATOM     15  N   LIG    1        1.517   2.104  -2.425  0.00  0.00    -0.720 N 
ATOM     16  H   LIG    1        0.854   1.556  -2.873  0.00  0.00    +0.400 HD
ATOM     17  O   LIG    1        2.634   4.019  -2.338  0.00  0.00    -0.510 OA
BRANCH  14  18
ATOM     18  C   LIG    1        1.096   3.856  -4.120  0.00  0.00    +0.200 C 
BRANCH  18  20
ATOM     19  C   LIG    1        0.959   5.760  -5.569  0.00  0.00    +0.200 C 
ATOM     20  O   LIG    1        1.571   5.170  -4.420  0.00  0.00    -0.370 OA
ENDBRANCH  18  20
ENDBRANCH  14  18
ENDBRANCH   1  15
BRANCH  11  21
ATOM     21  C   LIG    1        4.946  -3.934  -2.625  0.00  0.00    +0.230 C 
ATOM     22  C   LIG    1        3.948  -4.981  -3.126  0.00  0.00    +0.060 C 
BRANCH  21  23
ATOM     23  N   LIG    1        6.255  -4.561  -2.431  0.00  0.00    -0.720 N 
ATOM     24  H   LIG    1        6.512  -4.887  -1.554  0.00  0.00    +0.410 HD
ATOM     25  C   LIG    1        7.104  -4.685  -3.471  0.00  0.00    +0.520 C 
ATOM     26  O   LIG    1        6.784  -4.277  -4.567  0.00  0.00    -0.550 OA
ATOM     27  C   LIG    1        8.451  -5.330  -3.271  0.00  0.00    +0.110 C 
ENDBRANCH  21  23
ENDBRANCH  11  21
TORSDOF 5
