REMARK  Name = ZINCrD000000CFpE.0
REMARK                            x       y       z     vdW  Elec       q    Type
REMARK                         _______ _______ _______ _____ _____    ______ ____
ROOT
ATOM      1  C   LIG    1       -2.399   4.965   2.466  0.00  0.00    -0.160 A 
ATOM      2  C   LIG    1       -2.934   5.539   3.621  0.00  0.00    +0.060 A 
ATOM      3  C   LIG    1       -2.932   4.833   4.805  0.00  0.00    -0.010 A 
ATOM      4  C   LIG    1       -2.402   3.555   4.856  0.00  0.00    +0.050 A 
ATOM      5  C   LIG    1       -1.874   2.971   3.722  0.00  0.00    +0.020 A 
ATOM      6  C   LIG    1       -1.862   3.670   2.522  0.00  0.00    +0.200 A 
ENDROOT
BRANCH   1   8
ATOM      7  O   LIG    1       -2.856   5.207   0.191  0.00  0.00    -0.520 OA
ATOM      8  C   LIG    1       -2.398   5.714   1.196  0.00  0.00    +0.560 C 
ATOM      9  N   LIG    1       -1.889   6.962   1.150  0.00  0.00    -0.610 N 
ATOM     10  C   LIG    1       -1.408   7.629   2.370  0.00  0.00    +0.240 C 
ATOM     11  C   LIG    1        0.005   8.169   2.095  0.00  0.00    +0.220 C 
ATOM     12  O   LIG    1       -0.019   8.962   0.906  0.00  0.00    -0.380 OA
ATOM     13  C   LIG    1       -0.378   8.237  -0.274  0.00  0.00    +0.220 C 
ATOM     14  C   LIG    1       -1.805   7.699  -0.121  0.00  0.00    +0.260 C 
ENDBRANCH   1   8
BRANCH   6  15
ATOM     15  N   LIG    1       -1.325   3.085   1.377  0.00  0.00    -0.660 N 
ATOM     16  H   LIG    1       -0.887   3.637   0.710  0.00  0.00    +0.410 HD
ATOM     17  C   LIG    1       -1.412   1.752   1.197  0.00  0.00    +0.530 C 
ATOM     18  O   LIG    1       -1.897   1.054   2.062  0.00  0.00    -0.510 OA
BRANCH  17  19
ATOM     19  C   LIG    1       -0.908   1.130  -0.080  0.00  0.00    -0.070 C 
ATOM     20  C   LIG    1       -1.672   1.715  -1.269  0.00  0.00    +0.040 C 
ATOM     21  C   LIG    1       -1.160   1.083  -2.565  0.00  0.00    +0.000 C 
ATOM     22  C   LIG    1        0.333   1.380  -2.722  0.00  0.00    +0.020 C 
ATOM     23  C   LIG    1        1.097   0.795  -1.533  0.00  0.00    +0.000 C 
ATOM     24  C   LIG    1        0.880  -0.719  -1.482  0.00  0.00    +0.020 C 
ATOM     25  C   LIG    1       -0.612  -1.016  -1.325  0.00  0.00    -0.010 C 
ATOM     26  C   LIG    1       -1.377  -0.430  -2.515  0.00  0.00    +0.020 C 
ATOM     27  C   LIG    1        0.585   1.427  -0.237  0.00  0.00    +0.030 C 
ATOM     28  C   LIG    1       -1.125  -0.384  -0.029  0.00  0.00    +0.050 C 
ENDBRANCH  17  19
ENDBRANCH   6  15
TORSDOF 3
