REMARK  Name = ZINCkj000005mkVk.0
REMARK                            x       y       z     vdW  Elec       q    Type
REMARK                         _______ _______ _______ _____ _____    ______ ____
ROOT
ATOM      1  N   LIG    1       -0.716  -2.220   3.679  0.00  0.00    -0.380 N 
ATOM      2  C   LIG    1       -1.368  -2.396   2.376  0.00  0.00    +0.260 C 
ATOM      3  C   LIG    1       -0.436  -1.905   1.266  0.00  0.00    +0.080 C 
ATOM      4  C   LIG    1       -0.124  -0.422   1.487  0.00  0.00    -0.010 C 
ATOM      5  C   LIG    1        0.486  -0.239   2.879  0.00  0.00    +0.060 C 
ATOM      6  C   LIG    1       -0.479  -0.794   3.930  0.00  0.00    +0.260 C 
ATOM      7  H   LIG    1        0.165  -2.712   3.683  0.00  0.00    +0.430 HD
ENDROOT
BRANCH   1   8
ATOM      8  C   LIG    1       -1.581  -2.764   4.735  0.00  0.00    +0.250 C 
BRANCH   8   9
ATOM      9  C   LIG    1       -1.706  -4.279   4.562  0.00  0.00    +0.220 C 
BRANCH   9  10
ATOM     10  O   LIG    1       -0.412  -4.878   4.666  0.00  0.00    -0.540 OA
ATOM     11  H   LIG    1        0.026  -4.722   5.513  0.00  0.00    +0.390 HD
ENDBRANCH   9  10
BRANCH   9  12
ATOM     12  C   LIG    1       -2.618  -4.844   5.653  0.00  0.00    +0.060 C 
BRANCH  12  13
ATOM     13  C   LIG    1       -2.842  -6.337   5.408  0.00  0.00    +0.460 C 
ATOM     14  F   LIG    1       -3.443  -6.519   4.158  0.00  0.00    -0.180 F 
ATOM     15  F   LIG    1       -3.677  -6.853   6.406  0.00  0.00    -0.170 F 
ATOM     16  F   LIG    1       -1.613  -7.004   5.436  0.00  0.00    -0.170 F 
ENDBRANCH  12  13
ENDBRANCH   9  12
ENDBRANCH   8   9
ENDBRANCH   1   8
BRANCH   4  17
ATOM     17  C   LIG    1        0.870   0.055   0.426  0.00  0.00    +0.340 C 
BRANCH  17  18
ATOM     18  N   LIG    1        1.079   1.499   0.567  0.00  0.00    -0.300 N 
ATOM     19  C   LIG    1        2.272   2.115   0.727  0.00  0.00    +0.140 A 
ATOM     20  C   LIG    1        2.005   3.439   0.815  0.00  0.00    +0.150 A 
ATOM     21  N   LIG    1        0.677   3.566   0.706  0.00  0.00    -0.260 NA
ATOM     22  N   LIG    1        0.158   2.398   0.555  0.00  0.00    -0.090 NA
ENDBRANCH  17  18
ENDBRANCH   4  17
TORSDOF 7
