REMARK  Name = ZINCrH000004ssNs.0
REMARK                            x       y       z     vdW  Elec       q    Type
REMARK                         _______ _______ _______ _____ _____    ______ ____
ROOT
ATOM      1  C   LIG    1       -3.302   9.493   1.638  0.00  0.00    +0.160 A 
ATOM      2  C   LIG    1       -4.405   8.691   1.904  0.00  0.00    -0.010 A 
ATOM      3  C   LIG    1       -4.358   7.341   1.635  0.00  0.00    +0.130 A 
ATOM      4  C   LIG    1       -3.200   6.779   1.093  0.00  0.00    -0.180 A 
ATOM      5  C   LIG    1       -2.091   7.588   0.831  0.00  0.00    +0.090 A 
ATOM      6  C   LIG    1       -2.147   8.937   1.099  0.00  0.00    -0.080 A 
ENDROOT
BRANCH   4   7
ATOM      7  C   LIG    1       -3.145   5.332   0.803  0.00  0.00    +0.560 C 
ATOM      8  N   LIG    1       -2.026   4.792   0.281  0.00  0.00    -0.720 N 
ATOM      9  H   LIG    1       -1.257   5.353   0.095  0.00  0.00    +0.400 HD
ATOM     10  O   LIG    1       -4.109   4.629   1.036  0.00  0.00    -0.530 OA
BRANCH   8  11
ATOM     11  C   LIG    1       -1.972   3.356  -0.007  0.00  0.00    +0.290 C 
ATOM     12  C   LIG    1       -0.941   3.101  -1.105  0.00  0.00    +0.020 C 
ATOM     13  C   LIG    1       -0.741   1.587  -1.238  0.00  0.00    +0.030 C 
ATOM     14  C   LIG    1       -0.013   1.086   0.008  0.00  0.00    +0.080 C 
ATOM     15  C   LIG    1       -0.707   1.566   1.255  0.00  0.00    -0.070 A 
ATOM     16  C   LIG    1       -0.417   0.917   2.448  0.00  0.00    -0.010 A 
ATOM     17  C   LIG    1       -1.017   1.312   3.626  0.00  0.00    +0.010 A 
ATOM     18  C   LIG    1       -1.914   2.364   3.620  0.00  0.00    -0.010 A 
ATOM     19  C   LIG    1       -2.203   3.010   2.437  0.00  0.00    +0.020 A 
ATOM     20  C   LIG    1       -1.603   2.611   1.250  0.00  0.00    -0.100 A 
ENDBRANCH   8  11
ENDBRANCH   4   7
BRANCH   1  21
ATOM     21  O   LIG    1       -3.352  10.823   1.905  0.00  0.00    -0.300 OA
BRANCH  21  22
ATOM     22  C   LIG    1       -2.183  11.589   1.607  0.00  0.00    +0.360 C 
BRANCH  22  26
ATOM     23  C   LIG    1       -3.446  16.431   1.426  0.00  0.00    +0.260 C 
ATOM     24  C   LIG    1       -2.961  15.077   1.876  0.00  0.00    +0.190 A 
ATOM     25  N   LIG    1       -2.922  13.982   1.155  0.00  0.00    -0.470 NA
ATOM     26  C   LIG    1       -2.423  13.032   1.966  0.00  0.00    +0.160 A 
ATOM     27  N   LIG    1       -2.182  13.589   3.115  0.00  0.00    -0.360 NA
ATOM     28  O   LIG    1       -2.484  14.764   3.084  0.00  0.00    +0.090 OA
ENDBRANCH  22  26
ENDBRANCH  21  22
ENDBRANCH   1  21
TORSDOF 5
