REMARK  Name = ZINCqH0000038mal.0
REMARK                            x       y       z     vdW  Elec       q    Type
REMARK                         _______ _______ _______ _____ _____    ______ ____
ROOT
ATOM      1  N   LIG    1       -4.042   3.105   4.590  0.00  0.00    -0.690 N 
ATOM      2  H   LIG    1       -4.507   3.341   5.408  0.00  0.00    +0.400 HD
ATOM      3  C   LIG    1       -4.728   2.980   3.437  0.00  0.00    +0.710 C 
ATOM      4  N   LIG    1       -6.040   3.285   3.397  0.00  0.00    -0.620 N 
ATOM      5  C   LIG    1       -6.827   3.046   2.180  0.00  0.00    +0.290 C 
ATOM      6  C   LIG    1       -7.532   4.347   1.784  0.00  0.00    +0.030 C 
ATOM      7  C   LIG    1       -8.350   4.861   2.971  0.00  0.00    +0.040 C 
ATOM      8  C   LIG    1       -7.415   5.156   4.147  0.00  0.00    +0.080 C 
ATOM      9  C   LIG    1       -6.711   3.858   4.572  0.00  0.00    +0.290 C 
ATOM     10  O   LIG    1       -4.163   2.592   2.432  0.00  0.00    -0.570 OA
ENDROOT
BRANCH   8  11
ATOM     11  C   LIG    1       -8.217   5.693   5.304  0.00  0.00    +0.170 A 
ATOM     12  N   LIG    1       -9.192   5.081   5.924  0.00  0.00    -0.280 NA
ATOM     13  N   LIG    1       -9.646   5.832   6.866  0.00  0.00    -0.290 NA
ATOM     14  C   LIG    1       -8.981   6.951   6.891  0.00  0.00    +0.180 A 
ATOM     15  C   LIG    1       -9.168   8.101   7.847  0.00  0.00    +0.150 C 
ATOM     16  C   LIG    1       -9.184   9.410   7.062  0.00  0.00    +0.020 C 
ATOM     17  C   LIG    1       -7.760   9.935   6.903  0.00  0.00    +0.020 C 
ATOM     18  C   LIG    1       -6.772   8.775   6.783  0.00  0.00    +0.030 C 
ATOM     19  C   LIG    1       -7.102   7.942   5.542  0.00  0.00    +0.280 C 
ATOM     20  N   LIG    1       -8.060   6.896   5.900  0.00  0.00    -0.460 N 
ENDBRANCH   8  11
BRANCH   1  26
ATOM     21  C   LIG    1        0.312   3.389   2.324  0.00  0.00    +0.100 C 
ATOM     22  C   LIG    1       -0.524   3.023   3.523  0.00  0.00    -0.070 A 
ATOM     23  C   LIG    1        0.077   2.477   4.643  0.00  0.00    -0.020 A 
ATOM     24  C   LIG    1       -0.687   2.140   5.745  0.00  0.00    +0.040 A 
ATOM     25  C   LIG    1       -2.052   2.346   5.731  0.00  0.00    -0.040 A 
ATOM     26  C   LIG    1       -2.658   2.894   4.608  0.00  0.00    +0.170 A 
ATOM     27  C   LIG    1       -1.888   3.237   3.505  0.00  0.00    +0.010 A 
ENDBRANCH   1  26
TORSDOF 2
