REMARK  Name = ZINCrD00000bGMN3.0
REMARK                            x       y       z     vdW  Elec       q    Type
REMARK                         _______ _______ _______ _____ _____    ______ ____
ROOT
ATOM      1  C   LIG    1       -6.033   1.476  -4.080  0.00  0.00    +0.520 C 
ATOM      2  N   LIG    1       -4.879   1.201  -3.440  0.00  0.00    -0.610 N 
ATOM      3  C   LIG    1       -4.620  -0.139  -2.893  0.00  0.00    +0.300 C 
ATOM      4  C   LIG    1       -4.192   0.006  -1.429  0.00  0.00    +0.170 C 
ATOM      5  N   LIG    1       -3.063   0.942  -1.342  0.00  0.00    -0.530 NA
ATOM      6  C   LIG    1       -3.450   2.287  -1.790  0.00  0.00    +0.180 C 
ATOM      7  C   LIG    1       -3.846   2.234  -3.269  0.00  0.00    +0.280 C 
ATOM      8  O   LIG    1       -6.875   0.612  -4.211  0.00  0.00    -0.540 OA
ENDROOT
BRANCH   1   9
ATOM      9  C   LIG    1       -6.279   2.856  -4.632  0.00  0.00    +0.050 C 
BRANCH   9  10
ATOM     10  C   LIG    1       -7.652   2.900  -5.304  0.00  0.00    +0.130 C 
BRANCH  10  11
ATOM     11  C   LIG    1       -7.902   4.302  -5.865  0.00  0.00    +0.040 C 
ATOM     12  N   LIG    1       -6.750   5.105  -6.281  0.00  0.00    -0.120 NA
ATOM     13  N   LIG    1       -7.266   5.444  -5.204  0.00  0.00    -0.120 NA
BRANCH  11  14
ATOM     14  C   LIG    1       -9.240   4.518  -6.574  0.00  0.00    +0.120 C 
BRANCH  14  15
ATOM     15  C   LIG    1       -9.326   5.962  -7.071  0.00  0.00    +0.160 C 
BRANCH  15  17
ATOM     16  C   LIG    1      -11.641   6.336  -8.298  0.00  0.00    +0.030 C 
ATOM     17  C   LIG    1      -10.614   6.170  -7.753  0.00  0.00    -0.190 C 
ENDBRANCH  15  17
ENDBRANCH  14  15
ENDBRANCH  11  14
ENDBRANCH  10  11
ENDBRANCH   9  10
ENDBRANCH   1   9
BRANCH   5  18
ATOM     18  C   LIG    1       -2.513   0.979   0.019  0.00  0.00    +0.240 C 
BRANCH  18  19
ATOM     19  C   LIG    1       -1.218   1.750   0.017  0.00  0.00    -0.100 A 
ATOM     20  C   LIG    1       -0.013   1.076   0.008  0.00  0.00    +0.090 A 
ATOM     21  C   LIG    1        1.177   1.784   0.000  0.00  0.00    -0.070 A 
ATOM     22  C   LIG    1        1.160   3.167   0.008  0.00  0.00    +0.070 A 
ATOM     23  C   LIG    1       -0.044   3.845   0.023  0.00  0.00    -0.050 A 
ATOM     24 CL   LIG    1        2.691   0.934  -0.019  0.00  0.00    -0.070 Cl
ATOM     25  C   LIG    1       -1.236   3.137   0.031  0.00  0.00    +0.130 A 
BRANCH  25  26
ATOM     26  O   LIG    1       -2.422   3.802   0.045  0.00  0.00    -0.310 OA
ATOM     27  C   LIG    1       -2.365   5.230   0.052  0.00  0.00    +0.240 C 
ENDBRANCH  25  26
ENDBRANCH  18  19
ENDBRANCH   5  18
TORSDOF 9
