REMARK  Name = ZINCtV000002OIgg.0
REMARK                            x       y       z     vdW  Elec       q    Type
REMARK                         _______ _______ _______ _____ _____    ______ ____
ROOT
ATOM      1  O   LIG    1        2.650   4.271  -0.092  0.00  0.00    -0.480 OA
ATOM      2  C   LIG    1        3.683   3.634  -0.014  0.00  0.00    +0.570 C 
ATOM      3  N   LIG    1        4.864   4.275   0.080  0.00  0.00    -0.610 N 
ATOM      4  H   LIG    1        5.688   3.767   0.142  0.00  0.00    +0.420 HD
ENDROOT
BRANCH   2   5
ATOM      5  C   LIG    1        3.642   2.156  -0.021  0.00  0.00    -0.070 A 
ATOM      6  C   LIG    1        4.806   1.403  -0.051  0.00  0.00    +0.020 A 
ATOM      7  C   LIG    1        4.720  -0.000  -0.058  0.00  0.00    +0.230 A 
ATOM      8  N   LIG    1        3.563  -0.634  -0.037  0.00  0.00    -0.440 NA
ATOM      9  C   LIG    1        2.396   0.012  -0.007  0.00  0.00    +0.130 A 
ATOM     10  C   LIG    1        1.178  -0.691   0.016  0.00  0.00    +0.050 A 
ATOM     11  C   LIG    1        0.003  -0.004   0.046  0.00  0.00    +0.050 A 
ATOM     12  C   LIG    1       -0.016   1.388   0.054  0.00  0.00    +0.030 A 
ATOM     13  C   LIG    1        1.146   2.103   0.033  0.00  0.00    +0.060 A 
ATOM     14  C   LIG    1        2.371   1.429   0.002  0.00  0.00    -0.060 A 
BRANCH   7  15
ATOM     15  C   LIG    1        5.965  -0.790  -0.090  0.00  0.00    -0.170 A 
ATOM     16  C   LIG    1        6.033  -2.139  -0.094  0.00  0.00    +0.070 A 
ATOM     17  C   LIG    1        7.312  -2.650  -0.130  0.00  0.00    +0.010 A 
ATOM     18  C   LIG    1        8.288  -1.736  -0.145  0.00  0.00    -0.020 A 
ATOM     19  S   LIG    1        7.592  -0.122  -0.120  0.00  0.00    +0.130 S 
ENDBRANCH   7  15
ENDBRANCH   2   5
BRANCH   3  20
ATOM     20  C   LIG    1        4.902   5.662   0.087  0.00  0.00    +0.270 A 
ATOM     21  N   LIG    1        5.977   6.382   0.177  0.00  0.00    -0.490 NA
ATOM     22  C   LIG    1        5.823   7.699   0.164  0.00  0.00    +0.130 A 
ATOM     23  C   LIG    1        4.552   8.129   0.068  0.00  0.00    -0.110 A 
ATOM     24  S   LIG    1        3.498   6.720  -0.018  0.00  0.00    +0.210 S 
BRANCH  22  25
ATOM     25  C   LIG    1        6.972   8.632   0.256  0.00  0.00    -0.020 A 
ATOM     26  C   LIG    1        6.757  10.009   0.238  0.00  0.00    +0.030 A 
ATOM     27  C   LIG    1        7.829  10.874   0.329  0.00  0.00    +0.010 A 
ATOM     28  C   LIG    1        9.116  10.375   0.427  0.00  0.00    +0.010 A 
ATOM     29  C   LIG    1        9.336   9.010   0.440  0.00  0.00    +0.010 A 
ATOM     30  C   LIG    1        8.271   8.136   0.355  0.00  0.00    +0.040 A 
ENDBRANCH  22  25
ENDBRANCH   3  20
TORSDOF 4
