REMARK  Name = ZINCtV00001bB3TY.0
REMARK                            x       y       z     vdW  Elec       q    Type
REMARK                         _______ _______ _______ _____ _____    ______ ____
ROOT
ATOM      1  C   LIG    1        4.441   4.812  -0.606  0.00  0.00    +0.230 A 
ATOM      2  C   LIG    1        3.490   3.875  -1.012  0.00  0.00    -0.070 A 
ATOM      3  C   LIG    1        2.449   3.896   0.028  0.00  0.00    -0.080 A 
ATOM      4  C   LIG    1        2.861   4.838   0.951  0.00  0.00    +0.070 A 
ATOM      5  O   LIG    1        4.038   5.356   0.554  0.00  0.00    -0.190 OA
ENDROOT
BRANCH   4   6
ATOM      6  C   LIG    1        2.130   5.212   2.175  0.00  0.00    -0.030 A 
ATOM      7  C   LIG    1        1.948   6.559   2.499  0.00  0.00    +0.040 A 
ATOM      8  C   LIG    1        1.259   6.902   3.644  0.00  0.00    +0.010 A 
ATOM      9  C   LIG    1        0.758   5.916   4.476  0.00  0.00    +0.030 A 
ATOM     10  C   LIG    1        0.939   4.580   4.164  0.00  0.00    +0.010 A 
ATOM     11  C   LIG    1        1.621   4.222   3.020  0.00  0.00    +0.050 A 
ENDBRANCH   4   6
BRANCH   3  12
ATOM     12  C   LIG    1        1.213   3.082   0.072  0.00  0.00    -0.030 A 
ATOM     13  C   LIG    1        1.291   1.699   0.235  0.00  0.00    +0.020 A 
ATOM     14  C   LIG    1        0.135   0.946   0.275  0.00  0.00    +0.010 A 
ATOM     15  C   LIG    1       -1.098   1.559   0.148  0.00  0.00    +0.010 A 
ATOM     16  C   LIG    1       -1.182   2.931  -0.007  0.00  0.00    +0.010 A 
ATOM     17  C   LIG    1       -0.034   3.695  -0.049  0.00  0.00    +0.030 A 
ENDBRANCH   3  12
BRANCH   1  19
ATOM     18  C   LIG    1        6.391   6.022  -0.782  0.00  0.00    +0.360 C 
ATOM     19  N   LIG    1        5.574   5.120  -1.267  0.00  0.00    -0.440 NA
BRANCH  18  23
ATOM     20  C   LIG    1        9.948   6.988  -2.857  0.00  0.00    -0.050 A 
ATOM     21  C   LIG    1        9.647   7.630  -1.658  0.00  0.00    +0.030 A 
ATOM     22  C   LIG    1        8.500   7.322  -0.985  0.00  0.00    +0.090 A 
ATOM     23  C   LIG    1        7.624   6.357  -1.502  0.00  0.00    -0.100 A 
ATOM     24  C   LIG    1        7.933   5.709  -2.706  0.00  0.00    +0.100 A 
ATOM     25  C   LIG    1        9.080   6.028  -3.375  0.00  0.00    -0.020 A 
BRANCH  20  27
ATOM     26  C   LIG    1       11.358   6.311  -5.178  0.00  0.00    +0.140 C 
ATOM     27  S   LIG    1       11.429   7.390  -3.722  0.00  0.00    -0.100 S 
ENDBRANCH  20  27
ENDBRANCH  18  23
ENDBRANCH   1  19
BRANCH   2  28
ATOM     28  C   LIG    1        3.522   3.063  -2.191  0.00  0.00    +0.290 C 
ATOM     29  N   LIG    1        3.546   2.418  -3.126  0.00  0.00    -0.410 NA
ENDBRANCH   2  28
TORSDOF 6
