REMARK  Name = ZINCqH0000033MUd.1
REMARK                            x       y       z     vdW  Elec       q    Type
REMARK                         _______ _______ _______ _____ _____    ______ ____
ROOT
ATOM      1  N   LIG    1        3.516  -2.045  -0.623  0.00  0.00    -0.720 N 
ATOM      2  H   LIG    1        2.642  -2.465  -0.596  0.00  0.00    +0.400 HD
ATOM      3  C   LIG    1        4.553  -2.683  -1.202  0.00  0.00    +0.560 C 
ATOM      4  O   LIG    1        5.648  -2.157  -1.236  0.00  0.00    -0.520 OA
ENDROOT
BRANCH   3   5
ATOM      5  C   LIG    1        4.358  -4.023  -1.796  0.00  0.00    -0.130 A 
ATOM      6  C   LIG    1        3.102  -4.631  -1.753  0.00  0.00    +0.060 A 
ATOM      7  C   LIG    1        2.917  -5.880  -2.312  0.00  0.00    +0.020 A 
ATOM      8  C   LIG    1        3.973  -6.540  -2.907  0.00  0.00    +0.050 A 
ATOM      9  C   LIG    1        5.236  -5.946  -2.951  0.00  0.00    -0.030 A 
ATOM     10  C   LIG    1        5.428  -4.684  -2.395  0.00  0.00    +0.140 A 
BRANCH   9  11
ATOM     11  C   LIG    1        6.367  -6.655  -3.590  0.00  0.00    +0.220 A 
ATOM     12  N   LIG    1        7.601  -6.216  -3.702  0.00  0.00    -0.270 NA
ATOM     13  N   LIG    1        8.318  -7.092  -4.312  0.00  0.00    -0.290 NA
ATOM     14  C   LIG    1        7.590  -8.131  -4.622  0.00  0.00    +0.400 A 
ATOM     15  N   LIG    1        6.328  -7.894  -4.170  0.00  0.00    -0.580 N 
ATOM     16  H   LIG    1        5.560  -8.481  -4.245  0.00  0.00    +0.430 HD
ENDBRANCH   9  11
ENDBRANCH   3   5
BRANCH   1  17
ATOM     17  C   LIG    1        3.710  -0.717  -0.035  0.00  0.00    +0.310 C 
BRANCH  17  23
ATOM     18  C   LIG    1        2.380   1.409  -0.013  0.00  0.00    +0.140 A 
ATOM     19  C   LIG    1        1.170   2.086   0.002  0.00  0.00    -0.070 A 
ATOM     20  C   LIG    1       -0.017   1.378   0.010  0.00  0.00    +0.050 A 
ATOM     21  C   LIG    1        0.002  -0.004   0.002  0.00  0.00    -0.020 A 
ATOM     22  C   LIG    1        1.208  -0.681  -0.013  0.00  0.00    +0.040 A 
ATOM     23  C   LIG    1        2.396   0.022  -0.020  0.00  0.00    -0.130 A 
BRANCH  18  24
ATOM     24  O   LIG    1        3.548   2.104  -0.019  0.00  0.00    -0.310 OA
BRANCH  24  26
ATOM     25  C   LIG    1        4.862   4.132  -0.020  0.00  0.00    +0.070 C 
ATOM     26  C   LIG    1        3.456   3.530  -0.011  0.00  0.00    +0.170 C 
ENDBRANCH  24  26
ENDBRANCH  18  24
ENDBRANCH  17  23
BRANCH  17  27
ATOM     27  C   LIG    1        4.228  -0.864   1.397  0.00  0.00    +0.010 C 
ATOM     28  C   LIG    1        5.619  -1.502   1.373  0.00  0.00    +0.010 C 
ENDBRANCH  17  27
ENDBRANCH   1  17
TORSDOF 7
