REMARK  Name = ZINCqH0000033MUd.0
REMARK                            x       y       z     vdW  Elec       q    Type
REMARK                         _______ _______ _______ _____ _____    ______ ____
ROOT
ATOM      1  N   LIG    1        3.516  -2.045  -0.623  0.00  0.00    -0.720 N 
ATOM      2  H   LIG    1        2.642  -2.465  -0.596  0.00  0.00    +0.400 HD
ATOM      3  C   LIG    1        4.553  -2.683  -1.202  0.00  0.00    +0.560 C 
ATOM      4  O   LIG    1        5.648  -2.157  -1.236  0.00  0.00    -0.520 OA
ENDROOT
BRANCH   3   5
ATOM      5  C   LIG    1        4.358  -4.023  -1.796  0.00  0.00    -0.140 A 
ATOM      6  C   LIG    1        3.102  -4.631  -1.753  0.00  0.00    +0.060 A 
ATOM      7  C   LIG    1        2.918  -5.880  -2.311  0.00  0.00    +0.010 A 
ATOM      8  C   LIG    1        3.976  -6.540  -2.906  0.00  0.00    +0.090 A 
ATOM      9  C   LIG    1        5.237  -5.945  -2.950  0.00  0.00    -0.020 A 
ATOM     10  C   LIG    1        5.429  -4.684  -2.395  0.00  0.00    +0.130 A 
BRANCH   9  11
ATOM     11  C   LIG    1        6.372  -6.655  -3.591  0.00  0.00    +0.270 A 
ATOM     12  N   LIG    1        7.600  -6.197  -3.699  0.00  0.00    -0.300 NA
ATOM     13  N   LIG    1        8.343  -7.186  -4.364  0.00  0.00    -0.480 N 
ATOM     14  H   LIG    1        9.284  -7.149  -4.593  0.00  0.00    +0.450 HD
ATOM     15  C   LIG    1        7.490  -8.194  -4.624  0.00  0.00    +0.500 A 
ATOM     16  N   LIG    1        6.314  -7.867  -4.158  0.00  0.00    -0.540 NA
ENDBRANCH   9  11
ENDBRANCH   3   5
BRANCH   1  17
ATOM     17  C   LIG    1        3.710  -0.717  -0.035  0.00  0.00    +0.300 C 
BRANCH  17  23
ATOM     18  C   LIG    1        2.380   1.409  -0.013  0.00  0.00    +0.140 A 
ATOM     19  C   LIG    1        1.170   2.086   0.002  0.00  0.00    -0.070 A 
ATOM     20  C   LIG    1       -0.017   1.378   0.010  0.00  0.00    +0.050 A 
ATOM     21  C   LIG    1        0.002  -0.004   0.002  0.00  0.00    -0.020 A 
ATOM     22  C   LIG    1        1.208  -0.681  -0.013  0.00  0.00    +0.040 A 
ATOM     23  C   LIG    1        2.396   0.022  -0.020  0.00  0.00    -0.120 A 
BRANCH  18  24
ATOM     24  O   LIG    1        3.548   2.104  -0.019  0.00  0.00    -0.310 OA
BRANCH  24  26
ATOM     25  C   LIG    1        4.862   4.132  -0.020  0.00  0.00    +0.070 C 
ATOM     26  C   LIG    1        3.456   3.530  -0.011  0.00  0.00    +0.170 C 
ENDBRANCH  24  26
ENDBRANCH  18  24
ENDBRANCH  17  23
BRANCH  17  27
ATOM     27  C   LIG    1        4.228  -0.864   1.397  0.00  0.00    +0.010 C 
ATOM     28  C   LIG    1        5.619  -1.502   1.373  0.00  0.00    +0.030 C 
ENDBRANCH  17  27
ENDBRANCH   1  17
TORSDOF 7
