REMARK  Name = ZINCtV000002OiDc.0
REMARK                            x       y       z     vdW  Elec       q    Type
REMARK                         _______ _______ _______ _____ _____    ______ ____
ROOT
ATOM      1  O   LIG    1        2.330  -2.751  -0.074  0.00  0.00    -0.490 OA
ATOM      2  C   LIG    1        1.267  -2.160  -0.033  0.00  0.00    +0.560 C 
ATOM      3  N   LIG    1        0.112  -2.854  -0.008  0.00  0.00    -0.670 N 
ATOM      4  H   LIG    1       -0.733  -2.386   0.088  0.00  0.00    +0.410 HD
ENDROOT
BRANCH   2   5
ATOM      5  C   LIG    1        1.243  -0.687  -0.009  0.00  0.00    -0.140 A 
ATOM      6  C   LIG    1        0.025  -0.004   0.038  0.00  0.00    +0.070 A 
ATOM      7  C   LIG    1        0.009   1.373   0.060  0.00  0.00    -0.010 A 
ATOM      8  C   LIG    1        1.196   2.088   0.036  0.00  0.00    +0.070 A 
ATOM      9  C   LIG    1        2.408   1.429  -0.011  0.00  0.00    -0.020 A 
ATOM     10  C   LIG    1        2.445   0.040  -0.034  0.00  0.00    -0.040 A 
BRANCH  10  11
ATOM     11  S   LIG    1        3.990  -0.804  -0.094  0.00  0.00    +0.030 S 
BRANCH  11  12
ATOM     12  C   LIG    1        5.195   0.551  -0.109  0.00  0.00    +0.110 C 
BRANCH  12  13
ATOM     13  C   LIG    1        6.590  -0.017  -0.160  0.00  0.00    +0.080 A 
ATOM     14  C   LIG    1        7.225  -0.272  -1.308  0.00  0.00    -0.060 A 
ATOM     15  S   LIG    1        8.815  -0.922  -0.915  0.00  0.00    +0.140 S 
ATOM     16  C   LIG    1        8.468  -0.786   0.753  0.00  0.00    +0.220 A 
ATOM     17  N   LIG    1        7.285  -0.299   0.923  0.00  0.00    -0.460 NA
ENDBRANCH  12  13
ENDBRANCH  11  12
ENDBRANCH  10  11
ENDBRANCH   2   5
BRANCH   3  18
ATOM     18  C   LIG    1        0.130  -4.249  -0.122  0.00  0.00    +0.150 A 
ATOM     19  C   LIG    1       -0.892  -4.904  -0.796  0.00  0.00    +0.010 A 
ATOM     20  C   LIG    1       -0.871  -6.280  -0.913  0.00  0.00    +0.040 A 
ATOM     21  C   LIG    1        0.166  -7.008  -0.348  0.00  0.00    +0.070 A 
ATOM     22  C   LIG    1        1.185  -6.355   0.330  0.00  0.00    +0.020 A 
ATOM     23  C   LIG    1        1.167  -4.979   0.443  0.00  0.00    +0.050 A 
BRANCH  21  24
ATOM     24  O   LIG    1        0.184  -8.363  -0.459  0.00  0.00    -0.260 OA
BRANCH  24  25
ATOM     25  C   LIG    1       -0.153  -9.097   0.634  0.00  0.00    +0.120 A 
ATOM     26  C   LIG    1       -0.400  -8.467   1.845  0.00  0.00    -0.070 A 
ATOM     27  C   LIG    1       -0.748  -9.215   2.953  0.00  0.00    +0.050 A 
ATOM     28  C   LIG    1       -0.840 -10.592   2.858  0.00  0.00    -0.020 A 
ATOM     29  C   LIG    1       -0.590 -11.223   1.654  0.00  0.00    +0.050 A 
ATOM     30  C   LIG    1       -0.246 -10.479   0.541  0.00  0.00    -0.020 A 
ENDBRANCH  24  25
ENDBRANCH  21  24
ENDBRANCH   3  18
TORSDOF 7
