REMARK  Name = ZINCpe000000UEpZ.0
REMARK                            x       y       z     vdW  Elec       q    Type
REMARK                         _______ _______ _______ _____ _____    ______ ____
ROOT
ATOM      1  C   LIG    1        1.345  -0.785   1.940  0.00  0.00    +0.300 C 
ATOM      2  N   LIG    1        0.017  -0.532   1.375  0.00  0.00    -0.600 N 
ATOM      3  C   LIG    1       -1.085  -0.762   2.116  0.00  0.00    +0.610 C 
ATOM      4  O   LIG    1       -2.183  -0.486   1.673  0.00  0.00    -0.540 OA
ENDROOT
BRANCH   3   5
ATOM      5  C   LIG    1       -0.959  -1.349   3.464  0.00  0.00    -0.100 A 
ATOM      6  C   LIG    1       -1.995  -1.736   4.266  0.00  0.00    +0.310 A 
ATOM      7  N   LIG    1       -1.450  -2.216   5.402  0.00  0.00    -0.350 N 
ATOM      8  N   LIG    1       -0.059  -2.108   5.262  0.00  0.00    -0.030 NA
ATOM      9  N   LIG    1        0.194  -1.598   4.107  0.00  0.00    -0.200 NA
BRANCH   7  10
ATOM     10  C   LIG    1       -2.173  -2.748   6.560  0.00  0.00    +0.380 C 
BRANCH  10  11
ATOM     11  C   LIG    1       -1.676  -4.138   6.866  0.00  0.00    +0.520 C 
ATOM     12  N   LIG    1       -2.201  -4.829   7.897  0.00  0.00    -0.620 N 
ATOM     13  C   LIG    1       -3.253  -4.348   8.804  0.00  0.00    +0.230 C 
ATOM     14  C   LIG    1       -3.513  -5.464   9.838  0.00  0.00    +0.040 C 
ATOM     15  C   LIG    1       -2.193  -6.279   9.805  0.00  0.00    +0.040 C 
ATOM     16  C   LIG    1       -1.810  -6.190   8.307  0.00  0.00    +0.260 C 
ATOM     17  O   LIG    1       -0.804  -4.634   6.185  0.00  0.00    -0.510 OA
ENDBRANCH  10  11
ENDBRANCH   7  10
ENDBRANCH   3   5
BRANCH   2  18
ATOM     18  C   LIG    1       -0.112  -0.030   0.005  0.00  0.00    +0.350 C 
BRANCH  18  19
ATOM     19  C   LIG    1       -0.109   1.477   0.021  0.00  0.00    -0.090 A 
ATOM     20  C   LIG    1       -1.300   2.170   0.136  0.00  0.00    +0.030 A 
ATOM     21  C   LIG    1       -1.300   3.552   0.155  0.00  0.00    +0.020 A 
ATOM     22  C   LIG    1       -0.110   4.245   0.049  0.00  0.00    -0.010 A 
ATOM     23  C   LIG    1        1.087   3.553  -0.071  0.00  0.00    +0.100 A 
ATOM     24  C   LIG    1        1.084   2.166  -0.085  0.00  0.00    +0.000 A 
BRANCH  23  25
ATOM     25  O   LIG    1        2.259   4.233  -0.176  0.00  0.00    -0.500 OA
ATOM     26  H   LIG    1        2.514   4.438  -1.086  0.00  0.00    +0.390 HD
ENDBRANCH  23  25
ENDBRANCH  18  19
ENDBRANCH   2  18
TORSDOF 6
