REMARK  Name = ZINCqH0000034HHK.0
REMARK                            x       y       z     vdW  Elec       q    Type
REMARK                         _______ _______ _______ _____ _____    ______ ____
ROOT
ATOM      1  C   LIG    1       -1.510  -3.485   3.402  0.00  0.00    +0.220 C 
ATOM      2  N   LIG    1       -0.613  -3.485   2.240  0.00  0.00    -0.500 N 
ATOM      3  C   LIG    1       -0.117  -4.832   1.960  0.00  0.00    +0.190 C 
ATOM      4  C   LIG    1        1.287  -4.796   1.370  0.00  0.00    +0.030 C 
ATOM      5  C   LIG    1        1.328  -4.231  -0.032  0.00  0.00    +0.300 C 
ATOM      6  N   LIG    1        0.883  -2.827  -0.021  0.00  0.00    -0.550 N 
ATOM      7  C   LIG    1       -0.496  -2.582  -0.000  0.00  0.00    +0.150 A 
ATOM      8  C   LIG    1       -1.114  -1.997  -1.101  0.00  0.00    +0.090 A 
ATOM      9  C   LIG    1       -2.483  -1.790  -1.087  0.00  0.00    -0.040 A 
ATOM     10  C   LIG    1       -3.235  -2.164   0.012  0.00  0.00    +0.050 A 
ATOM     11  C   LIG    1       -2.621  -2.736   1.113  0.00  0.00    -0.010 A 
ATOM     12 CL   LIG    1       -3.259  -1.058  -2.456  0.00  0.00    -0.070 Cl
ATOM     13  C   LIG    1        1.772  -1.813  -0.024  0.00  0.00    +0.620 C 
ATOM     14  O   LIG    1        2.965  -2.051  -0.037  0.00  0.00    -0.520 OA
ATOM     15  C   LIG    1       -1.250  -2.933   1.108  0.00  0.00    +0.110 A 
ENDROOT
BRANCH  13  16
ATOM     16  C   LIG    1        1.298  -0.418  -0.013  0.00  0.00    -0.080 A 
ATOM     17  C   LIG    1        2.075   0.700  -0.014  0.00  0.00    +0.250 A 
ATOM     18  O   LIG    1        1.244   1.754  -0.000  0.00  0.00    -0.190 OA
ATOM     19  C   LIG    1       -0.015   1.295   0.009  0.00  0.00    +0.200 A 
ATOM     20  N   LIG    1        0.002  -0.004   0.002  0.00  0.00    -0.440 NA
BRANCH  19  21
ATOM     21  C   LIG    1       -1.256   2.151   0.020  0.00  0.00    +0.130 C 
ATOM     22  C   LIG    1       -1.269   3.051  -1.220  0.00  0.00    +0.010 C 
ATOM     23  C   LIG    1       -2.491   3.971  -1.160  0.00  0.00    +0.220 C 
ATOM     24  O   LIG    1       -2.450   4.737   0.045  0.00  0.00    -0.380 OA
ATOM     25  C   LIG    1       -2.484   3.950   1.238  0.00  0.00    +0.220 C 
ATOM     26  C   LIG    1       -1.262   3.029   1.275  0.00  0.00    +0.010 C 
ENDBRANCH  19  21
ENDBRANCH  13  16
TORSDOF 2
