REMARK  Name = ZINCqH0000004t0q.0
REMARK                            x       y       z     vdW  Elec       q    Type
REMARK                         _______ _______ _______ _____ _____    ______ ____
ROOT
ATOM      1  C   LIG    1       -5.881  -1.097   0.327  0.00  0.00    +0.600 C 
ATOM      2  N   LIG    1       -4.730  -0.403   0.224  0.00  0.00    -0.530 N 
ATOM      3  H   LIG    1       -3.885  -0.874   0.144  0.00  0.00    +0.420 HD
ATOM      4  O   LIG    1       -6.940  -0.506   0.427  0.00  0.00    -0.520 OA
ENDROOT
BRANCH   1  11
ATOM      5  C   LIG    1       -7.045  -7.130   0.838  0.00  0.00    -0.010 C 
ATOM      6  C   LIG    1       -5.877  -7.382  -0.119  0.00  0.00    +0.040 C 
ATOM      7  C   LIG    1       -4.752  -6.393   0.197  0.00  0.00    +0.120 C 
ATOM      8  C   LIG    1       -5.335  -4.994   0.258  0.00  0.00    -0.180 A 
ATOM      9  C   LIG    1       -6.654  -4.722   0.381  0.00  0.00    -0.120 A 
ATOM     10  C   LIG    1       -6.947  -3.371   0.414  0.00  0.00    +0.130 A 
ATOM     11  C   LIG    1       -5.856  -2.563   0.318  0.00  0.00    -0.280 A 
ATOM     12  S   LIG    1       -4.416  -3.557   0.173  0.00  0.00    +0.190 S 
ATOM     13  C   LIG    1       -7.720  -5.806   0.473  0.00  0.00    +0.110 C 
BRANCH   5  15
ATOM     14  C   LIG    1       -9.165  -8.080   1.758  0.00  0.00    +0.000 C 
ATOM     15  C   LIG    1       -8.059  -8.270   0.718  0.00  0.00    +0.000 C 
ENDBRANCH   5  15
ENDBRANCH   1  11
BRANCH   2  16
ATOM     16  N   LIG    1       -4.753   0.997   0.232  0.00  0.00    -0.520 N 
ATOM     17  H   LIG    1       -5.597   1.468   0.312  0.00  0.00    +0.450 HD
ATOM     18  C   LIG    1       -3.602   1.691   0.130  0.00  0.00    +0.710 C 
ATOM     19  N   LIG    1       -2.429   1.037   0.019  0.00  0.00    -0.680 N 
ATOM     20  H   LIG    1       -2.418   0.071  -0.065  0.00  0.00    +0.400 HD
ATOM     21  O   LIG    1       -3.622   2.907   0.137  0.00  0.00    -0.550 OA
BRANCH  19  22
ATOM     22  C   LIG    1       -1.224   1.753   0.025  0.00  0.00    +0.120 A 
ATOM     23  C   LIG    1       -1.108   2.911   0.782  0.00  0.00    +0.060 A 
ATOM     24  C   LIG    1        0.082   3.613   0.792  0.00  0.00    +0.010 A 
ATOM     25  C   LIG    1        1.158   3.164   0.042  0.00  0.00    +0.120 A 
ATOM     26  C   LIG    1        1.042   2.010  -0.719  0.00  0.00    -0.060 A 
ATOM     27  C   LIG    1       -0.147   1.307  -0.730  0.00  0.00    +0.030 A 
BRANCH  25  28
ATOM     28  O   LIG    1        2.329   3.855   0.052  0.00  0.00    -0.320 OA
ATOM     29  C   LIG    1        3.397   3.336  -0.744  0.00  0.00    +0.250 C 
ENDBRANCH  25  28
ENDBRANCH  19  22
ENDBRANCH   2  16
TORSDOF 5
