REMARK  Name = ZINCxy0000000p8H.0
REMARK                            x       y       z     vdW  Elec       q    Type
REMARK                         _______ _______ _______ _____ _____    ______ ____
ROOT
ATOM      1  C   LIG    1       -0.603  -7.858  -0.708  0.00  0.00    +0.130 A 
ATOM      2  C   LIG    1       -0.579  -6.634  -1.355  0.00  0.00    +0.130 A 
ATOM      3  C   LIG    1       -1.074  -5.499  -0.710  0.00  0.00    -0.130 A 
ATOM      4  C   LIG    1       -1.586  -5.604   0.585  0.00  0.00    +0.080 A 
ATOM      5  C   LIG    1       -1.612  -6.829   1.220  0.00  0.00    -0.020 A 
ATOM      6  C   LIG    1       -1.120  -7.955   0.581  0.00  0.00    +0.130 A 
ATOM      7  F   LIG    1       -1.143  -9.150   1.210  0.00  0.00    -0.130 F 
ENDROOT
BRANCH   3   8
ATOM      8  C   LIG    1       -1.051  -4.190  -1.393  0.00  0.00    +0.580 C 
ATOM      9  N   LIG    1       -1.723  -3.145  -0.871  0.00  0.00    -0.620 N 
ATOM     10  C   LIG    1       -2.634  -3.165   0.289  0.00  0.00    +0.260 C 
ATOM     11  C   LIG    1       -3.611  -1.988   0.118  0.00  0.00    +0.050 C 
ATOM     12  C   LIG    1       -3.172  -1.289  -1.190  0.00  0.00    -0.080 C 
ATOM     13  C   LIG    1       -1.699  -1.742  -1.344  0.00  0.00    +0.300 C 
ATOM     14  O   LIG    1       -0.426  -4.055  -2.427  0.00  0.00    -0.530 OA
BRANCH  11  15
ATOM     15  C   LIG    1       -5.024  -2.495  -0.009  0.00  0.00    -0.040 A 
ATOM     16  C   LIG    1       -5.356  -3.371  -1.026  0.00  0.00    +0.030 A 
ATOM     17  C   LIG    1       -6.652  -3.837  -1.142  0.00  0.00    +0.020 A 
ATOM     18  C   LIG    1       -7.617  -3.428  -0.242  0.00  0.00    +0.030 A 
ATOM     19  C   LIG    1       -7.286  -2.551   0.776  0.00  0.00    -0.090 A 
ATOM     20 BR   LIG    1       -8.607  -1.990   2.008  0.00  0.00    -0.070 Br
ATOM     21  C   LIG    1       -5.989  -2.085   0.892  0.00  0.00    +0.060 A 
ENDBRANCH  11  15
BRANCH  12  22
ATOM     22  C   LIG    1       -3.258   0.209  -1.049  0.00  0.00    +0.510 C 
ATOM     23  O   LIG    1       -4.088   0.705  -0.307  0.00  0.00    -0.690 OA
ATOM     24  O   LIG    1       -2.497   0.925  -1.677  0.00  0.00    -0.690 OA
ENDBRANCH  12  22
ENDBRANCH   3   8
BRANCH   1  29
ATOM     25  N   LIG    1        1.668 -10.436  -1.839  0.00  0.00    -0.860 N 
ATOM     26  H   LIG    1        2.602 -10.679  -1.744  0.00  0.00    +0.410 HD
ATOM     27  H   LIG    1        1.076 -10.983  -2.379  0.00  0.00    +0.400 HD
ATOM     28  C   LIG    1        1.191  -9.338  -1.220  0.00  0.00    +0.720 C 
ATOM     29  N   LIG    1       -0.107  -9.000  -1.351  0.00  0.00    -0.590 N 
ATOM     30  O   LIG    1        1.932  -8.651  -0.543  0.00  0.00    -0.590 OA
BRANCH  29  31
ATOM     31  C   LIG    1       -1.000  -9.827  -2.167  0.00  0.00    +0.290 C 
BRANCH  31  32
ATOM     32  C   LIG    1       -0.988  -9.321  -3.611  0.00  0.00    -0.070 C 
BRANCH  32  33
ATOM     33  C   LIG    1       -1.906 -10.172  -4.449  0.00  0.00    +0.500 C 
ATOM     34  O   LIG    1       -2.041  -9.935  -5.638  0.00  0.00    -0.700 OA
ATOM     35  O   LIG    1       -2.514 -11.098  -3.939  0.00  0.00    -0.700 OA
ENDBRANCH  32  33
ENDBRANCH  31  32
ENDBRANCH  29  31
ENDBRANCH   1  29
TORSDOF 7
