REMARK  Name = ZINCqH0000008QFV.0
REMARK                            x       y       z     vdW  Elec       q    Type
REMARK                         _______ _______ _______ _____ _____    ______ ____
ROOT
ATOM      1  C   LIG    1        4.913   3.555  -1.880  0.00  0.00    +0.040 C 
ENDROOT
BRANCH   1  12
ATOM      2  C   LIG    1        2.604   0.119  -1.067  0.00  0.00    +0.070 C 
ATOM      3  C   LIG    1        2.534   1.207   0.006  0.00  0.00    +0.300 C 
ATOM      4  C   LIG    1        1.082   1.603   0.247  0.00  0.00    -0.120 A 
ATOM      5  C   LIG    1        0.674   2.886   0.273  0.00  0.00    -0.180 A 
ATOM      6  S   LIG    1       -1.055   2.956   0.590  0.00  0.00    +0.100 S 
ATOM      7  C   LIG    1       -1.148   1.202   0.660  0.00  0.00    -0.040 A 
ATOM      8  C   LIG    1        1.568   4.088   0.060  0.00  0.00    +0.120 C 
ATOM      9  C   LIG    1        3.027   3.669   0.265  0.00  0.00    +0.290 C 
ATOM     10  C   LIG    1        0.060   0.684   0.463  0.00  0.00    +0.020 A 
ATOM     11  N   LIG    1        3.256   2.404  -0.450  0.00  0.00    -0.610 N 
ATOM     12  C   LIG    1        4.104   2.344  -1.495  0.00  0.00    +0.530 C 
ATOM     13  O   LIG    1        4.216   1.314  -2.126  0.00  0.00    -0.520 OA
ENDBRANCH   1  12
BRANCH   1  14
ATOM     14  C   LIG    1        5.788   3.221  -3.090  0.00  0.00    +0.330 C 
BRANCH  14  15
ATOM     15  N   LIG    1        6.574   4.399  -3.464  0.00  0.00    -0.550 N 
ATOM     16  C   LIG    1        6.072   5.286  -4.363  0.00  0.00    +0.590 A 
ATOM     17  N   LIG    1        6.705   6.355  -4.740  0.00  0.00    -0.520 NA
ATOM     18  C   LIG    1        7.938   6.658  -4.263  0.00  0.00    +0.170 A 
ATOM     19  C   LIG    1        8.620   7.805  -4.672  0.00  0.00    +0.050 A 
ATOM     20  C   LIG    1        9.870   8.075  -4.161  0.00  0.00    +0.100 A 
ATOM     21  C   LIG    1       10.462   7.218  -3.241  0.00  0.00    -0.110 A 
ATOM     22  C   LIG    1        9.808   6.079  -2.822  0.00  0.00    +0.140 A 
ATOM     23 BR   LIG    1       12.180   7.618  -2.559  0.00  0.00    -0.030 Br
ATOM     24  C   LIG    1        8.543   5.790  -3.327  0.00  0.00    -0.190 A 
ATOM     25  C   LIG    1        7.797   4.591  -2.916  0.00  0.00    +0.550 A 
ATOM     26  O   LIG    1        8.261   3.801  -2.114  0.00  0.00    -0.500 OA
ENDBRANCH  14  15
ENDBRANCH   1  14
TORSDOF 3
