REMARK  Name = ZINCpk00000y6tZv.0
REMARK                            x       y       z     vdW  Elec       q    Type
REMARK                         _______ _______ _______ _____ _____    ______ ____
ROOT
ATOM      1  C   LIG    1        2.186   5.553   0.495  0.00  0.00    +0.000 C 
ATOM      2  C   LIG    1        1.379   6.333  -0.568  0.00  0.00    +0.080 C 
ATOM      3  C   LIG    1        2.132   7.636  -0.725  0.00  0.00    +0.520 C 
ATOM      4  N   LIG    1        3.365   7.523  -0.200  0.00  0.00    -0.610 N 
ATOM      5  O   LIG    1        1.689   8.636  -1.248  0.00  0.00    -0.500 OA
ATOM      6  C   LIG    1        3.591   6.179   0.345  0.00  0.00    +0.300 C 
ENDROOT
BRANCH   1   8
ATOM      7  N   LIG    1        1.296   3.256   0.717  0.00  0.00    -0.530 N 
ATOM      8  C   LIG    1        2.215   4.081   0.177  0.00  0.00    +0.520 C 
ATOM      9  O   LIG    1        3.066   3.637  -0.565  0.00  0.00    -0.450 OA
ATOM     10  C   LIG    1        0.206   3.805   1.528  0.00  0.00    +0.330 C 
BRANCH   7  16
ATOM     11  C   LIG    1        3.615  -0.429  -1.290  0.00  0.00    +0.140 C 
ATOM     12  C   LIG    1        2.484   0.107  -0.452  0.00  0.00    +0.210 A 
ATOM     13  C   LIG    1        1.547  -0.754   0.096  0.00  0.00    -0.110 A 
ATOM     14  C   LIG    1        0.522  -0.218   0.861  0.00  0.00    +0.210 A 
ATOM     15  N   LIG    1        0.470   1.091   1.043  0.00  0.00    -0.550 NA
ATOM     16  C   LIG    1        1.382   1.886   0.505  0.00  0.00    +0.540 A 
ATOM     17  C   LIG    1       -0.520  -1.116   1.477  0.00  0.00    +0.140 C 
ATOM     18  N   LIG    1        2.373   1.407  -0.230  0.00  0.00    -0.510 NA
ENDBRANCH   7  16
ENDBRANCH   1   8
BRANCH   4  19
ATOM     19  C   LIG    1        4.355   8.602  -0.176  0.00  0.00    +0.380 C 
BRANCH  19  20
ATOM     20  C   LIG    1        4.198   9.399   1.093  0.00  0.00    +0.100 A 
ATOM     21  C   LIG    1        4.982   9.098   2.191  0.00  0.00    -0.030 A 
ATOM     22  C   LIG    1        4.829   9.838   3.354  0.00  0.00    +0.060 A 
ATOM     23  C   LIG    1        3.890  10.857   3.369  0.00  0.00    -0.030 A 
ATOM     24  C   LIG    1        3.142  11.100   2.233  0.00  0.00    +0.260 A 
ATOM     25  N   LIG    1        3.317  10.380   1.142  0.00  0.00    -0.460 NA
ENDBRANCH  19  20
ENDBRANCH   4  19
TORSDOF 4
