REMARK  Name = ZINCqH0000037OZh.0
REMARK                            x       y       z     vdW  Elec       q    Type
REMARK                         _______ _______ _______ _____ _____    ______ ____
ROOT
ATOM      1  N   LIG    1       -4.854  -3.715   2.225  0.00  0.00    -0.730 N 
ATOM      2  H   LIG    1       -5.818  -3.660   2.132  0.00  0.00    +0.390 HD
ATOM      3  C   LIG    1       -4.093  -2.622   2.019  0.00  0.00    +0.710 C 
ATOM      4  N   LIG    1       -4.672  -1.452   1.685  0.00  0.00    -0.660 N 
ATOM      5  H   LIG    1       -5.636  -1.396   1.592  0.00  0.00    +0.400 HD
ATOM      6  O   LIG    1       -2.885  -2.691   2.136  0.00  0.00    -0.550 OA
ENDROOT
BRANCH   4   7
ATOM      7  C   LIG    1       -3.885  -0.320   1.472  0.00  0.00    +0.320 A 
ATOM      8  C   LIG    1       -2.529  -0.254   1.567  0.00  0.00    -0.100 A 
ATOM      9  C   LIG    1       -2.143   1.058   1.278  0.00  0.00    +0.100 A 
ATOM     10  N   LIG    1       -3.219   1.756   1.022  0.00  0.00    -0.280 NA
ATOM     11  N   LIG    1       -4.330   0.911   1.133  0.00  0.00    -0.380 N 
BRANCH   9  12
ATOM     12  C   LIG    1       -0.729   1.579   1.267  0.00  0.00    +0.010 C 
ATOM     13  C   LIG    1       -0.750   3.109   1.275  0.00  0.00    +0.040 C 
ATOM     14  C   LIG    1        0.011   1.072   2.506  0.00  0.00    +0.040 C 
ATOM     15  C   LIG    1       -0.013   1.086   0.008  0.00  0.00    +0.030 C 
ENDBRANCH   9  12
BRANCH  11  16
ATOM     16  C   LIG    1       -5.729   1.294   0.923  0.00  0.00    +0.180 C 
ATOM     17  C   LIG    1       -6.323   0.456  -0.211  0.00  0.00    +0.040 C 
ATOM     18  C   LIG    1       -5.802   2.777   0.553  0.00  0.00    +0.070 C 
ATOM     19  C   LIG    1       -6.523   1.050   2.208  0.00  0.00    +0.040 C 
ENDBRANCH  11  16
ENDBRANCH   4   7
BRANCH   1  20
ATOM     20  C   LIG    1       -4.225  -4.987   2.589  0.00  0.00    +0.270 C 
ATOM     21  C   LIG    1       -3.778  -5.717   1.321  0.00  0.00    +0.030 C 
BRANCH  20  22
ATOM     22  C   LIG    1       -5.231  -5.854   3.349  0.00  0.00    +0.120 C 
BRANCH  22  28
ATOM     23  C   LIG    1       -5.110  -4.364   8.217  0.00  0.00    +0.150 C 
ATOM     24  C   LIG    1       -5.539  -4.532   6.783  0.00  0.00    +0.080 A 
ATOM     25  N   LIG    1       -6.592  -3.987   6.228  0.00  0.00    -0.290 NA
ATOM     26  N   LIG    1       -6.637  -4.389   4.887  0.00  0.00    -0.480 N 
ATOM     27  H   LIG    1       -7.311  -4.135   4.237  0.00  0.00    +0.430 HD
ATOM     28  C   LIG    1       -5.577  -5.192   4.658  0.00  0.00    +0.090 A 
ATOM     29  C   LIG    1       -4.885  -5.301   5.815  0.00  0.00    -0.110 A 
ENDBRANCH  22  28
ENDBRANCH  20  22
ENDBRANCH   1  20
TORSDOF 6
