REMARK  Name = ZINCqH00000074eC.0
REMARK                            x       y       z     vdW  Elec       q    Type
REMARK                         _______ _______ _______ _____ _____    ______ ____
ROOT
ATOM      1  C   LIG    1        4.764   1.459   0.066  0.00  0.00    +0.560 C 
ATOM      2  N   LIG    1        3.594   2.121  -0.021  0.00  0.00    -0.670 N 
ATOM      3  H   LIG    1        3.588   3.089  -0.084  0.00  0.00    +0.410 HD
ATOM      4  O   LIG    1        4.777   0.243   0.060  0.00  0.00    -0.510 OA
ENDROOT
BRANCH   1   8
ATOM      5  C   LIG    1        8.409   3.624   0.360  0.00  0.00    +0.130 A 
ATOM      6  C   LIG    1        7.203   4.305   0.271  0.00  0.00    -0.040 A 
ATOM      7  C   LIG    1        6.019   3.606   0.175  0.00  0.00    +0.050 A 
ATOM      8  C   LIG    1        6.031   2.209   0.168  0.00  0.00    -0.140 A 
ATOM      9  C   LIG    1        7.245   1.523   0.264  0.00  0.00    +0.040 A 
ATOM     10  C   LIG    1        8.429   2.230   0.353  0.00  0.00    +0.090 A 
BRANCH   5  12
ATOM     11  C   LIG    1        9.480   5.743   0.455  0.00  0.00    +0.240 C 
ATOM     12  O   LIG    1        9.573   4.317   0.454  0.00  0.00    -0.300 OA
ENDBRANCH   5  12
BRANCH  10  13
ATOM     13  O   LIG    1        9.612   1.566   0.441  0.00  0.00    -0.300 OA
ATOM     14  C   LIG    1        9.558   0.138   0.428  0.00  0.00    +0.240 C 
ENDBRANCH  10  13
ENDBRANCH   1   8
BRANCH   2  15
ATOM     15  C   LIG    1        2.388   1.413  -0.021  0.00  0.00    +0.140 A 
ATOM     16  C   LIG    1        1.266   1.953   0.596  0.00  0.00    +0.010 A 
ATOM     17  C   LIG    1        0.072   1.256   0.599  0.00  0.00    +0.030 A 
ATOM     18  C   LIG    1       -0.012   0.020  -0.011  0.00  0.00    +0.030 A 
ATOM     19  C   LIG    1        1.109  -0.529  -0.633  0.00  0.00    -0.050 A 
ATOM     20  C   LIG    1        2.312   0.173  -0.636  0.00  0.00    +0.090 A 
BRANCH  19  21
ATOM     21  C   LIG    1        1.021  -1.859  -1.284  0.00  0.00    +0.220 A 
ATOM     22  C   LIG    1       -0.202  -2.527  -1.372  0.00  0.00    -0.080 A 
ATOM     23  C   LIG    1       -0.230  -3.765  -1.989  0.00  0.00    +0.330 A 
ATOM     24  N   LIG    1        0.894  -4.272  -2.471  0.00  0.00    -0.520 NA
ATOM     25  C   LIG    1        2.034  -3.616  -2.371  0.00  0.00    +0.320 A 
ATOM     26  C   LIG    1        3.287  -4.235  -2.935  0.00  0.00    +0.180 C 
ATOM     27  N   LIG    1        2.107  -2.433  -1.798  0.00  0.00    -0.510 NA
ENDBRANCH  19  21
ENDBRANCH   2  15
TORSDOF 5
