REMARK  Name = ZINCrg00000BvZ0H.0
REMARK                            x       y       z     vdW  Elec       q    Type
REMARK                         _______ _______ _______ _____ _____    ______ ____
ROOT
ATOM      1  O   LIG    1        1.962   1.327  -2.628  0.00  0.00    -0.510 OA
ATOM      2  C   LIG    1        2.550   0.566  -1.885  0.00  0.00    +0.560 C 
ATOM      3  N   LIG    1        2.352   0.638  -0.553  0.00  0.00    -0.720 N 
ATOM      4  H   LIG    1        2.821   0.031   0.040  0.00  0.00    +0.400 HD
ENDROOT
BRANCH   2   5
ATOM      5  C   LIG    1        3.481  -0.439  -2.440  0.00  0.00    -0.120 A 
ATOM      6  C   LIG    1        4.162  -1.310  -1.588  0.00  0.00    +0.040 A 
ATOM      7  C   LIG    1        5.025  -2.249  -2.114  0.00  0.00    +0.030 A 
ATOM      8  C   LIG    1        5.226  -2.321  -3.481  0.00  0.00    -0.100 A 
ATOM      9  C   LIG    1        4.559  -1.456  -4.330  0.00  0.00    +0.050 A 
ATOM     10  C   LIG    1        3.688  -0.517  -3.818  0.00  0.00    +0.080 A 
BRANCH   8  11
ATOM     11  C   LIG    1        6.176  -3.345  -4.047  0.00  0.00    +0.390 C 
BRANCH  11  12
ATOM     12  N   LIG    1        7.522  -2.772  -4.125  0.00  0.00    -0.290 N 
ATOM     13  C   LIG    1        8.640  -3.296  -3.572  0.00  0.00    +0.140 A 
ATOM     14  C   LIG    1        9.649  -2.452  -3.889  0.00  0.00    +0.140 A 
ATOM     15  N   LIG    1        9.104  -1.461  -4.605  0.00  0.00    -0.270 NA
ATOM     16  N   LIG    1        7.843  -1.680  -4.727  0.00  0.00    -0.080 NA
ENDBRANCH  11  12
ENDBRANCH   8  11
ENDBRANCH   2   5
BRANCH   3  17
ATOM     17  C   LIG    1        1.429   1.634  -0.003  0.00  0.00    +0.260 C 
ATOM     18  C   LIG    1        1.746   1.900   1.490  0.00  0.00    +0.050 C 
ATOM     19  C   LIG    1        0.399   2.438   2.034  0.00  0.00    -0.010 C 
ATOM     20  C   LIG    1       -0.667   1.597   1.303  0.00  0.00    +0.000 C 
ATOM     21  C   LIG    1       -0.013   1.086   0.008  0.00  0.00    +0.150 C 
BRANCH  21  22
ATOM     22  O   LIG    1       -0.730   1.571  -1.129  0.00  0.00    -0.550 OA
ATOM     23  H   LIG    1       -1.647   1.270  -1.173  0.00  0.00    +0.380 HD
ENDBRANCH  21  22
BRANCH  19  24
ATOM     24  C   LIG    1        0.308   2.221   3.546  0.00  0.00    +0.310 C 
BRANCH  24  25
ATOM     25  N   LIG    1       -0.917   2.843   4.056  0.00  0.00    -0.460 N 
ATOM     26  C   LIG    1       -1.047   4.128   4.511  0.00  0.00    +0.110 A 
ATOM     27  C   LIG    1       -2.333   4.282   4.878  0.00  0.00    +0.140 A 
ATOM     28  N   LIG    1       -2.969   3.121   4.661  0.00  0.00    -0.490 NA
ATOM     29  C   LIG    1       -2.127   2.255   4.169  0.00  0.00    +0.380 A 
ENDBRANCH  24  25
ENDBRANCH  19  24
ENDBRANCH   3  17
TORSDOF 7
