REMARK  Name = ZINCkj00000a7BW1.0
REMARK                            x       y       z     vdW  Elec       q    Type
REMARK                         _______ _______ _______ _____ _____    ______ ____
ROOT
ATOM      1  C   LIG    1       -1.185   2.520  -3.075  0.00  0.00    +0.040 A 
ATOM      2  C   LIG    1       -0.174   2.285  -2.189  0.00  0.00    +0.160 A 
ATOM      3  N   LIG    1       -0.721   1.571  -1.179  0.00  0.00    -0.300 N 
ATOM      4  N   LIG    1       -1.968   1.385  -1.439  0.00  0.00    -0.100 NA
ATOM      5  N   LIG    1       -2.282   1.940  -2.556  0.00  0.00    -0.240 NA
ENDROOT
BRANCH   1  10
ATOM      6  C   LIG    1       -0.828   5.420  -8.039  0.00  0.00    +0.100 C 
ATOM      7  C   LIG    1       -0.922   4.661  -6.740  0.00  0.00    -0.070 A 
ATOM      8  C   LIG    1       -2.131   4.120  -6.344  0.00  0.00    +0.010 A 
ATOM      9  C   LIG    1       -2.222   3.424  -5.155  0.00  0.00    +0.050 A 
ATOM     10  C   LIG    1       -1.093   3.268  -4.354  0.00  0.00    -0.030 A 
ATOM     11  C   LIG    1        0.121   3.820  -4.755  0.00  0.00    +0.020 A 
ATOM     12  C   LIG    1        0.202   4.509  -5.948  0.00  0.00    +0.010 A 
ENDBRANCH   1  10
BRANCH   3  13
ATOM     13  C   LIG    1       -0.013   1.086   0.008  0.00  0.00    +0.330 C 
BRANCH  13  14
ATOM     14  C   LIG    1       -0.729   1.579   1.267  0.00  0.00    +0.120 C 
ATOM     15  C   LIG    1       -0.857   3.104   1.218  0.00  0.00    +0.030 C 
ATOM     16  C   LIG    1       -1.501   3.598   2.516  0.00  0.00    +0.280 C 
ATOM     17  N   LIG    1       -0.667   3.210   3.660  0.00  0.00    -0.500 N 
ATOM     18  C   LIG    1       -0.600   1.747   3.754  0.00  0.00    +0.280 C 
ATOM     19  H   LIG    1        0.264   3.581   3.537  0.00  0.00    +0.430 HD
ATOM     20  H   LIG    1       -1.067   3.583   4.508  0.00  0.00    +0.440 HD
ATOM     21  C   LIG    1        0.080   1.182   2.505  0.00  0.00    +0.110 C 
BRANCH  14  22
ATOM     22  O   LIG    1       -2.030   0.992   1.338  0.00  0.00    -0.550 OA
ATOM     23  H   LIG    1       -2.599   1.204   0.585  0.00  0.00    +0.400 HD
ENDBRANCH  14  22
ENDBRANCH  13  14
ENDBRANCH   3  13
TORSDOF 4
