REMARK  Name = ZINCrH000004tGtR.0
REMARK                            x       y       z     vdW  Elec       q    Type
REMARK                         _______ _______ _______ _____ _____    ______ ____
ROOT
ATOM      1  O   LIG    1       -4.148   0.896   3.811  0.00  0.00    -0.500 OA
ATOM      2  C   LIG    1       -4.896   0.641   2.892  0.00  0.00    +0.520 C 
ATOM      3  N   LIG    1       -6.146   0.203   3.141  0.00  0.00    -0.650 N 
ATOM      4  H   LIG    1       -6.744  -0.002   2.406  0.00  0.00    +0.410 HD
ENDROOT
BRANCH   3   5
ATOM      5  C   LIG    1       -6.579   0.043   4.458  0.00  0.00    +0.300 A 
ATOM      6  C   LIG    1       -5.849   0.292   5.580  0.00  0.00    -0.110 A 
ATOM      7  C   LIG    1       -6.655   0.004   6.685  0.00  0.00    +0.250 A 
ATOM      8  N   LIG    1       -7.821  -0.400   6.251  0.00  0.00    -0.280 NA
ATOM      9  N   LIG    1       -7.801  -0.381   4.851  0.00  0.00    -0.380 N 
BRANCH   9  10
ATOM     10  C   LIG    1       -8.909  -0.755   3.968  0.00  0.00    +0.260 C 
ATOM     11  C   LIG    1      -10.111   0.150   4.245  0.00  0.00    +0.020 C 
ATOM     12  C   LIG    1      -11.267  -0.241   3.323  0.00  0.00    +0.010 C 
ATOM     13  C   LIG    1      -11.656  -1.698   3.583  0.00  0.00    +0.020 C 
ATOM     14  C   LIG    1      -10.454  -2.604   3.306  0.00  0.00    +0.010 C 
ATOM     15  C   LIG    1       -9.298  -2.212   4.228  0.00  0.00    +0.020 C 
ENDBRANCH   9  10
ENDBRANCH   3   5
BRANCH   2  16
ATOM     16  C   LIG    1       -4.428   0.813   1.469  0.00  0.00    +0.080 C 
BRANCH  16  17
ATOM     17  C   LIG    1       -2.983   1.317   1.465  0.00  0.00    +0.030 C 
BRANCH  17  18
ATOM     18  C   LIG    1       -2.508   1.492   0.021  0.00  0.00    +0.330 C 
BRANCH  18  19
ATOM     19  N   LIG    1       -1.125   1.975   0.018  0.00  0.00    -0.550 N 
ATOM     20  C   LIG    1       -0.014   1.212   0.009  0.00  0.00    +0.640 A 
ATOM     21  O   LIG    1        1.071   2.002   0.003  0.00  0.00    -0.240 OA
ATOM     22  C   LIG    1        0.677   3.299   0.013  0.00  0.00    +0.030 A 
ATOM     23  C   LIG    1        1.373   4.497   0.011  0.00  0.00    +0.060 A 
ATOM     24  C   LIG    1        0.683   5.694   0.023  0.00  0.00    +0.030 A 
ATOM     25  C   LIG    1       -0.700   5.703   0.036  0.00  0.00    +0.040 A 
ATOM     26  C   LIG    1       -1.403   4.513   0.037  0.00  0.00    +0.030 A 
ATOM     27  O   LIG    1        0.002  -0.004   0.002  0.00  0.00    -0.480 OA
ATOM     28  C   LIG    1       -0.718   3.309   0.025  0.00  0.00    +0.070 A 
ENDBRANCH  18  19
ENDBRANCH  17  18
ENDBRANCH  16  17
ENDBRANCH   2  16
TORSDOF 6
