REMARK  Name = ZINCvU0000000HdM.0
REMARK                            x       y       z     vdW  Elec       q    Type
REMARK                         _______ _______ _______ _____ _____    ______ ____
ROOT
ATOM      1  N   LIG    1        0.402   0.303  -0.728  0.00  0.00    -0.500 NA
ENDROOT
BRANCH   1   2
ATOM      2  C   LIG    1       -0.163   1.551  -0.197  0.00  0.00    +0.220 C 
BRANCH   2   4
ATOM      3  O   LIG    1       -1.931   1.049  -1.677  0.00  0.00    -0.490 OA
ATOM      4  C   LIG    1       -1.466   1.849  -0.893  0.00  0.00    +0.510 C 
ATOM      5  N   LIG    1       -2.114   3.004  -0.644  0.00  0.00    -0.680 N 
ATOM      6  H   LIG    1       -1.694   3.688  -0.101  0.00  0.00    +0.410 HD
BRANCH   5   7
ATOM      7  C   LIG    1       -3.394   3.215  -1.169  0.00  0.00    +0.160 A 
ATOM      8  C   LIG    1       -4.264   2.145  -1.332  0.00  0.00    +0.020 A 
ATOM      9  C   LIG    1       -5.529   2.357  -1.846  0.00  0.00    +0.050 A 
ATOM     10  C   LIG    1       -5.925   3.631  -2.209  0.00  0.00    +0.010 A 
ATOM     11  C   LIG    1       -5.058   4.699  -2.054  0.00  0.00    -0.020 A 
ATOM     12 CL   LIG    1       -5.559   6.297  -2.510  0.00  0.00    -0.060 Cl
ATOM     13  C   LIG    1       -3.793   4.494  -1.535  0.00  0.00    +0.000 A 
ENDBRANCH   5   7
ENDBRANCH   2   4
ENDBRANCH   1   2
BRANCH   1  14
ATOM     14  C   LIG    1        1.400  -0.257   0.194  0.00  0.00    +0.240 C 
BRANCH  14  15
ATOM     15  C   LIG    1        0.698  -0.898   1.364  0.00  0.00    -0.090 A 
ATOM     16  C   LIG    1        0.404  -0.149   2.488  0.00  0.00    +0.040 A 
ATOM     17  C   LIG    1       -0.244  -0.734   3.559  0.00  0.00    -0.030 A 
ATOM     18  C   LIG    1       -0.588  -2.074   3.511  0.00  0.00    +0.100 A 
ATOM     19  C   LIG    1       -0.288  -2.825   2.387  0.00  0.00    -0.010 A 
ATOM     20  F   LIG    1       -1.216  -2.649   4.560  0.00  0.00    -0.140 F 
ATOM     21  C   LIG    1        0.355  -2.236   1.315  0.00  0.00    +0.080 A 
ENDBRANCH  14  15
ENDBRANCH   1  14
BRANCH   1  22
ATOM     22  C   LIG    1        0.978   0.512  -2.063  0.00  0.00    +0.220 C 
BRANCH  22  23
ATOM     23  C   LIG    1        1.323  -0.820  -2.675  0.00  0.00    +0.520 C 
ATOM     24  N   LIG    1        1.869  -0.875  -3.907  0.00  0.00    -0.680 N 
ATOM     25  H   LIG    1        1.989  -0.061  -4.420  0.00  0.00    +0.410 HD
ATOM     26  O   LIG    1        1.111  -1.844  -2.060  0.00  0.00    -0.490 OA
BRANCH  24  27
ATOM     27  C   LIG    1        2.261  -2.106  -4.444  0.00  0.00    +0.160 A 
ATOM     28  C   LIG    1        3.389  -2.186  -5.250  0.00  0.00    -0.010 A 
ATOM     29  C   LIG    1        3.777  -3.403  -5.775  0.00  0.00    +0.050 A 
ATOM     30  C   LIG    1        3.038  -4.540  -5.508  0.00  0.00    +0.010 A 
ATOM     31  C   LIG    1        1.910  -4.464  -4.709  0.00  0.00    -0.020 A 
ATOM     32 CL   LIG    1        0.985  -5.895  -4.375  0.00  0.00    -0.060 Cl
ATOM     33  C   LIG    1        1.520  -3.250  -4.177  0.00  0.00    +0.040 A 
ENDBRANCH  24  27
ENDBRANCH  22  23
ENDBRANCH   1  22
TORSDOF 8
