REMARK  Name = ZINCrg00000SjSxQ.0
REMARK                            x       y       z     vdW  Elec       q    Type
REMARK                         _______ _______ _______ _____ _____    ______ ____
ROOT
ATOM      1  C   LIG    1        0.258   0.683   0.843  0.00  0.00    +0.090 A 
ATOM      2  C   LIG    1        1.451   1.409   0.866  0.00  0.00    -0.100 A 
ATOM      3  C   LIG    1        2.421   1.163  -0.125  0.00  0.00    +0.430 A 
ATOM      4  N   LIG    1        2.212   0.259  -1.069  0.00  0.00    -0.560 NA
ATOM      5  C   LIG    1        1.095  -0.448  -1.124  0.00  0.00    +0.490 A 
ATOM      6  C   LIG    1        0.076  -0.262  -0.170  0.00  0.00    -0.140 A 
ENDROOT
BRANCH   3   7
ATOM      7  N   LIG    1        3.604   1.874  -0.112  0.00  0.00    -0.490 N 
ATOM      8  C   LIG    1        3.736   2.698  -1.321  0.00  0.00    +0.210 C 
ATOM      9  C   LIG    1        4.965   3.604  -1.186  0.00  0.00    +0.290 C 
ATOM     10  N   LIG    1        6.132   2.764  -0.875  0.00  0.00    -0.610 N 
ATOM     11  C   LIG    1        6.027   1.812   0.241  0.00  0.00    +0.310 C 
ATOM     12  C   LIG    1        7.268   2.865  -1.593  0.00  0.00    +0.610 C 
ATOM     13  O   LIG    1        8.181   2.084  -1.400  0.00  0.00    -0.520 OA
ATOM     14  C   LIG    1        4.756   0.977   0.050  0.00  0.00    +0.220 C 
BRANCH  12  15
ATOM     15  C   LIG    1        7.403   3.915  -2.609  0.00  0.00    -0.080 A 
ATOM     16  C   LIG    1        8.434   4.046  -3.495  0.00  0.00    +0.050 A 
ATOM     17  C   LIG    1        8.153   5.179  -4.274  0.00  0.00    -0.060 A 
ATOM     18  C   LIG    1        6.982   5.688  -3.830  0.00  0.00    +0.200 A 
ATOM     19  O   LIG    1        6.534   4.923  -2.827  0.00  0.00    -0.160 OA
ENDBRANCH  12  15
ENDBRANCH   3   7
BRANCH   5  20
ATOM     20  N   LIG    1        0.926  -1.379  -2.129  0.00  0.00    -0.820 N 
ATOM     21  H   LIG    1        1.624  -1.512  -2.789  0.00  0.00    +0.420 HD
ATOM     22  H   LIG    1        0.109  -1.901  -2.175  0.00  0.00    +0.420 HD
ENDBRANCH   5  20
BRANCH   2  23
ATOM     23  C   LIG    1        1.685   2.389   1.883  0.00  0.00    +0.270 C 
ATOM     24  N   LIG    1        1.870   3.167   2.690  0.00  0.00    -0.390 NA
ENDBRANCH   2  23
BRANCH   6  25
ATOM     25  C   LIG    1       -1.130  -1.032  -0.236  0.00  0.00    +0.250 C 
ATOM     26  N   LIG    1       -2.086  -1.643  -0.288  0.00  0.00    -0.390 NA
ENDBRANCH   6  25
BRANCH   1  27
ATOM     27  C   LIG    1       -0.809   0.918   1.881  0.00  0.00    +0.270 C 
BRANCH  27  29
ATOM     28  N   LIG    1       -0.414  -0.673   3.910  0.00  0.00    -0.400 NA
ATOM     29  C   LIG    1       -0.587   0.020   3.026  0.00  0.00    +0.200 C 
ENDBRANCH  27  29
ENDBRANCH   1  27
TORSDOF 7
