REMARK  Name = ZINCtV00000L6kkn.0
REMARK                            x       y       z     vdW  Elec       q    Type
REMARK                         _______ _______ _______ _____ _____    ______ ____
ROOT
ATOM      1  C   LIG    1        9.536  -1.054  -0.092  0.00  0.00    -0.050 A 
ATOM      2  C   LIG    1        9.696   0.321  -0.086  0.00  0.00    +0.040 A 
ATOM      3  C   LIG    1        8.592   1.147  -0.072  0.00  0.00    +0.090 A 
ATOM      4  C   LIG    1        7.310   0.593  -0.063  0.00  0.00    -0.120 A 
ATOM      5  C   LIG    1        7.156  -0.794  -0.063  0.00  0.00    +0.080 A 
ATOM      6  C   LIG    1        8.269  -1.609  -0.083  0.00  0.00    +0.040 A 
ENDROOT
BRANCH   4   7
ATOM      7  C   LIG    1        6.122   1.472  -0.048  0.00  0.00    +0.510 C 
ATOM      8  O   LIG    1        6.260   2.679  -0.043  0.00  0.00    -0.500 OA
BRANCH   7   9
ATOM      9  O   LIG    1        4.887   0.934  -0.039  0.00  0.00    -0.330 OA
BRANCH   9  10
ATOM     10  C   LIG    1        3.767   1.858  -0.024  0.00  0.00    +0.240 C 
BRANCH  10  11
ATOM     11  C   LIG    1        2.475   1.081  -0.015  0.00  0.00    +0.400 C 
ATOM     12  O   LIG    1        2.497  -0.132  -0.022  0.00  0.00    -0.420 OA
BRANCH  11  13
ATOM     13  C   LIG    1        1.188   1.793   0.000  0.00  0.00    -0.170 A 
ATOM     14  C   LIG    1       -0.013   1.076   0.008  0.00  0.00    +0.080 A 
ATOM     15  C   LIG    1       -1.215   1.751   0.017  0.00  0.00    +0.000 A 
ATOM     16  C   LIG    1       -1.236   3.135   0.031  0.00  0.00    +0.050 A 
ATOM     17  C   LIG    1       -0.052   3.852   0.023  0.00  0.00    +0.000 A 
ATOM     18  C   LIG    1        1.158   3.192   0.008  0.00  0.00    +0.050 A 
ENDBRANCH  11  13
ENDBRANCH  10  11
ENDBRANCH   9  10
ENDBRANCH   7   9
ENDBRANCH   4   7
BRANCH   1  19
ATOM     19  C   LIG    1       10.748  -1.950  -0.107  0.00  0.00    +0.240 C 
BRANCH  19  20
ATOM     20  O   LIG    1       11.143  -2.240   1.235  0.00  0.00    -0.310 OA
BRANCH  20  25
ATOM     21  C   LIG    1       15.639  -5.565   1.919  0.00  0.00    +0.100 C 
ATOM     22  C   LIG    1       14.436  -4.675   1.736  0.00  0.00    -0.080 A 
ATOM     23  C   LIG    1       14.598  -3.305   1.650  0.00  0.00    +0.080 A 
ATOM     24  C   LIG    1       13.497  -2.487   1.482  0.00  0.00    -0.100 A 
ATOM     25  C   LIG    1       12.228  -3.042   1.399  0.00  0.00    +0.140 A 
ATOM     26  C   LIG    1       12.068  -4.418   1.491  0.00  0.00    -0.100 A 
ATOM     27 BR   LIG    1       10.340  -5.178   1.387  0.00  0.00    -0.020 Br
ATOM     28 BR   LIG    1       13.719  -0.613   1.365  0.00  0.00    -0.020 Br
ATOM     29  C   LIG    1       13.173  -5.231   1.654  0.00  0.00    +0.080 A 
ENDBRANCH  20  25
ENDBRANCH  19  20
ENDBRANCH   1  19
TORSDOF 8
