REMARK  Name = ZINCkj00000dE7rF.0
REMARK                            x       y       z     vdW  Elec       q    Type
REMARK                         _______ _______ _______ _____ _____    ______ ____
ROOT
ATOM      1  C   LIG    1       -0.016   1.344   0.009  0.00  0.00    +0.580 C 
ATOM      2  N   LIG    1        0.002  -0.004   0.002  0.00  0.00    -0.710 N 
ATOM      3  H   LIG    1       -0.831  -0.500   0.007  0.00  0.00    +0.400 HD
ATOM      4  O   LIG    1        1.029   1.966   0.003  0.00  0.00    -0.520 OA
ENDROOT
BRANCH   2   5
ATOM      5  C   LIG    1        1.281  -0.719  -0.014  0.00  0.00    +0.260 C 
ATOM      6  C   LIG    1        1.817  -0.917   1.420  0.00  0.00    +0.090 C 
ATOM      7  C   LIG    1        2.496  -2.269   1.406  0.00  0.00    -0.080 A 
ATOM      8  C   LIG    1        3.408  -2.825   2.288  0.00  0.00    +0.020 A 
ATOM      9  C   LIG    1        3.902  -4.097   2.072  0.00  0.00    +0.030 A 
ATOM     10  C   LIG    1        3.488  -4.821   0.972  0.00  0.00    -0.010 A 
ATOM     11  C   LIG    1        2.576  -4.269   0.085  0.00  0.00    +0.120 A 
ATOM     12  C   LIG    1        2.079  -2.990   0.303  0.00  0.00    -0.130 A 
ATOM     13  C   LIG    1        1.091  -2.172  -0.500  0.00  0.00    +0.090 C 
BRANCH  11  14
ATOM     14  O   LIG    1        2.167  -4.981  -0.998  0.00  0.00    -0.500 OA
ATOM     15  H   LIG    1        1.385  -5.525  -0.839  0.00  0.00    +0.390 HD
ENDBRANCH  11  14
ENDBRANCH   2   5
BRANCH   1  18
ATOM     16  C   LIG    1       -2.835   3.705   0.037  0.00  0.00    -0.110 A 
ATOM     17  C   LIG    1       -1.506   3.519   0.034  0.00  0.00    +0.090 A 
ATOM     18  C   LIG    1       -1.302   2.063   0.019  0.00  0.00    -0.230 A 
ATOM     19  C   LIG    1       -2.553   1.517   0.023  0.00  0.00    +0.300 A 
ATOM     20  O   LIG    1       -3.447   2.511   0.033  0.00  0.00    -0.160 OA
BRANCH  16  21
ATOM     21  C   LIG    1       -3.530   5.043   0.048  0.00  0.00    +0.410 C 
BRANCH  21  22
ATOM     22  N   LIG    1       -3.762   5.485  -1.333  0.00  0.00    -0.640 N 
ATOM     23  H   LIG    1       -4.340   4.810  -1.810  0.00  0.00    +0.440 HD
ATOM     24  H   LIG    1       -2.878   5.569  -1.813  0.00  0.00    +0.440 HD
ATOM     25  H   LIG    1       -4.227   6.380  -1.326  0.00  0.00    +0.440 HD
ENDBRANCH  21  22
ENDBRANCH  16  21
ENDBRANCH   1  18
TORSDOF 5
