REMARK  Name = ZINCvU0000000Esv.1
REMARK                            x       y       z     vdW  Elec       q    Type
REMARK                         _______ _______ _______ _____ _____    ______ ____
ROOT
ATOM      1  N   LIG    1        0.655   4.220  -1.528  0.00  0.00    -0.520 NA
ATOM      2  C   LIG    1        1.322   3.749  -0.306  0.00  0.00    +0.190 C 
ATOM      3  C   LIG    1        1.078   2.247  -0.142  0.00  0.00    +0.190 C 
ATOM      4  N   LIG    1       -0.368   1.992  -0.081  0.00  0.00    -0.530 NA
ATOM      5  C   LIG    1       -1.035   2.463  -1.303  0.00  0.00    +0.190 C 
ATOM      6  C   LIG    1       -0.791   3.965  -1.467  0.00  0.00    +0.190 C 
ENDROOT
BRANCH   1   7
ATOM      7  C   LIG    1        0.930   5.644  -1.761  0.00  0.00    +0.220 C 
BRANCH   7   9
ATOM      8  O   LIG    1       -0.081   5.203  -3.847  0.00  0.00    -0.490 OA
ATOM      9  C   LIG    1        0.443   6.032  -3.134  0.00  0.00    +0.520 C 
ATOM     10  N   LIG    1        0.590   7.299  -3.568  0.00  0.00    -0.680 N 
ATOM     11  H   LIG    1        0.940   7.979  -2.971  0.00  0.00    +0.410 HD
BRANCH  10  12
ATOM     12  C   LIG    1        0.236   7.634  -4.880  0.00  0.00    +0.170 A 
ATOM     13  C   LIG    1        0.385   6.703  -5.900  0.00  0.00    +0.040 A 
ATOM     14  C   LIG    1        0.031   7.034  -7.194  0.00  0.00    +0.070 A 
ATOM     15  C   LIG    1       -0.462   8.296  -7.476  0.00  0.00    -0.050 A 
ATOM     16  C   LIG    1       -0.606   9.229  -6.462  0.00  0.00    -0.010 A 
ATOM     17 CL   LIG    1       -1.224  10.811  -6.820  0.00  0.00    -0.040 Cl
ATOM     18 CL   LIG    1       -0.899   8.711  -9.104  0.00  0.00    -0.050 Cl
ATOM     19  C   LIG    1       -0.258   8.900  -5.166  0.00  0.00    +0.020 A 
ENDBRANCH  10  12
ENDBRANCH   7   9
ENDBRANCH   1   7
BRANCH   4  20
ATOM     20  C   LIG    1       -0.642   0.568   0.152  0.00  0.00    +0.230 C 
BRANCH  20  21
ATOM     21  C   LIG    1       -2.130   0.355   0.267  0.00  0.00    -0.080 A 
ATOM     22  C   LIG    1       -2.896   1.223   1.022  0.00  0.00    +0.040 A 
ATOM     23  C   LIG    1       -4.261   1.030   1.123  0.00  0.00    +0.000 A 
ATOM     24  C   LIG    1       -4.859  -0.036   0.478  0.00  0.00    +0.000 A 
ATOM     25  C   LIG    1       -4.091  -0.907  -0.273  0.00  0.00    +0.000 A 
ATOM     26  C   LIG    1       -2.727  -0.712  -0.378  0.00  0.00    +0.010 A 
ENDBRANCH  20  21
BRANCH  20  27
ATOM     27  C   LIG    1        0.028   0.130   1.429  0.00  0.00    -0.080 A 
ATOM     28  C   LIG    1       -0.073   0.910   2.565  0.00  0.00    +0.040 A 
ATOM     29  C   LIG    1        0.538   0.506   3.738  0.00  0.00    +0.000 A 
ATOM     30  C   LIG    1        1.258  -0.674   3.771  0.00  0.00    +0.000 A 
ATOM     31  C   LIG    1        1.363  -1.452   2.633  0.00  0.00    +0.000 A 
ATOM     32  C   LIG    1        0.748  -1.050   1.462  0.00  0.00    +0.010 A 
ENDBRANCH  20  27
ENDBRANCH   4  20
TORSDOF 6
