REMARK  Name = ZINCrH000004oT7a.0
REMARK                            x       y       z     vdW  Elec       q    Type
REMARK                         _______ _______ _______ _____ _____    ______ ____
ROOT
ATOM      1  N   LIG    1        7.005  -1.469  -5.980  0.00  0.00    -0.680 N 
ATOM      2  H   LIG    1        7.101  -2.026  -5.192  0.00  0.00    +0.410 HD
ATOM      3  C   LIG    1        6.123  -0.450  -5.981  0.00  0.00    +0.710 C 
ATOM      4  N   LIG    1        5.309  -0.262  -4.924  0.00  0.00    -0.740 N 
ATOM      5  H   LIG    1        5.358  -0.860  -4.162  0.00  0.00    +0.400 HD
ATOM      6  O   LIG    1        6.062   0.300  -6.937  0.00  0.00    -0.570 OA
ENDROOT
BRANCH   1  13
ATOM      7  C   LIG    1        8.569  -1.855 -12.257  0.00  0.00    +0.060 C 
ATOM      8  C   LIG    1        9.908  -1.577 -11.570  0.00  0.00    +0.230 C 
ATOM      9  O   LIG    1       10.076  -2.478 -10.472  0.00  0.00    -0.300 OA
ATOM     10  C   LIG    1        9.321  -2.240  -9.365  0.00  0.00    +0.060 A 
ATOM     11  C   LIG    1        8.874  -3.287  -8.579  0.00  0.00    +0.060 A 
ATOM     12  C   LIG    1        8.111  -3.030  -7.455  0.00  0.00    +0.000 A 
ATOM     13  C   LIG    1        7.783  -1.724  -7.117  0.00  0.00    +0.170 A 
ATOM     14  C   LIG    1        8.230  -0.669  -7.903  0.00  0.00    +0.030 A 
ATOM     15  C   LIG    1        8.999  -0.926  -9.025  0.00  0.00    +0.110 A 
ATOM     16  N   LIG    1        9.461   0.124  -9.831  0.00  0.00    -0.660 N 
ATOM     17  H   LIG    1        9.447   1.038  -9.505  0.00  0.00    +0.420 HD
ATOM     18  C   LIG    1        9.928  -0.156 -11.067  0.00  0.00    +0.500 C 
ATOM     19  O   LIG    1       10.361   0.733 -11.770  0.00  0.00    -0.510 OA
ENDBRANCH   1  13
BRANCH   4  20
ATOM     20  C   LIG    1        4.350   0.846  -4.926  0.00  0.00    +0.340 C 
BRANCH  20  21
ATOM     21  C   LIG    1        3.567   0.835  -3.638  0.00  0.00    -0.150 A 
ATOM     22  C   LIG    1        2.295   0.298  -3.607  0.00  0.00    +0.080 A 
ATOM     23  C   LIG    1        1.578   0.283  -2.425  0.00  0.00    +0.000 A 
ATOM     24  C   LIG    1        2.130   0.815  -1.275  0.00  0.00    -0.010 A 
ATOM     25  C   LIG    1        3.403   1.353  -1.303  0.00  0.00    -0.010 A 
ATOM     26  C   LIG    1        4.123   1.363  -2.485  0.00  0.00    +0.120 A 
ATOM     27  F   LIG    1        5.367   1.889  -2.514  0.00  0.00    -0.130 F 
BRANCH  24  28
ATOM     28  C   LIG    1        1.345   0.803   0.012  0.00  0.00    -0.010 C 
ATOM     29  C   LIG    1        0.009   1.548   0.032  0.00  0.00    +0.040 C 
ATOM     30  C   LIG    1        0.032   0.018   0.031  0.00  0.00    +0.030 C 
ENDBRANCH  24  28
ENDBRANCH  20  21
ENDBRANCH   4  20
TORSDOF 4
