REMARK  Name = ZINCtV000002sQ5X.0
REMARK                            x       y       z     vdW  Elec       q    Type
REMARK                         _______ _______ _______ _____ _____    ______ ____
ROOT
ATOM      1  N   LIG    1       -3.708   2.705  -0.741  0.00  0.00    -0.680 N 
ATOM      2  H   LIG    1       -3.884   3.472  -0.173  0.00  0.00    +0.410 HD
ATOM      3  C   LIG    1       -2.440   2.377  -1.056  0.00  0.00    +0.510 C 
ATOM      4  O   LIG    1       -2.214   1.367  -1.688  0.00  0.00    -0.490 OA
ENDROOT
BRANCH   1  10
ATOM      5  C   LIG    1       -4.885   0.601  -0.883  0.00  0.00    -0.050 A 
ATOM      6  C   LIG    1       -5.939  -0.151  -1.365  0.00  0.00    +0.010 A 
ATOM      7  C   LIG    1       -6.874   0.427  -2.204  0.00  0.00    +0.010 A 
ATOM      8  C   LIG    1       -6.762   1.759  -2.557  0.00  0.00    +0.010 A 
ATOM      9  C   LIG    1       -5.713   2.517  -2.074  0.00  0.00    -0.080 A 
ATOM     10  C   LIG    1       -4.772   1.940  -1.232  0.00  0.00    +0.140 A 
BRANCH   5  12
ATOM     11  C   LIG    1       -4.312   0.115   1.480  0.00  0.00    +0.020 C 
ATOM     12  C   LIG    1       -3.861  -0.031   0.025  0.00  0.00    +0.030 C 
ATOM     13  C   LIG    1       -3.721  -1.515  -0.319  0.00  0.00    +0.030 C 
ENDBRANCH   5  12
BRANCH   9  14
ATOM     14  C   LIG    1       -5.591   3.968  -2.461  0.00  0.00    +0.010 C 
ATOM     15  C   LIG    1       -6.837   4.726  -1.999  0.00  0.00    +0.040 C 
ATOM     16  C   LIG    1       -5.459   4.082  -3.981  0.00  0.00    +0.030 C 
ENDBRANCH   9  14
ENDBRANCH   1  10
BRANCH   3  17
ATOM     17  C   LIG    1       -1.302   3.266  -0.624  0.00  0.00    +0.220 C 
BRANCH  17  18
ATOM     18  N   LIG    1       -0.031   2.694  -1.087  0.00  0.00    -0.520 NA
ATOM     19  C   LIG    1        0.051   2.711  -2.554  0.00  0.00    +0.190 C 
BRANCH  18  20
ATOM     20  C   LIG    1        1.112   3.397  -0.489  0.00  0.00    +0.230 C 
BRANCH  20  21
ATOM     21  C   LIG    1        2.380   2.639  -0.786  0.00  0.00    -0.050 A 
ATOM     22  C   LIG    1        2.824   1.665   0.088  0.00  0.00    +0.040 A 
ATOM     23  C   LIG    1        3.984   0.966  -0.188  0.00  0.00    +0.070 A 
ATOM     24  C   LIG    1        4.707   1.249  -1.332  0.00  0.00    -0.180 A 
ATOM     25  C   LIG    1        4.265   2.227  -2.204  0.00  0.00    +0.070 A 
ATOM     26  C   LIG    1        3.102   2.922  -1.931  0.00  0.00    +0.020 A 
BRANCH  24  27
ATOM     27  C   LIG    1        5.975   0.491  -1.630  0.00  0.00    +0.510 C 
ATOM     28  F   LIG    1        6.153   0.406  -3.015  0.00  0.00    -0.180 F 
ATOM     29  F   LIG    1        5.886  -0.797  -1.091  0.00  0.00    -0.180 F 
ATOM     30  F   LIG    1        7.063   1.161  -1.060  0.00  0.00    -0.180 F 
ENDBRANCH  24  27
ENDBRANCH  20  21
ENDBRANCH  18  20
ENDBRANCH  17  18
ENDBRANCH   3  17
TORSDOF 8
