REMARK  Name = ZINCtV00000oXxUi.0
REMARK                            x       y       z     vdW  Elec       q    Type
REMARK                         _______ _______ _______ _____ _____    ______ ____
ROOT
ATOM      1  C   LIG    1        2.288   0.759   0.497  0.00  0.00    +0.130 A 
ATOM      2  C   LIG    1        1.947  -0.496   0.981  0.00  0.00    -0.020 A 
ATOM      3  C   LIG    1        2.926  -1.331   1.483  0.00  0.00    +0.060 A 
ATOM      4  C   LIG    1        4.244  -0.914   1.513  0.00  0.00    -0.130 A 
ATOM      5  C   LIG    1        4.586   0.338   1.036  0.00  0.00    +0.060 A 
ATOM      6  C   LIG    1        3.611   1.175   0.529  0.00  0.00    -0.080 A 
ENDROOT
BRANCH   4   7
ATOM      7  C   LIG    1        5.309  -1.825   2.066  0.00  0.00    +0.290 C 
ATOM      8  C   LIG    1        5.293  -1.759   3.595  0.00  0.00    +0.020 C 
BRANCH   7   9
ATOM      9  N   LIG    1        5.048  -3.200   1.634  0.00  0.00    -0.740 N 
ATOM     10  H   LIG    1        4.147  -3.474   1.405  0.00  0.00    +0.400 HD
BRANCH   9  11
ATOM     11  C   LIG    1        6.107  -4.124   1.550  0.00  0.00    +0.070 A 
ATOM     12  C   LIG    1        7.410  -3.876   1.840  0.00  0.00    +0.140 A 
ATOM     13  N   LIG    1        8.103  -5.027   1.632  0.00  0.00    -0.380 N 
ATOM     14  N   LIG    1        7.195  -6.003   1.203  0.00  0.00    -0.270 NA
ATOM     15  C   LIG    1        9.544  -5.212   1.822  0.00  0.00    +0.350 C 
ATOM     16  C   LIG    1        6.002  -5.467   1.159  0.00  0.00    +0.050 A 
BRANCH  16  17
ATOM     17  C   LIG    1        4.733  -6.170   0.754  0.00  0.00    +0.070 C 
ATOM     18  C   LIG    1        4.502  -7.403   1.652  0.00  0.00    +0.020 C 
ATOM     19  C   LIG    1        3.906  -8.465   0.695  0.00  0.00    +0.020 C 
ATOM     20  C   LIG    1        4.699  -8.227  -0.615  0.00  0.00    +0.010 C 
ATOM     21  C   LIG    1        4.858  -6.694  -0.688  0.00  0.00    +0.020 C 
ENDBRANCH  16  17
ENDBRANCH   9  11
ENDBRANCH   7   9
ENDBRANCH   4   7
BRANCH   1  22
ATOM     22  O   LIG    1        1.328   1.580  -0.002  0.00  0.00    -0.310 OA
BRANCH  22  24
ATOM     23  C   LIG    1        2.292   2.891  -1.789  0.00  0.00    +0.040 C 
ATOM     24  C   LIG    1        1.730   2.902  -0.366  0.00  0.00    +0.210 C 
BRANCH  24  25
ATOM     25  C   LIG    1        0.540   3.825  -0.303  0.00  0.00    -0.090 A 
ATOM     26  C   LIG    1       -0.713   3.361  -0.658  0.00  0.00    +0.040 A 
ATOM     27  C   LIG    1       -1.806   4.206  -0.597  0.00  0.00    +0.000 A 
ATOM     28  C   LIG    1       -1.644   5.517  -0.189  0.00  0.00    +0.000 A 
ATOM     29  C   LIG    1       -0.390   5.982   0.161  0.00  0.00    +0.010 A 
ATOM     30  C   LIG    1        0.702   5.136   0.103  0.00  0.00    +0.010 A 
ENDBRANCH  24  25
ENDBRANCH  22  24
ENDBRANCH   1  22
TORSDOF 7
