REMARK  Name = ZINCqH0000004WM3.0
REMARK                            x       y       z     vdW  Elec       q    Type
REMARK                         _______ _______ _______ _____ _____    ______ ____
ROOT
ATOM      1  C   LIG    1        3.066   1.820   2.422  0.00  0.00    +0.280 C 
ATOM      2  N   LIG    1        3.014   0.855   1.322  0.00  0.00    -0.600 N 
ATOM      3  C   LIG    1        3.531  -0.379   1.483  0.00  0.00    +0.520 C 
ATOM      4  O   LIG    1        3.488  -1.179   0.572  0.00  0.00    -0.540 OA
ENDROOT
BRANCH   2   5
ATOM      5  C   LIG    1        2.399   1.230   0.047  0.00  0.00    +0.290 C 
ATOM      6  C   LIG    1        2.975   2.573  -0.451  0.00  0.00    +0.040 C 
ATOM      7  C   LIG    1        1.976   3.597   0.128  0.00  0.00    +0.070 C 
ATOM      8  C   LIG    1        0.674   2.840   0.278  0.00  0.00    -0.090 A 
ATOM      9  C   LIG    1       -0.620   3.304   0.443  0.00  0.00    +0.010 A 
ATOM     10  C   LIG    1       -1.668   2.412   0.561  0.00  0.00    +0.020 A 
ATOM     11  C   LIG    1       -1.427   1.052   0.506  0.00  0.00    +0.010 A 
ATOM     12  C   LIG    1       -0.135   0.588   0.349  0.00  0.00    +0.030 A 
ATOM     13  C   LIG    1        0.917   1.480   0.231  0.00  0.00    -0.120 A 
ENDBRANCH   2   5
BRANCH   3  14
ATOM     14  C   LIG    1        4.164  -0.766   2.795  0.00  0.00    +0.040 C 
BRANCH  14  15
ATOM     15  C   LIG    1        4.668  -2.208   2.713  0.00  0.00    +0.370 C 
BRANCH  15  16
ATOM     16  N   LIG    1        5.283  -2.584   3.988  0.00  0.00    -0.550 N 
ATOM     17  C   LIG    1        4.656  -3.145   5.041  0.00  0.00    +0.640 A 
ATOM     18  O   LIG    1        5.539  -3.348   6.031  0.00  0.00    -0.230 OA
ATOM     19  C   LIG    1        6.762  -2.918   5.633  0.00  0.00    +0.050 A 
ATOM     20  C   LIG    1        8.002  -2.892   6.252  0.00  0.00    +0.080 A 
ATOM     21  C   LIG    1        9.099  -2.394   5.574  0.00  0.00    -0.030 A 
ATOM     22  C   LIG    1        8.963  -1.909   4.285  0.00  0.00    +0.070 A 
ATOM     23  C   LIG    1        7.729  -1.927   3.663  0.00  0.00    +0.060 A 
ATOM     24 CL   LIG    1       10.653  -2.369   6.348  0.00  0.00    -0.040 Cl
ATOM     25  O   LIG    1        3.474  -3.425   5.087  0.00  0.00    -0.470 OA
ATOM     26  C   LIG    1        6.627  -2.431   4.333  0.00  0.00    +0.080 A 
ENDBRANCH  15  16
ENDBRANCH  14  15
ENDBRANCH   3  14
TORSDOF 4
