REMARK  Name = ZINCnE000001Tw8z.1
REMARK                            x       y       z     vdW  Elec       q    Type
REMARK                         _______ _______ _______ _____ _____    ______ ____
ROOT
ATOM      1  O   LIG    1       -0.081   7.748   1.259  0.00  0.00    -0.640 OA
ATOM      2  C   LIG    1       -1.038   7.036   1.496  0.00  0.00    +0.660 C 
ATOM      3  N   LIG    1       -1.127   5.816   0.930  0.00  0.00    -0.730 N 
ATOM      4  H   LIG    1       -1.891   5.248   1.119  0.00  0.00    +0.390 HD
ATOM      5  N   LIG    1       -2.011   7.468   2.324  0.00  0.00    -0.680 NA
ENDROOT
BRANCH   5   6
ATOM      6  C   LIG    1       -1.919   8.726   2.907  0.00  0.00    +0.370 A 
ATOM      7  N   LIG    1       -2.797   9.237   3.709  0.00  0.00    -0.570 NA
ATOM      8  C   LIG    1       -2.559  10.450   4.185  0.00  0.00    +0.120 A 
ATOM      9  C   LIG    1       -1.408  10.983   3.735  0.00  0.00    -0.410 A 
ATOM     10  C   LIG    1       -0.900  12.354   4.114  0.00  0.00    +0.310 C 
ATOM     11  O   LIG    1       -1.980  13.078   4.717  0.00  0.00    -0.380 OA
ATOM     12  C   LIG    1       -2.651  12.357   5.754  0.00  0.00    +0.210 C 
ATOM     13  C   LIG    1       -3.466  11.212   5.142  0.00  0.00    +0.090 C 
ATOM     14  S   LIG    1       -0.634   9.827   2.663  0.00  0.00    +0.040 S 
ENDBRANCH   5   6
BRANCH   3  15
ATOM     15  C   LIG    1       -0.070   5.347   0.031  0.00  0.00    +0.330 C 
BRANCH  15  16
ATOM     16  C   LIG    1       -0.050   3.840   0.022  0.00  0.00    -0.070 A 
ATOM     17  C   LIG    1        1.156   3.165   0.008  0.00  0.00    +0.010 A 
ATOM     18  C   LIG    1        1.175   1.783   0.000  0.00  0.00    +0.000 A 
ATOM     19  C   LIG    1       -0.013   1.076   0.008  0.00  0.00    -0.010 A 
ATOM     20  C   LIG    1       -1.219   1.751   0.017  0.00  0.00    +0.000 A 
ATOM     21  C   LIG    1       -1.238   3.133   0.029  0.00  0.00    +0.010 A 
ENDBRANCH  15  16
BRANCH  15  22
ATOM     22  C   LIG    1       -0.340   5.861  -1.385  0.00  0.00    -0.060 C 
ATOM     23  C   LIG    1        0.801   6.583  -2.104  0.00  0.00    -0.010 C 
ATOM     24  C   LIG    1       -0.400   7.377  -1.587  0.00  0.00    +0.030 C 
ENDBRANCH  15  22
ENDBRANCH   3  15
TORSDOF 4
