REMARK  Name = ZINCrH000004lzUe.0
REMARK                            x       y       z     vdW  Elec       q    Type
REMARK                         _______ _______ _______ _____ _____    ______ ____
ROOT
ATOM      1  C   LIG    1        5.984   0.915  -0.215  0.00  0.00    +0.610 C 
ATOM      2  N   LIG    1        6.567   2.118  -0.046  0.00  0.00    -0.660 N 
ATOM      3  H   LIG    1        6.021   2.918   0.010  0.00  0.00    +0.420 HD
ATOM      4  O   LIG    1        6.671  -0.076  -0.381  0.00  0.00    -0.480 OA
ENDROOT
BRANCH   1   6
ATOM      5  C   LIG    1        3.825  -0.358  -0.356  0.00  0.00    -0.070 A 
ATOM      6  C   LIG    1        4.520   0.799  -0.198  0.00  0.00    -0.010 A 
ATOM      7  O   LIG    1        3.662   1.825  -0.021  0.00  0.00    -0.180 OA
ATOM      8  C   LIG    1        2.385   1.395  -0.056  0.00  0.00    +0.070 A 
ATOM      9  C   LIG    1        1.160   2.038   0.072  0.00  0.00    +0.030 A 
ATOM     10  C   LIG    1       -0.008   1.311  -0.009  0.00  0.00    +0.060 A 
ATOM     11  C   LIG    1        0.023  -0.061  -0.219  0.00  0.00    +0.000 A 
ATOM     12  C   LIG    1        1.216  -0.715  -0.347  0.00  0.00    +0.070 A 
ATOM     13  C   LIG    1        2.411   0.004  -0.268  0.00  0.00    -0.130 A 
BRANCH   5  14
ATOM     14  C   LIG    1        4.397  -1.734  -0.579  0.00  0.00    +0.260 C 
BRANCH  14  16
ATOM     15  C   LIG    1        5.083  -3.252  -2.303  0.00  0.00    +0.210 C 
ATOM     16  O   LIG    1        4.545  -1.967  -1.981  0.00  0.00    -0.380 OA
ENDBRANCH  14  16
ENDBRANCH   5  14
ENDBRANCH   1   6
BRANCH   2  17
ATOM     17  C   LIG    1        7.959   2.214   0.048  0.00  0.00    +0.180 A 
ATOM     18  C   LIG    1        8.687   1.195   0.648  0.00  0.00    +0.000 A 
ATOM     19  C   LIG    1       10.063   1.286   0.736  0.00  0.00    +0.070 A 
ATOM     20  C   LIG    1       10.718   2.396   0.239  0.00  0.00    -0.040 A 
ATOM     21  C   LIG    1        9.995   3.422  -0.358  0.00  0.00    +0.200 A 
ATOM     22  C   LIG    1        8.614   3.331  -0.453  0.00  0.00    -0.020 A 
BRANCH  21  23
ATOM     23  N   LIG    1       10.659   4.546  -0.862  0.00  0.00    -0.570 N 
ATOM     24  C   LIG    1       12.113   4.768  -0.826  0.00  0.00    +0.260 C 
ATOM     25  C   LIG    1       12.291   6.139  -1.506  0.00  0.00    +0.260 C 
ATOM     26  O   LIG    1       10.934   6.541  -1.851  0.00  0.00    -0.320 OA
ATOM     27  C   LIG    1       10.075   5.592  -1.462  0.00  0.00    +0.650 C 
ATOM     28  O   LIG    1        8.875   5.673  -1.634  0.00  0.00    -0.500 OA
ENDBRANCH  21  23
ENDBRANCH   2  17
TORSDOF 5
