REMARK  Name = ZINCvU00000004oC.0
REMARK                            x       y       z     vdW  Elec       q    Type
REMARK                         _______ _______ _______ _____ _____    ______ ____
ROOT
ATOM      1  C   LIG    1       -2.524  -2.847   0.012  0.00  0.00    +0.240 C 
ENDROOT
BRANCH   1   2
ATOM      2  C   LIG    1       -3.041  -2.990  -1.421  0.00  0.00    +0.000 C 
ATOM      3  C   LIG    1       -2.010  -3.744  -2.263  0.00  0.00    +0.010 C 
ATOM      4  C   LIG    1       -2.528  -3.887  -3.695  0.00  0.00    +0.000 C 
ATOM      5  C   LIG    1       -2.758  -2.499  -4.295  0.00  0.00    +0.000 C 
ATOM      6  C   LIG    1       -3.789  -1.744  -3.454  0.00  0.00    +0.000 C 
ATOM      7  C   LIG    1       -3.271  -1.601  -2.021  0.00  0.00    +0.030 C 
ENDBRANCH   1   2
BRANCH   1   8
ATOM      8  N   LIG    1       -1.262  -2.103   0.003  0.00  0.00    -0.710 N 
ATOM      9  H   LIG    1       -0.417  -2.581  -0.008  0.00  0.00    +0.410 HD
ATOM     10  C   LIG    1       -1.273  -0.755   0.011  0.00  0.00    +0.570 C 
ATOM     11  O   LIG    1       -2.331  -0.157   0.024  0.00  0.00    -0.500 OA
BRANCH  10  12
ATOM     12  C   LIG    1        0.002  -0.004   0.002  0.00  0.00    +0.090 A 
ATOM     13  N   LIG    1        1.154  -0.663  -0.013  0.00  0.00    -0.430 NA
ATOM     14  C   LIG    1        2.309  -0.035  -0.020  0.00  0.00    +0.300 A 
ATOM     15  C   LIG    1        2.366   1.351  -0.013  0.00  0.00    -0.060 A 
ATOM     16  C   LIG    1        1.186   2.080   0.002  0.00  0.00    +0.090 A 
ATOM     17 CL   LIG    1        3.900   2.165  -0.024  0.00  0.00    -0.030 Cl
ATOM     18  C   LIG    1       -0.017   1.391   0.010  0.00  0.00    -0.030 A 
ATOM     19 CL   LIG    1       -1.525   2.251   0.021  0.00  0.00    +0.000 Cl
ENDBRANCH  10  12
ENDBRANCH   1   8
BRANCH   1  20
ATOM     20  C   LIG    1       -2.294  -4.235   0.612  0.00  0.00    +0.280 C 
BRANCH  20  23
ATOM     21  O   LIG    1       -1.631  -6.304   2.210  0.00  0.00    -0.520 OA
ATOM     22  C   LIG    1       -1.392  -5.199   2.660  0.00  0.00    +0.590 C 
ATOM     23  N   LIG    1       -1.687  -4.100   1.938  0.00  0.00    -0.730 N 
ATOM     24  H   LIG    1       -1.497  -3.219   2.297  0.00  0.00    +0.400 HD
BRANCH  22  25
ATOM     25  C   LIG    1       -0.785  -5.063   3.987  0.00  0.00    -0.280 A 
ATOM     26  C   LIG    1       -0.442  -6.098   4.812  0.00  0.00    +0.110 A 
ATOM     27  C   LIG    1        0.112  -5.685   6.000  0.00  0.00    +0.000 A 
ATOM     28  C   LIG    1        0.220  -4.359   6.146  0.00  0.00    -0.180 A 
ATOM     29  S   LIG    1       -0.374  -3.544   4.770  0.00  0.00    +0.200 S 
BRANCH  28  30
ATOM     30  C   LIG    1        0.794  -3.678   7.362  0.00  0.00    +0.150 C 
BRANCH  30  31
ATOM     31  C   LIG    1        2.301  -3.488   7.176  0.00  0.00    -0.040 C 
ATOM     32  C   LIG    1        3.230  -4.222   8.145  0.00  0.00    +0.020 C 
ATOM     33  C   LIG    1        3.053  -2.706   8.254  0.00  0.00    +0.020 C 
ENDBRANCH  30  31
ENDBRANCH  28  30
ENDBRANCH  22  25
ENDBRANCH  20  23
ENDBRANCH   1  20
TORSDOF 8
