REMARK  Name = ZINCnE00000j9P2Z.0
REMARK                            x       y       z     vdW  Elec       q    Type
REMARK                         _______ _______ _______ _____ _____    ______ ____
ROOT
ATOM      1  C   LIG    1        2.373   1.413  -0.009  0.00  0.00    +0.120 A 
ATOM      2  C   LIG    1        1.391   1.706   0.934  0.00  0.00    -0.050 A 
ATOM      3  C   LIG    1        0.217   1.007   0.940  0.00  0.00    +0.080 A 
ATOM      4  C   LIG    1        0.002  -0.004  -0.003  0.00  0.00    -0.130 A 
ATOM      5  C   LIG    1        0.991  -0.295  -0.950  0.00  0.00    +0.100 A 
ATOM      6  C   LIG    1        2.162   0.407  -0.950  0.00  0.00    -0.180 A 
ENDROOT
BRANCH   1  12
ATOM      7  C   LIG    1        6.363   4.156   2.906  0.00  0.00    +0.130 C 
ATOM      8  C   LIG    1        4.899   3.690   3.006  0.00  0.00    +0.040 C 
ATOM      9  C   LIG    1        5.049   3.197   1.567  0.00  0.00    -0.080 C 
ATOM     10  C   LIG    1        4.632   4.200   0.479  0.00  0.00    +0.070 C 
ATOM     11  C   LIG    1        3.311   3.589  -0.059  0.00  0.00    +0.170 C 
ATOM     12  N   LIG    1        3.566   2.125  -0.012  0.00  0.00    -0.480 N 
ATOM     13  C   LIG    1        4.330   1.886   1.235  0.00  0.00    +0.190 C 
ATOM     14  C   LIG    1        6.552   3.086   1.816  0.00  0.00    +0.030 C 
BRANCH   7  16
ATOM     15  C   LIG    1        7.659   6.172   2.931  0.00  0.00    +0.200 C 
ATOM     16  O   LIG    1        6.506   5.494   2.427  0.00  0.00    -0.370 OA
ENDBRANCH   7  16
ENDBRANCH   1  12
BRANCH   6  17
ATOM     17  C   LIG    1        3.228   0.094  -1.968  0.00  0.00    +0.520 C 
ATOM     18  F   LIG    1        4.363  -0.402  -1.318  0.00  0.00    -0.180 F 
ATOM     19  F   LIG    1        3.563   1.260  -2.666  0.00  0.00    -0.170 F 
ATOM     20  F   LIG    1        2.747  -0.865  -2.866  0.00  0.00    -0.180 F 
ENDBRANCH   6  17
BRANCH   4  21
ATOM     21  C   LIG    1       -1.261  -0.759   0.000  0.00  0.00    +0.520 C 
ATOM     22  O   LIG    1       -2.124  -0.503   0.828  0.00  0.00    -0.680 OA
ATOM     23  O   LIG    1       -1.448  -1.643  -0.825  0.00  0.00    -0.680 OA
ENDBRANCH   4  21
TORSDOF 4
