REMARK  Name = ZINCqH0000000vwk.0
REMARK                            x       y       z     vdW  Elec       q    Type
REMARK                         _______ _______ _______ _____ _____    ______ ____
ROOT
ATOM      1  C   LIG    1       -1.167  -2.160   0.701  0.00  0.00    +0.300 C 
ENDROOT
BRANCH   1   2
ATOM      2  N   LIG    1       -2.484  -2.719   1.017  0.00  0.00    -0.540 N 
ATOM      3  C   LIG    1       -2.863  -2.857   2.314  0.00  0.00    +0.600 A 
ATOM      4  N   LIG    1       -4.014  -3.338   2.675  0.00  0.00    -0.510 NA
ATOM      5  C   LIG    1       -4.929  -3.752   1.762  0.00  0.00    +0.170 A 
ATOM      6  C   LIG    1       -6.165  -4.275   2.150  0.00  0.00    -0.020 A 
ATOM      7  C   LIG    1       -7.065  -4.683   1.190  0.00  0.00    +0.100 A 
ATOM      8  C   LIG    1       -6.757  -4.583  -0.161  0.00  0.00    -0.050 A 
ATOM      9  C   LIG    1       -5.543  -4.070  -0.568  0.00  0.00    +0.130 A 
ATOM     10 CL   LIG    1       -7.911  -5.106  -1.348  0.00  0.00    -0.040 Cl
ATOM     11 CL   LIG    1       -6.566  -4.409   3.834  0.00  0.00    -0.020 Cl
ATOM     12  C   LIG    1       -4.620  -3.652   0.388  0.00  0.00    -0.170 A 
ATOM     13  C   LIG    1       -3.310  -3.097   0.013  0.00  0.00    +0.560 A 
ATOM     14  O   LIG    1       -2.982  -2.984  -1.153  0.00  0.00    -0.500 OA
ENDBRANCH   1   2
BRANCH   1  15
ATOM     15  C   LIG    1       -1.276  -0.664   0.561  0.00  0.00    +0.410 C 
ATOM     16  O   LIG    1       -2.350  -0.117   0.712  0.00  0.00    -0.430 OA
BRANCH  15  21
ATOM     17  C   LIG    1        1.253   1.811  -0.196  0.00  0.00    -0.260 A 
ATOM     18  C   LIG    1        1.979   0.628  -0.211  0.00  0.00    +0.120 A 
ATOM     19  N   LIG    1        1.148  -0.388   0.060  0.00  0.00    -0.520 N 
ATOM     20  H   LIG    1        1.403  -1.322   0.110  0.00  0.00    +0.420 HD
ATOM     21  C   LIG    1       -0.127   0.104   0.256  0.00  0.00    -0.100 A 
ATOM     22  C   LIG    1        3.456   0.507  -0.485  0.00  0.00    +0.160 C 
ATOM     23  C   LIG    1       -0.086   1.472   0.101  0.00  0.00    -0.000 A 
ATOM     24  C   LIG    1       -1.248   2.425   0.220  0.00  0.00    +0.140 C 
BRANCH  17  26
ATOM     25  C   LIG    1        1.891   3.675  -1.854  0.00  0.00    +0.080 C 
ATOM     26  C   LIG    1        1.778   3.158  -0.443  0.00  0.00    +0.430 C 
ATOM     27  O   LIG    1        2.120   3.856   0.488  0.00  0.00    -0.450 OA
ENDBRANCH  17  26
ENDBRANCH  15  21
ENDBRANCH   1  15
TORSDOF 4
