REMARK  Name = ZINCvU00000007s2.0
REMARK                            x       y       z     vdW  Elec       q    Type
REMARK                         _______ _______ _______ _____ _____    ______ ____
ROOT
ATOM      1  N   LIG    1        1.497   2.468  -0.101  0.00  0.00    -0.520 N 
ATOM      2  C   LIG    1        0.213   2.069  -0.294  0.00  0.00    +0.600 A 
ATOM      3  N   LIG    1       -0.771   2.917  -0.328  0.00  0.00    -0.500 NA
ATOM      4  C   LIG    1       -0.571   4.244  -0.163  0.00  0.00    +0.080 A 
ATOM      5  C   LIG    1        0.718   4.722   0.038  0.00  0.00    -0.220 A 
ATOM      6  C   LIG    1        0.751   6.171   0.190  0.00  0.00    +0.030 A 
ATOM      7  C   LIG    1       -0.444   6.759   0.109  0.00  0.00    -0.040 A 
ATOM      8  S   LIG    1       -1.713   5.581  -0.161  0.00  0.00    +0.220 S 
ATOM      9  C   LIG    1        1.785   3.774   0.067  0.00  0.00    +0.560 A 
ATOM     10  O   LIG    1        2.935   4.138   0.239  0.00  0.00    -0.500 OA
ENDROOT
BRANCH   6  11
ATOM     11  C   LIG    1        2.002   6.925   0.415  0.00  0.00    -0.140 A 
ATOM     12  C   LIG    1        2.394   8.008  -0.284  0.00  0.00    +0.020 A 
ATOM     13  C   LIG    1        3.603   8.544   0.113  0.00  0.00    -0.010 A 
ATOM     14  C   LIG    1        4.202   7.904   1.121  0.00  0.00    -0.190 A 
ATOM     15  C   LIG    1        5.526   8.290   1.728  0.00  0.00    +0.150 C 
ATOM     16  S   LIG    1        3.213   6.543   1.632  0.00  0.00    +0.180 S 
ENDBRANCH   6  11
BRANCH   1  17
ATOM     17  C   LIG    1        2.573   1.475  -0.075  0.00  0.00    +0.330 C 
BRANCH  17  18
ATOM     18  C   LIG    1        3.108   1.278  -1.470  0.00  0.00    +0.420 C 
ATOM     19  O   LIG    1        2.637   1.906  -2.395  0.00  0.00    -0.460 OA
BRANCH  18  23
ATOM     20  N   LIG    1        5.751  -0.886  -2.704  0.00  0.00    -0.430 N 
ATOM     21  C   LIG    1        5.804  -1.215  -1.381  0.00  0.00    +0.010 A 
ATOM     22  C   LIG    1        4.878  -0.507  -0.712  0.00  0.00    +0.000 A 
ATOM     23  C   LIG    1        4.197   0.329  -1.710  0.00  0.00    -0.270 A 
ATOM     24  C   LIG    1        6.751  -2.214  -0.766  0.00  0.00    +0.120 C 
ATOM     25  C   LIG    1        4.792   0.032  -2.922  0.00  0.00    +0.120 A 
ATOM     26  C   LIG    1        4.431   0.634  -4.255  0.00  0.00    +0.150 C 
BRANCH  20  27
ATOM     27  C   LIG    1        6.612  -1.457  -3.743  0.00  0.00    +0.230 C 
ATOM     28  C   LIG    1        8.058  -1.015  -3.506  0.00  0.00    +0.070 C 
BRANCH  27  29
ATOM     29  C   LIG    1        6.530  -2.984  -3.691  0.00  0.00    +0.180 C 
BRANCH  29  31
ATOM     30  C   LIG    1        7.266  -4.966  -4.819  0.00  0.00    +0.200 C 
ATOM     31  O   LIG    1        7.278  -3.538  -4.775  0.00  0.00    -0.390 OA
ENDBRANCH  29  31
ENDBRANCH  27  29
ENDBRANCH  20  27
ENDBRANCH  18  23
ENDBRANCH  17  18
ENDBRANCH   1  17
TORSDOF 7
