REMARK  Name = ZINCrD000000DeH0.0
REMARK                            x       y       z     vdW  Elec       q    Type
REMARK                         _______ _______ _______ _____ _____    ______ ____
ROOT
ATOM      1  N   LIG    1        1.545   0.215   3.152  0.00  0.00    -0.510 NA
ENDROOT
BRANCH   1   2
ATOM      2  C   LIG    1        2.978   0.145   3.469  0.00  0.00    +0.170 C 
BRANCH   2   3
ATOM      3  C   LIG    1        3.333  -1.276   3.911  0.00  0.00    +0.320 C 
BRANCH   3   4
ATOM      4  C   LIG    1        4.798  -1.342   4.259  0.00  0.00    -0.050 A 
ATOM      5  C   LIG    1        5.315  -1.296   5.500  0.00  0.00    -0.040 A 
ATOM      6  C   LIG    1        6.719  -1.391   5.363  0.00  0.00    -0.060 A 
ATOM      7  C   LIG    1        6.977  -1.482   4.045  0.00  0.00    +0.170 A 
ATOM      8  O   LIG    1        5.810  -1.451   3.382  0.00  0.00    -0.170 OA
ENDBRANCH   3   4
BRANCH   3   9
ATOM      9  O   LIG    1        3.054  -2.190   2.848  0.00  0.00    -0.540 OA
ATOM     10  H   LIG    1        3.549  -2.011   2.037  0.00  0.00    +0.380 HD
ENDBRANCH   3   9
ENDBRANCH   2   3
ENDBRANCH   1   2
BRANCH   1  11
ATOM     11  C   LIG    1        1.235   1.428   2.383  0.00  0.00    +0.300 C 
BRANCH  11  12
ATOM     12  C   LIG    1       -0.179   1.348   1.868  0.00  0.00    +0.180 A 
ATOM     13  N   LIG    1       -1.253   1.773   2.479  0.00  0.00    -0.290 NA
ATOM     14  N   LIG    1       -2.287   1.550   1.745  0.00  0.00    -0.290 NA
ATOM     15  C   LIG    1       -1.918   0.980   0.633  0.00  0.00    +0.180 A 
ATOM     16  C   LIG    1       -2.800   0.566  -0.515  0.00  0.00    +0.150 C 
ATOM     17  C   LIG    1       -2.433  -0.859  -0.941  0.00  0.00    +0.030 C 
ATOM     18  C   LIG    1       -1.317  -0.809  -1.981  0.00  0.00    +0.020 C 
ATOM     19  C   LIG    1       -0.382   0.367  -1.707  0.00  0.00    +0.030 C 
ATOM     20  C   LIG    1        0.271   0.198  -0.332  0.00  0.00    +0.300 C 
ATOM     21  N   LIG    1       -0.574   0.823   0.687  0.00  0.00    -0.450 N 
ENDBRANCH  11  12
ENDBRANCH   1  11
BRANCH   1  22
ATOM     22  C   LIG    1        0.732   0.143   4.373  0.00  0.00    +0.280 C 
BRANCH  22  23
ATOM     23  C   LIG    1        1.111   1.271   5.297  0.00  0.00    -0.130 A 
ATOM     24  C   LIG    1        2.085   1.079   6.259  0.00  0.00    +0.010 A 
ATOM     25  C   LIG    1        2.437   2.115   7.103  0.00  0.00    +0.000 A 
ATOM     26  C   LIG    1        1.807   3.341   6.992  0.00  0.00    +0.000 A 
ATOM     27  C   LIG    1        0.830   3.532   6.034  0.00  0.00    +0.000 A 
ATOM     28  C   LIG    1        0.482   2.497   5.186  0.00  0.00    +0.030 A 
ENDBRANCH  22  23
ENDBRANCH   1  22
TORSDOF 8
