REMARK  Name = ZINCpk00000y6tFf.0
REMARK                            x       y       z     vdW  Elec       q    Type
REMARK                         _______ _______ _______ _____ _____    ______ ____
ROOT
ATOM      1  N   LIG    1        3.255  -0.269   3.911  0.00  0.00    -0.720 N 
ATOM      2  H   LIG    1        4.016   0.311   3.749  0.00  0.00    +0.400 HD
ATOM      3  C   LIG    1        3.086  -0.836   5.122  0.00  0.00    +0.580 C 
ATOM      4  O   LIG    1        2.133  -1.563   5.325  0.00  0.00    -0.530 OA
ENDROOT
BRANCH   3   5
ATOM      5  C   LIG    1        4.057  -0.575   6.200  0.00  0.00    -0.190 A 
ATOM      6  C   LIG    1        5.082   0.356   6.013  0.00  0.00    +0.110 A 
ATOM      7  C   LIG    1        5.985   0.600   7.026  0.00  0.00    -0.080 A 
ATOM      8  C   LIG    1        5.888  -0.081   8.229  0.00  0.00    +0.080 A 
ATOM      9  C   LIG    1        4.884  -1.009   8.428  0.00  0.00    +0.030 A 
ATOM     10  F   LIG    1        4.797  -1.669   9.604  0.00  0.00    -0.130 F 
ATOM     11 CL   LIG    1        7.253   1.763   6.791  0.00  0.00    -0.050 Cl
ATOM     12  C   LIG    1        3.961  -1.264   7.418  0.00  0.00    +0.260 A 
BRANCH  12  13
ATOM     13  N   LIG    1        2.949  -2.197   7.616  0.00  0.00    -0.840 N 
ATOM     14  H   LIG    1        2.660  -2.416   8.516  0.00  0.00    +0.400 HD
ATOM     15  H   LIG    1        2.531  -2.628   6.854  0.00  0.00    +0.420 HD
ENDBRANCH  12  13
ENDBRANCH   3   5
BRANCH   1  17
ATOM     16  C   LIG    1        2.284   0.623   1.811  0.00  0.00    +0.310 C 
ATOM     17  C   LIG    1        2.290  -0.529   2.840  0.00  0.00    +0.280 C 
ATOM     18  C   LIG    1        2.738  -1.726   1.970  0.00  0.00    +0.070 C 
ATOM     19  C   LIG    1        3.508  -1.091   0.833  0.00  0.00    +0.520 C 
ATOM     20  O   LIG    1        4.259  -1.683   0.087  0.00  0.00    -0.510 OA
ATOM     21  N   LIG    1        3.239   0.224   0.770  0.00  0.00    -0.630 N 
ATOM     22  C   LIG    1        3.824   1.142  -0.210  0.00  0.00    +0.320 C 
BRANCH  16  28
ATOM     23  C   LIG    1        1.243  -0.613  -0.835  0.00  0.00    +0.340 C 
ATOM     24  N   LIG    1        0.467   0.242   0.066  0.00  0.00    -0.350 N 
ATOM     25  N   LIG    1       -0.862   0.644  -0.120  0.00  0.00    -0.290 NA
ATOM     26  C   LIG    1       -1.208   1.396   0.893  0.00  0.00    +0.240 A 
ATOM     27  C   LIG    1       -0.109   1.505   1.751  0.00  0.00    -0.100 A 
ATOM     28  C   LIG    1        0.907   0.787   1.220  0.00  0.00    +0.060 A 
ENDBRANCH  16  28
ENDBRANCH   1  17
TORSDOF 4
