REMARK  Name = ZINCpe000000Yqmo.1
REMARK                            x       y       z     vdW  Elec       q    Type
REMARK                         _______ _______ _______ _____ _____    ______ ____
ROOT
ATOM      1  N   LIG    1        3.683   1.756  -1.781  0.00  0.00    -0.650 NA
ATOM      2  H   LIG    1        4.139   2.132  -0.963  0.00  0.00    +0.360 HD
ENDROOT
BRANCH   1   3
ATOM      3  C   LIG    1        4.668   1.359  -2.796  0.00  0.00    +0.280 C 
BRANCH   3  13
ATOM      4  C   LIG    1        5.147   6.571  -1.294  0.00  0.00    +0.370 C 
ATOM      5  N   LIG    1        6.064   6.032  -2.301  0.00  0.00    -0.350 N 
ATOM      6  N   LIG    1        7.087   6.742  -2.942  0.00  0.00    -0.270 NA
ATOM      7  C   LIG    1        7.706   5.954  -3.778  0.00  0.00    +0.330 A 
ATOM      8  C   LIG    1        7.104   4.683  -3.716  0.00  0.00    -0.350 A 
ATOM      9  C   LIG    1        7.332   3.405  -4.389  0.00  0.00    +0.580 A 
ATOM     10  O   LIG    1        8.217   3.275  -5.217  0.00  0.00    -0.520 OA
ATOM     11  N   LIG    1        6.526   2.370  -4.055  0.00  0.00    -0.650 N 
ATOM     12  H   LIG    1        6.650   1.506  -4.478  0.00  0.00    +0.420 HD
ATOM     13  C   LIG    1        5.544   2.537  -3.134  0.00  0.00    +0.430 A 
ATOM     14  N   LIG    1        5.327   3.666  -2.526  0.00  0.00    -0.500 NA
ATOM     15  C   LIG    1        6.067   4.759  -2.774  0.00  0.00    +0.340 A 
ENDBRANCH   3  13
ENDBRANCH   1   3
BRANCH   1  16
ATOM     16  CA  LIG    1        2.809   0.630  -1.426  0.00  0.00    +0.160 C 
BRANCH  16  17
ATOM     17  C   LIG    1        2.255   0.840  -0.015  0.00  0.00    +0.030 C 
ATOM     18  C   LIG    1        1.435  -0.391   0.426  0.00  0.00    +0.040 C 
ATOM     19  C   LIG    1        0.002  -0.004   0.002  0.00  0.00    +0.070 C 
ATOM     20  C   LIG    1       -0.018   1.509   0.010  0.00  0.00    -0.070 A 
ATOM     21  C   LIG    1       -1.085   2.392   0.020  0.00  0.00    -0.010 A 
ATOM     22  C   LIG    1       -0.859   3.755   0.031  0.00  0.00    -0.010 A 
ATOM     23  C   LIG    1        0.435   4.240   0.021  0.00  0.00    -0.010 A 
ATOM     24  C   LIG    1        1.500   3.361   0.006  0.00  0.00    +0.030 A 
ATOM     25  C   LIG    1        1.276   1.994   0.001  0.00  0.00    -0.040 A 
ENDBRANCH  16  17
BRANCH  16  26
ATOM     26  C   LIG    1        1.651   0.549  -2.422  0.00  0.00    +0.170 C 
BRANCH  26  27
ATOM     27  O   LIG    1        0.834   1.715  -2.298  0.00  0.00    -0.530 OA
ATOM     28  H   LIG    1        0.079   1.732  -2.902  0.00  0.00    +0.360 HD
ENDBRANCH  26  27
ENDBRANCH  16  26
ENDBRANCH   1  16
TORSDOF 6
