REMARK  Name = ZINCrH00000tj1qy.0
REMARK                            x       y       z     vdW  Elec       q    Type
REMARK                         _______ _______ _______ _____ _____    ______ ____
ROOT
ATOM      1  O   LIG    1       -1.359  -0.901  -0.098  0.00  0.00    -0.480 OA
ATOM      2  C   LIG    1       -2.414  -0.303  -0.090  0.00  0.00    +0.520 C 
ATOM      3  N   LIG    1       -2.428   1.040   0.019  0.00  0.00    -0.670 N 
ATOM      4  H   LIG    1       -3.271   1.511   0.107  0.00  0.00    +0.420 HD
ENDROOT
BRANCH   3   5
ATOM      5  C   LIG    1       -1.224   1.755   0.006  0.00  0.00    +0.240 A 
ATOM      6  C   LIG    1       -0.102   1.218  -0.610  0.00  0.00    +0.050 A 
ATOM      7  C   LIG    1        1.082   1.928  -0.626  0.00  0.00    +0.160 A 
ATOM      8  C   LIG    1        1.153   3.171  -0.024  0.00  0.00    -0.060 A 
ATOM      9  C   LIG    1        0.039   3.708   0.595  0.00  0.00    +0.170 A 
ATOM     10  C   LIG    1       -1.149   3.002   0.615  0.00  0.00    -0.140 A 
ATOM     11 BR   LIG    1       -2.672   3.736   1.462  0.00  0.00    -0.010 Br
BRANCH   8  12
ATOM     12  N   LIG    1        2.424   3.930  -0.044  0.00  0.00    +0.030 N 
ATOM     13  O   LIG    1        2.488   5.025   0.485  0.00  0.00    -0.160 OA
ATOM     14  O   LIG    1        3.406   3.459  -0.590  0.00  0.00    -0.150 OA
ENDBRANCH   8  12
ENDBRANCH   3   5
BRANCH   2  15
ATOM     15  C   LIG    1       -3.711  -1.063  -0.202  0.00  0.00    +0.240 C 
BRANCH  15  16
ATOM     16  N   LIG    1       -3.429  -2.500  -0.308  0.00  0.00    -0.520 NA
ATOM     17  C   LIG    1       -2.737  -2.809  -1.567  0.00  0.00    +0.190 C 
ATOM     18  C   LIG    1       -2.391  -4.300  -1.604  0.00  0.00    +0.210 C 
ATOM     19  N   LIG    1       -3.624  -5.089  -1.476  0.00  0.00    -0.490 N 
ATOM     20  C   LIG    1       -4.316  -4.780  -0.217  0.00  0.00    +0.200 C 
ATOM     21  C   LIG    1       -4.662  -3.290  -0.181  0.00  0.00    +0.200 C 
BRANCH  19  22
ATOM     22  C   LIG    1       -3.356  -6.456  -1.577  0.00  0.00    +0.120 A 
ATOM     23  C   LIG    1       -2.704  -6.957  -2.698  0.00  0.00    -0.010 A 
ATOM     24  C   LIG    1       -2.440  -8.309  -2.796  0.00  0.00    +0.060 A 
ATOM     25  C   LIG    1       -2.823  -9.165  -1.780  0.00  0.00    -0.010 A 
ATOM     26  C   LIG    1       -3.472  -8.670  -0.662  0.00  0.00    -0.010 A 
ATOM     27 CL   LIG    1       -3.951  -9.749   0.611  0.00  0.00    -0.070 Cl
ATOM     28  C   LIG    1       -3.734  -7.318  -0.556  0.00  0.00    -0.020 A 
ENDBRANCH  19  22
ENDBRANCH  15  16
ENDBRANCH   2  15
TORSDOF 5
