REMARK  Name = ZINCpe000000YyyP.0
REMARK                            x       y       z     vdW  Elec       q    Type
REMARK                         _______ _______ _______ _____ _____    ______ ____
ROOT
ATOM      1  N   LIG    1       -3.472   3.901   0.096  0.00  0.00    -0.690 N 
ATOM      2  H   LIG    1       -3.107   3.064   0.423  0.00  0.00    +0.420 HD
ATOM      3  C   LIG    1       -2.672   4.786  -0.531  0.00  0.00    +0.570 C 
ATOM      4  O   LIG    1       -3.130   5.835  -0.941  0.00  0.00    -0.530 OA
ENDROOT
BRANCH   3   5
ATOM      5  C   LIG    1       -1.240   4.482  -0.720  0.00  0.00    -0.130 A 
ATOM      6  C   LIG    1       -0.713   3.274  -0.255  0.00  0.00    +0.070 A 
ATOM      7  C   LIG    1        0.624   2.996  -0.429  0.00  0.00    +0.010 A 
ATOM      8  C   LIG    1        1.448   3.910  -1.076  0.00  0.00    +0.110 A 
ATOM      9  C   LIG    1        0.926   5.110  -1.545  0.00  0.00    +0.010 A 
ATOM     10  C   LIG    1       -0.409   5.398  -1.370  0.00  0.00    +0.110 A 
BRANCH   8  11
ATOM     11  O   LIG    1        2.764   3.630  -1.251  0.00  0.00    -0.250 OA
BRANCH  11  12
ATOM     12  C   LIG    1        3.110   2.797  -2.268  0.00  0.00    +0.140 A 
ATOM     13  C   LIG    1        2.138   2.318  -3.134  0.00  0.00    -0.030 A 
ATOM     14  C   LIG    1        2.490   1.477  -4.172  0.00  0.00    +0.070 A 
ATOM     15  C   LIG    1        3.812   1.101  -4.341  0.00  0.00    +0.040 A 
ATOM     16  C   LIG    1        4.785   1.574  -3.473  0.00  0.00    +0.110 A 
ATOM     17  F   LIG    1        6.074   1.208  -3.640  0.00  0.00    -0.120 F 
ATOM     18  F   LIG    1        4.154   0.274  -5.353  0.00  0.00    -0.130 F 
ATOM     19  C   LIG    1        4.434   2.421  -2.438  0.00  0.00    +0.010 A 
ENDBRANCH  11  12
ENDBRANCH   8  11
ENDBRANCH   3   5
BRANCH   1  20
ATOM     20  C   LIG    1       -4.893   4.204   0.284  0.00  0.00    +0.250 C 
BRANCH  20  24
ATOM     21  N   LIG    1       -6.965   2.871   0.058  0.00  0.00    -0.840 N 
ATOM     22  H   LIG    1       -7.441   2.026   0.071  0.00  0.00    +0.410 HD
ATOM     23  H   LIG    1       -7.422   3.682  -0.215  0.00  0.00    +0.400 HD
ATOM     24  C   LIG    1       -5.667   2.917   0.418  0.00  0.00    +0.520 C 
ATOM     25  O   LIG    1       -5.121   1.924   0.850  0.00  0.00    -0.510 OA
ENDBRANCH  20  24
BRANCH  20  26
ATOM     26  C   LIG    1       -5.070   5.029   1.532  0.00  0.00    +0.510 C 
ATOM     27  O   LIG    1       -4.203   5.040   2.380  0.00  0.00    -0.510 OA
ATOM     28  N   LIG    1       -6.192   5.755   1.706  0.00  0.00    -0.850 N 
ATOM     29  H   LIG    1       -6.274   6.346   2.471  0.00  0.00    +0.410 HD
ATOM     30  H   LIG    1       -6.918   5.688   1.066  0.00  0.00    +0.400 HD
ENDBRANCH  20  26
ENDBRANCH   1  20
TORSDOF 6
