REMARK  Name = ZINCrH000004mfNV.0
REMARK                            x       y       z     vdW  Elec       q    Type
REMARK                         _______ _______ _______ _____ _____    ______ ____
ROOT
ATOM      1  C   LIG    1       -0.414   9.614   1.116  0.00  0.00    +0.190 A 
ATOM      2  C   LIG    1       -1.323   9.720   0.067  0.00  0.00    -0.170 A 
ATOM      3  C   LIG    1       -1.881   8.589  -0.490  0.00  0.00    +0.230 A 
ATOM      4  C   LIG    1       -1.527   7.321   0.005  0.00  0.00    -0.170 A 
ATOM      5  C   LIG    1       -1.912   6.005  -0.341  0.00  0.00    +0.110 A 
ATOM      6  C   LIG    1       -1.248   5.148   0.480  0.00  0.00    -0.010 A 
ATOM      7  N   LIG    1       -0.453   5.876   1.347  0.00  0.00    -0.570 N 
ATOM      8  H   LIG    1        0.120   5.505   2.036  0.00  0.00    +0.430 HD
ATOM      9  C   LIG    1       -0.607   7.216   1.066  0.00  0.00    +0.180 A 
ATOM     10  C   LIG    1       -0.056   8.372   1.615  0.00  0.00    -0.010 A 
ENDROOT
BRANCH   6  11
ATOM     11  C   LIG    1       -1.363   3.685   0.455  0.00  0.00    +0.600 C 
ATOM     12  N   LIG    1       -0.761   2.946   1.408  0.00  0.00    -0.550 N 
ATOM     13  C   LIG    1       -0.700   1.550   1.419  0.00  0.00    +0.140 A 
ATOM     14  C   LIG    1       -1.216   0.634   0.500  0.00  0.00    +0.010 A 
ATOM     15  C   LIG    1       -1.045  -0.720   0.697  0.00  0.00    +0.040 A 
ATOM     16  C   LIG    1       -0.361  -1.181   1.806  0.00  0.00    -0.010 A 
ATOM     17  C   LIG    1        0.153  -0.280   2.721  0.00  0.00    +0.050 A 
ATOM     18  C   LIG    1       -0.016   1.077   2.528  0.00  0.00    -0.140 A 
ATOM     19  C   LIG    1        0.434   2.260   3.356  0.00  0.00    +0.120 C 
ATOM     20  C   LIG    1       -0.077   3.488   2.584  0.00  0.00    +0.210 C 
ATOM     21  C   LIG    1       -1.056   4.287   3.447  0.00  0.00    +0.050 C 
ATOM     22  O   LIG    1       -2.000   3.139  -0.427  0.00  0.00    -0.500 OA
ENDBRANCH   6  11
BRANCH   1  24
ATOM     23  C   LIG    1       -0.283  11.988   1.097  0.00  0.00    +0.240 C 
ATOM     24  O   LIG    1        0.127  10.739   1.655  0.00  0.00    -0.300 OA
ENDBRANCH   1  24
BRANCH   3  25
ATOM     25  O   LIG    1       -2.767   8.699  -1.514  0.00  0.00    -0.300 OA
ATOM     26  C   LIG    1       -3.078  10.019  -1.964  0.00  0.00    +0.250 C 
ENDBRANCH   3  25
BRANCH  10  27
ATOM     27  O   LIG    1        0.835   8.280   2.641  0.00  0.00    -0.320 OA
ATOM     28  C   LIG    1        0.301   8.297   3.967  0.00  0.00    +0.210 C 
ENDBRANCH  10  27
TORSDOF 4
