REMARK  Name = ZINCvU00000005Yv.0
REMARK                            x       y       z     vdW  Elec       q    Type
REMARK                         _______ _______ _______ _____ _____    ______ ____
ROOT
ATOM      1  C   LIG    1        0.811  -0.565  -0.284  0.00  0.00    +0.150 A 
ATOM      2  N   LIG    1        1.618   0.472  -0.338  0.00  0.00    -0.290 NA
ATOM      3  N   LIG    1        0.935   1.558  -0.411  0.00  0.00    -0.250 NA
ATOM      4  C   LIG    1       -0.348   1.283  -0.409  0.00  0.00    +0.220 A 
ATOM      5  N   LIG    1       -0.467  -0.086  -0.328  0.00  0.00    -0.440 N 
ENDROOT
BRANCH   4   6
ATOM      6  C   LIG    1       -1.456   2.258  -0.486  0.00  0.00    -0.010 A 
ATOM      7  C   LIG    1       -2.482   2.081  -1.416  0.00  0.00    +0.040 A 
ATOM      8  C   LIG    1       -3.516   2.993  -1.480  0.00  0.00    +0.030 A 
ATOM      9  C   LIG    1       -3.533   4.085  -0.631  0.00  0.00    +0.050 A 
ATOM     10  C   LIG    1       -2.517   4.270   0.290  0.00  0.00    +0.030 A 
ATOM     11  C   LIG    1       -1.479   3.363   0.368  0.00  0.00    -0.000 A 
ATOM     12 CL   LIG    1       -0.205   3.596   1.524  0.00  0.00    -0.040 Cl
ENDBRANCH   4   6
BRANCH   5  13
ATOM     13  C   LIG    1       -1.706  -0.866  -0.295  0.00  0.00    +0.230 C 
ATOM     14  C   LIG    1       -1.805  -1.646   1.032  0.00  0.00    +0.020 C 
ATOM     15  C   LIG    1       -2.448  -2.997   0.633  0.00  0.00    +0.030 C 
ATOM     16  C   LIG    1       -1.793  -3.295  -0.739  0.00  0.00    +0.040 C 
ATOM     17  C   LIG    1       -1.698  -1.915  -1.421  0.00  0.00    +0.020 C 
ENDBRANCH   5  13
BRANCH   1  18
ATOM     18  S   LIG    1        1.290  -2.257  -0.177  0.00  0.00    +0.070 S 
BRANCH  18  19
ATOM     19  C   LIG    1        3.091  -2.074  -0.167  0.00  0.00    +0.080 C 
BRANCH  19  20
ATOM     20  C   LIG    1        3.734  -3.434  -0.078  0.00  0.00    +0.420 C 
ATOM     21  O   LIG    1        3.043  -4.429  -0.026  0.00  0.00    -0.440 OA
BRANCH  20  25
ATOM     22  C   LIG    1        7.955  -3.781  -0.009  0.00  0.00    +0.180 A 
ATOM     23  C   LIG    1        7.163  -4.925   0.051  0.00  0.00    +0.010 A 
ATOM     24  C   LIG    1        5.797  -4.817   0.029  0.00  0.00    +0.110 A 
ATOM     25  C   LIG    1        5.197  -3.554  -0.054  0.00  0.00    -0.190 A 
ATOM     26  C   LIG    1        5.998  -2.407  -0.119  0.00  0.00    +0.090 A 
ATOM     27  C   LIG    1        7.363  -2.524  -0.092  0.00  0.00    -0.020 A 
BRANCH  22  30
ATOM     28  C   LIG    1       11.447  -5.012  -0.655  0.00  0.00    +0.120 C 
ATOM     29  C   LIG    1        9.943  -4.940  -0.593  0.00  0.00    +0.510 C 
ATOM     30  N   LIG    1        9.343  -3.896   0.013  0.00  0.00    -0.680 N 
ATOM     31  H   LIG    1        9.878  -3.224   0.463  0.00  0.00    +0.420 HD
ATOM     32  O   LIG    1        9.272  -5.821  -1.087  0.00  0.00    -0.520 OA
ENDBRANCH  22  30
ENDBRANCH  20  25
ENDBRANCH  19  20
ENDBRANCH  18  19
ENDBRANCH   1  18
TORSDOF 7
