REMARK  Name = ZINCrH000004tZKe.0
REMARK                            x       y       z     vdW  Elec       q    Type
REMARK                         _______ _______ _______ _____ _____    ______ ____
ROOT
ATOM      1  O   LIG    1        1.811   0.006  -2.175  0.00  0.00    -0.520 OA
ATOM      2  C   LIG    1        2.681   0.151  -1.343  0.00  0.00    +0.510 C 
ATOM      3  N   LIG    1        3.978   0.095  -1.705  0.00  0.00    -0.720 N 
ATOM      4  H   LIG    1        4.672   0.281  -1.054  0.00  0.00    +0.400 HD
ENDROOT
BRANCH   3   5
ATOM      5  C   LIG    1        4.339  -0.247  -3.083  0.00  0.00    +0.300 C 
BRANCH   5   6
ATOM      6  C   LIG    1        5.143  -1.521  -3.090  0.00  0.00    -0.100 A 
ATOM      7  C   LIG    1        6.097  -1.741  -2.114  0.00  0.00    +0.050 A 
ATOM      8  C   LIG    1        6.832  -2.912  -2.116  0.00  0.00    -0.010 A 
ATOM      9  C   LIG    1        6.619  -3.860  -3.103  0.00  0.00    +0.100 A 
ATOM     10  C   LIG    1        5.666  -3.636  -4.083  0.00  0.00    -0.010 A 
ATOM     11  F   LIG    1        7.340  -5.003  -3.109  0.00  0.00    -0.140 F 
ATOM     12  C   LIG    1        4.930  -2.467  -4.075  0.00  0.00    +0.050 A 
ENDBRANCH   5   6
BRANCH   5  13
ATOM     13  C   LIG    1        5.171   0.885  -3.688  0.00  0.00    -0.020 C 
ATOM     14  C   LIG    1        4.385   2.211  -3.627  0.00  0.00    +0.010 C 
ATOM     15  C   LIG    1        4.752   2.931  -4.948  0.00  0.00    +0.010 C 
ATOM     16  C   LIG    1        4.811   1.766  -5.968  0.00  0.00    +0.010 C 
ATOM     17  C   LIG    1        5.443   0.603  -5.176  0.00  0.00    +0.020 C 
ENDBRANCH   5  13
ENDBRANCH   3   5
BRANCH   2  18
ATOM     18  C   LIG    1        2.311   0.394   0.098  0.00  0.00    +0.340 C 
BRANCH  18  19
ATOM     19  N   LIG    1        0.852   0.410   0.232  0.00  0.00    -0.500 N 
ATOM     20  C   LIG    1        0.190  -0.753   0.491  0.00  0.00    +0.320 A 
ATOM     21  C   LIG    1       -1.152  -0.789   0.618  0.00  0.00    -0.030 A 
ATOM     22  C   LIG    1       -1.899   0.399   0.492  0.00  0.00    +0.120 A 
ATOM     23  C   LIG    1       -1.218   1.593   0.226  0.00  0.00    -0.260 A 
ATOM     24  C   LIG    1       -2.251   2.627   0.147  0.00  0.00    +0.020 A 
ATOM     25  C   LIG    1       -3.419   2.002   0.363  0.00  0.00    +0.180 A 
ATOM     26  O   LIG    1       -3.207   0.690   0.566  0.00  0.00    -0.170 OA
ATOM     27  C   LIG    1        0.187   1.576   0.097  0.00  0.00    +0.570 A 
ATOM     28  O   LIG    1        0.795   2.607  -0.135  0.00  0.00    -0.530 OA
ENDBRANCH  18  19
ENDBRANCH   2  18
TORSDOF 5
