REMARK  Name = ZINCah0000000153.0
REMARK                            x       y       z     vdW  Elec       q    Type
REMARK                         _______ _______ _______ _____ _____    ______ ____
ROOT
ATOM      1  N   LIG    1       -0.405   3.684  -1.074  0.00  0.00    -0.720 N 
ATOM      2  H   LIG    1       -0.493   4.052  -0.180  0.00  0.00    +0.400 HD
ATOM      3  C   LIG    1       -0.242   4.507  -2.128  0.00  0.00    +0.500 C 
ATOM      4  O   LIG    1       -0.132   4.047  -3.245  0.00  0.00    -0.510 OA
ENDROOT
BRANCH   1   6
ATOM      5  C   LIG    1       -1.874   1.812  -1.639  0.00  0.00    +0.030 C 
ATOM      6  C   LIG    1       -0.448   2.233  -1.276  0.00  0.00    +0.260 C 
BRANCH   6   7
ATOM      7  C   LIG    1       -0.019   1.526   0.010  0.00  0.00    -0.060 C 
ATOM      8  C   LIG    1        1.317   0.779  -0.006  0.00  0.00    +0.020 C 
ATOM      9  C   LIG    1        0.002  -0.004   0.002  0.00  0.00    +0.030 C 
ENDBRANCH   6   7
ENDBRANCH   1   6
BRANCH   3  10
ATOM     10  C   LIG    1       -0.197   5.999  -1.920  0.00  0.00    +0.170 C 
ATOM     11 CL   LIG    1        0.029   6.821  -3.509  0.00  0.00    -0.130 Cl
ENDBRANCH   3  10
TORSDOF 3
