REMARK  Name = ZINCqH0000050ERb.0
REMARK                            x       y       z     vdW  Elec       q    Type
REMARK                         _______ _______ _______ _____ _____    ______ ____
ROOT
ATOM      1  N   LIG    1       -3.373   2.720  -0.495  0.00  0.00    -0.660 N 
ATOM      2  H   LIG    1       -3.465   2.248   0.347  0.00  0.00    +0.410 HD
ATOM      3  C   LIG    1       -2.259   3.437  -0.747  0.00  0.00    +0.590 C 
ATOM      4  O   LIG    1       -2.100   3.949  -1.839  0.00  0.00    -0.490 OA
ENDROOT
BRANCH   3   5
ATOM      5  C   LIG    1       -1.235   3.600   0.300  0.00  0.00    -0.250 A 
ATOM      6  C   LIG    1       -1.176   4.610   1.239  0.00  0.00    +0.150 A 
ATOM      7  N   LIG    1       -0.096   4.385   2.004  0.00  0.00    -0.440 N 
ATOM      8  H   LIG    1        0.195   4.933   2.749  0.00  0.00    +0.450 HD
ATOM      9  N   LIG    1        0.541   3.227   1.544  0.00  0.00    -0.220 NA
ATOM     10  C   LIG    1       -2.150   5.751   1.384  0.00  0.00    +0.180 C 
ATOM     11  C   LIG    1       -0.127   2.753   0.528  0.00  0.00    +0.030 A 
BRANCH  11  12
ATOM     12  C   LIG    1        0.220   1.516  -0.260  0.00  0.00    +0.550 C 
ATOM     13  F   LIG    1        0.545   1.876  -1.573  0.00  0.00    -0.160 F 
ATOM     14  F   LIG    1       -0.877   0.648  -0.273  0.00  0.00    -0.160 F 
ATOM     15  F   LIG    1        1.313   0.876   0.333  0.00  0.00    -0.160 F 
ENDBRANCH  11  12
ENDBRANCH   3   5
BRANCH   1  20
ATOM     16  C   LIG    1       -5.668   3.680  -3.213  0.00  0.00    -0.030 A 
ATOM     17  C   LIG    1       -6.426   2.516  -3.334  0.00  0.00    +0.060 A 
ATOM     18  C   LIG    1       -6.165   1.434  -2.517  0.00  0.00    +0.020 A 
ATOM     19  C   LIG    1       -5.155   1.500  -1.577  0.00  0.00    +0.010 A 
ATOM     20  C   LIG    1       -4.394   2.657  -1.448  0.00  0.00    +0.130 A 
ATOM     21  C   LIG    1       -4.653   3.749  -2.262  0.00  0.00    +0.080 A 
BRANCH  16  27
ATOM     22  C   LIG    1       -8.303   5.675  -6.798  0.00  0.00    +0.140 C 
ATOM     23  C   LIG    1       -7.195   5.778  -5.783  0.00  0.00    +0.180 A 
ATOM     24  C   LIG    1       -6.449   6.942  -5.673  0.00  0.00    -0.090 A 
ATOM     25  C   LIG    1       -5.438   6.996  -4.725  0.00  0.00    +0.330 A 
ATOM     26  N   LIG    1       -5.215   5.942  -3.959  0.00  0.00    -0.510 NA
ATOM     27  C   LIG    1       -5.947   4.843  -4.090  0.00  0.00    +0.370 A 
ATOM     28  N   LIG    1       -6.917   4.758  -4.989  0.00  0.00    -0.510 NA
ENDBRANCH  16  27
ENDBRANCH   1  20
TORSDOF 4
