REMARK  Name = ZINCqH0000050ERb.1
REMARK                            x       y       z     vdW  Elec       q    Type
REMARK                         _______ _______ _______ _____ _____    ______ ____
ROOT
ATOM      1  N   LIG    1        0.701   4.938   1.078  0.00  0.00    -0.660 N 
ATOM      2  H   LIG    1       -0.232   4.808   1.308  0.00  0.00    +0.410 HD
ATOM      3  C   LIG    1        1.605   3.980   1.363  0.00  0.00    +0.590 C 
ATOM      4  O   LIG    1        2.756   4.100   0.991  0.00  0.00    -0.490 OA
ENDROOT
BRANCH   3   5
ATOM      5  C   LIG    1        1.198   2.787   2.127  0.00  0.00    -0.210 A 
ATOM      6  C   LIG    1        1.224   2.645   3.500  0.00  0.00    +0.030 A 
ATOM      7  N   LIG    1        0.769   1.414   3.785  0.00  0.00    -0.420 N 
ATOM      8  H   LIG    1        0.674   1.037   4.674  0.00  0.00    +0.450 HD
ATOM      9  N   LIG    1        0.456   0.767   2.585  0.00  0.00    -0.250 NA
ATOM     10  C   LIG    1        0.710   1.574   1.591  0.00  0.00    +0.120 A 
ATOM     11  C   LIG    1        0.513   1.268   0.129  0.00  0.00    +0.190 C 
BRANCH   6  12
ATOM     12  C   LIG    1        1.675   3.682   4.496  0.00  0.00    +0.540 C 
ATOM     13  F   LIG    1        3.013   4.012   4.252  0.00  0.00    -0.150 F 
ATOM     14  F   LIG    1        0.881   4.827   4.369  0.00  0.00    -0.160 F 
ATOM     15  F   LIG    1        1.550   3.170   5.792  0.00  0.00    -0.170 F 
ENDBRANCH   6  12
ENDBRANCH   3   5
BRANCH   1  20
ATOM     16  C   LIG    1        2.766   7.824   0.086  0.00  0.00    -0.030 A 
ATOM     17  C   LIG    1        1.904   8.465  -0.802  0.00  0.00    +0.060 A 
ATOM     18  C   LIG    1        0.656   7.934  -1.059  0.00  0.00    +0.030 A 
ATOM     19  C   LIG    1        0.256   6.766  -0.437  0.00  0.00    +0.010 A 
ATOM     20  C   LIG    1        1.109   6.120   0.450  0.00  0.00    +0.130 A 
ATOM     21  C   LIG    1        2.362   6.650   0.717  0.00  0.00    +0.080 A 
BRANCH  16  27
ATOM     22  C   LIG    1        6.066  11.325  -0.712  0.00  0.00    +0.140 C 
ATOM     23  C   LIG    1        5.659  10.050  -0.019  0.00  0.00    +0.180 A 
ATOM     24  C   LIG    1        6.527   9.423   0.862  0.00  0.00    -0.080 A 
ATOM     25  C   LIG    1        6.114   8.251   1.480  0.00  0.00    +0.330 A 
ATOM     26  N   LIG    1        4.913   7.770   1.211  0.00  0.00    -0.510 NA
ATOM     27  C   LIG    1        4.107   8.394   0.363  0.00  0.00    +0.370 A 
ATOM     28  N   LIG    1        4.473   9.513  -0.247  0.00  0.00    -0.510 NA
ENDBRANCH  16  27
ENDBRANCH   1  20
TORSDOF 4
