REMARK  Name = ZINCah0000002Dkp.0
REMARK                            x       y       z     vdW  Elec       q    Type
REMARK                         _______ _______ _______ _____ _____    ______ ____
ROOT
ATOM      1  C   LIG    1        2.291   0.025  -0.019  0.00  0.00    +0.090 A 
ATOM      2  N   LIG    1        1.155  -0.650  -0.012  0.00  0.00    -0.410 NA
ATOM      3  C   LIG    1        0.002  -0.004   0.002  0.00  0.00    +0.250 A 
ATOM      4  C   LIG    1       -0.017   1.379   0.010  0.00  0.00    +0.270 A 
ATOM      5  N   LIG    1        1.119   2.056   0.002  0.00  0.00    -0.430 NA
ATOM      6  C   LIG    1        2.272   1.410  -0.012  0.00  0.00    +0.130 A 
ATOM      7 CL   LIG    1        3.764   2.298  -0.022  0.00  0.00    -0.000 Cl
ENDROOT
BRANCH   1   8
ATOM      8  C   LIG    1        3.605  -0.712  -0.035  0.00  0.00    +0.300 C 
BRANCH   8  10
ATOM      9  N   LIG    1        4.341  -1.125  -2.503  0.00  0.00    -0.410 NA
ATOM     10  C   LIG    1        4.020  -0.945  -1.428  0.00  0.00    +0.210 C 
ENDBRANCH   8  10
ENDBRANCH   1   8
TORSDOF 2
