REMARK  Name = ZINCrH000004qWVM.0
REMARK                            x       y       z     vdW  Elec       q    Type
REMARK                         _______ _______ _______ _____ _____    ______ ____
ROOT
ATOM      1  N   LIG    1       -0.720   1.572  -1.181  0.00  0.00    -0.540 NA
ATOM      2  C   LIG    1       -0.738   3.027  -1.218  0.00  0.00    +0.220 C 
ATOM      3  C   LIG    1        0.685   3.589  -1.245  0.00  0.00    +0.250 C 
ATOM      4  N   LIG    1        1.148   3.629  -2.642  0.00  0.00    -0.730 N 
ATOM      5  H   LIG    1        1.252   4.481  -3.094  0.00  0.00    +0.400 HD
ATOM      6  C   LIG    1        1.423   2.493  -3.289  0.00  0.00    +0.520 C 
ATOM      7  C   LIG    1        1.254   1.162  -2.585  0.00  0.00    +0.020 C 
ATOM      8  O   LIG    1        1.807   2.526  -4.439  0.00  0.00    -0.540 OA
ATOM      9  C   LIG    1       -0.242   0.908  -2.385  0.00  0.00    +0.250 C 
ENDROOT
BRANCH   9  10
ATOM     10  C   LIG    1       -0.482  -0.575  -2.263  0.00  0.00    -0.080 A 
ATOM     11  C   LIG    1        0.442  -1.373  -1.615  0.00  0.00    +0.000 A 
ATOM     12  C   LIG    1        0.220  -2.733  -1.500  0.00  0.00    +0.000 A 
ATOM     13  C   LIG    1       -0.922  -3.295  -2.039  0.00  0.00    +0.010 A 
ATOM     14  C   LIG    1       -1.843  -2.497  -2.691  0.00  0.00    +0.000 A 
ATOM     15  C   LIG    1       -1.623  -1.137  -2.804  0.00  0.00    +0.030 A 
ENDBRANCH   9  10
BRANCH   1  16
ATOM     16  C   LIG    1       -0.007   1.085   0.007  0.00  0.00    +0.310 C 
BRANCH  16  20
ATOM     17  C   LIG    1       -2.081   1.646   2.978  0.00  0.00    +0.060 A 
ATOM     18  N   LIG    1       -1.318   2.707   2.892  0.00  0.00    -0.350 NA
ATOM     19  O   LIG    1       -0.577   2.642   1.939  0.00  0.00    +0.100 OA
ATOM     20  C   LIG    1       -0.751   1.506   1.248  0.00  0.00    -0.030 A 
ATOM     21  C   LIG    1       -1.728   0.815   1.878  0.00  0.00    -0.020 A 
BRANCH  17  26
ATOM     22  C   LIG    1       -6.077   0.571   6.984  0.00  0.00    +0.090 C 
ATOM     23  C   LIG    1       -5.031   0.852   5.936  0.00  0.00    -0.070 A 
ATOM     24  C   LIG    1       -4.304   2.027   5.986  0.00  0.00    +0.010 A 
ATOM     25  C   LIG    1       -3.345   2.290   5.029  0.00  0.00    +0.040 A 
ATOM     26  C   LIG    1       -3.111   1.369   4.011  0.00  0.00    -0.030 A 
ATOM     27  C   LIG    1       -3.849   0.188   3.962  0.00  0.00    +0.040 A 
ATOM     28  C   LIG    1       -4.802  -0.066   4.928  0.00  0.00    +0.010 A 
ENDBRANCH  17  26
ENDBRANCH  16  20
ENDBRANCH   1  16
TORSDOF 4
