REMARK  Name = ZINCrH000004otdM.0
REMARK                            x       y       z     vdW  Elec       q    Type
REMARK                         _______ _______ _______ _____ _____    ______ ____
ROOT
ATOM      1  C   LIG    1       -0.925   8.965  -2.088  0.00  0.00    +0.250 A 
ATOM      2  C   LIG    1       -2.260   9.008  -2.469  0.00  0.00    -0.050 A 
ATOM      3  C   LIG    1       -2.646   9.787  -3.542  0.00  0.00    +0.190 A 
ATOM      4  C   LIG    1       -1.703  10.516  -4.243  0.00  0.00    -0.690 A 
ATOM      5  C   LIG    1       -0.372  10.472  -3.870  0.00  0.00    +0.250 A 
ATOM      6  C   LIG    1        0.019   9.699  -2.794  0.00  0.00    -0.660 A 
ENDROOT
BRANCH   4   7
ATOM      7  S   LIG    1       -2.199  11.504  -5.615  0.00  0.00    +2.500 S 
ATOM      8  O   LIG    1       -1.213  12.525  -5.687  0.00  0.00    -0.930 OA
ATOM      9  O   LIG    1       -3.559  11.817  -5.348  0.00  0.00    -0.930 OA
ATOM     10  C   LIG    1       -2.070  10.393  -7.043  0.00  0.00    -0.250 C 
ENDBRANCH   4   7
BRANCH   6  11
ATOM     11  S   LIG    1        1.715   9.643  -2.320  0.00  0.00    +2.500 S 
ATOM     12  O   LIG    1        2.371  10.478  -3.264  0.00  0.00    -0.950 OA
ATOM     13  O   LIG    1        2.011   8.256  -2.237  0.00  0.00    -0.900 OA
ATOM     14  C   LIG    1        1.749  10.400  -0.671  0.00  0.00    -0.250 C 
ENDBRANCH   6  11
BRANCH   1  15
ATOM     15  N   LIG    1       -0.532   8.182  -1.000  0.00  0.00    -0.520 N 
ATOM     16  C   LIG    1       -1.135   8.673   0.247  0.00  0.00    +0.230 C 
BRANCH  15  17
ATOM     17  C   LIG    1       -0.862   6.768  -1.223  0.00  0.00    +0.160 C 
ATOM     18  C   LIG    1       -0.252   6.306  -2.548  0.00  0.00    +0.050 C 
BRANCH  17  20
ATOM     19  C   LIG    1       -0.689   4.461  -0.279  0.00  0.00    +0.040 C 
ATOM     20  C   LIG    1       -0.294   5.926  -0.079  0.00  0.00    +0.030 C 
BRANCH  20  21
ATOM     21  C   LIG    1        1.208   6.043  -0.065  0.00  0.00    -0.050 A 
ATOM     22  C   LIG    1        1.831   6.831   0.885  0.00  0.00    +0.020 A 
ATOM     23  C   LIG    1        3.209   6.939   0.898  0.00  0.00    +0.020 A 
ATOM     24  C   LIG    1        3.965   6.259  -0.041  0.00  0.00    -0.030 A 
ATOM     25  C   LIG    1        3.340   5.476  -0.996  0.00  0.00    +0.030 A 
ATOM     26 CL   LIG    1        5.696   6.394  -0.025  0.00  0.00    -0.080 Cl
ATOM     27  C   LIG    1        1.963   5.364  -1.003  0.00  0.00    +0.050 A 
ENDBRANCH  20  21
ENDBRANCH  17  20
ENDBRANCH  15  17
ENDBRANCH   1  15
TORSDOF 6
