REMARK  Name = ZINCpk00000KcCfL.0
REMARK                            x       y       z     vdW  Elec       q    Type
REMARK                         _______ _______ _______ _____ _____    ______ ____
ROOT
ATOM      1  N   LIG    1        7.036   1.220  -3.329  0.00  0.00    -0.610 N 
ATOM      2  C   LIG    1        5.751   1.025  -2.971  0.00  0.00    +0.520 C 
ATOM      3  O   LIG    1        4.901   0.870  -3.823  0.00  0.00    -0.500 OA
ENDROOT
BRANCH   1   4
ATOM      4  C   LIG    1        7.389   1.361  -4.743  0.00  0.00    +0.320 C 
BRANCH   4   5
ATOM      5  C   LIG    1        7.322   2.837  -5.142  0.00  0.00    +0.090 C 
BRANCH   5   6
ATOM      6  C   LIG    1        7.685   2.982  -6.597  0.00  0.00    +0.470 C 
ATOM      7  O   LIG    1        7.969   2.005  -7.249  0.00  0.00    -0.500 OA
BRANCH   6   9
ATOM      8  C   LIG    1        8.053   4.260  -8.574  0.00  0.00    +0.250 C 
ATOM      9  O   LIG    1        7.694   4.196  -7.169  0.00  0.00    -0.360 OA
ENDBRANCH   6   9
ENDBRANCH   5   6
ENDBRANCH   4   5
ENDBRANCH   1   4
BRANCH   2  10
ATOM     10  C   LIG    1        5.370   1.000  -1.513  0.00  0.00    +0.220 C 
BRANCH  10  11
ATOM     11  O   LIG    1        3.950   0.898  -1.394  0.00  0.00    -0.360 OA
BRANCH  11  12
ATOM     12  C   LIG    1        3.481   0.866  -0.044  0.00  0.00    +0.360 C 
BRANCH  12  13
ATOM     13  C   LIG    1        1.978   0.758  -0.037  0.00  0.00    +0.180 A 
ATOM     14  N   LIG    1        1.274  -0.348  -0.033  0.00  0.00    -0.460 NA
ATOM     15  C   LIG    1       -0.013   0.042  -0.027  0.00  0.00    +0.170 A 
ATOM     16  N   LIG    1       -0.027   1.341  -0.029  0.00  0.00    -0.380 NA
ATOM     17  C   LIG    1       -1.219  -0.863  -0.020  0.00  0.00    +0.200 C 
ATOM     18  O   LIG    1        1.107   1.772  -0.035  0.00  0.00    +0.090 OA
ENDBRANCH  12  13
ENDBRANCH  11  12
ENDBRANCH  10  11
ENDBRANCH   2  10
BRANCH   1  19
ATOM     19  C   LIG    1        8.079   1.292  -2.303  0.00  0.00    +0.330 C 
BRANCH  19  20
ATOM     20  C   LIG    1        8.714  -0.065  -2.137  0.00  0.00    -0.120 A 
ATOM     21  C   LIG    1        8.271  -0.918  -1.144  0.00  0.00    +0.010 A 
ATOM     22  C   LIG    1        8.851  -2.165  -0.995  0.00  0.00    +0.000 A 
ATOM     23  C   LIG    1        9.880  -2.553  -1.832  0.00  0.00    +0.010 A 
ATOM     24  C   LIG    1       10.326  -1.697  -2.821  0.00  0.00    +0.000 A 
ATOM     25  C   LIG    1        9.743  -0.453  -2.974  0.00  0.00    +0.020 A 
ENDBRANCH  19  20
ENDBRANCH   1  19
TORSDOF 10
