REMARK  Name = ZINCvU0000000G7E.0
REMARK                            x       y       z     vdW  Elec       q    Type
REMARK                         _______ _______ _______ _____ _____    ______ ____
ROOT
ATOM      1  C   LIG    1        2.010   3.143   1.149  0.00  0.00    +0.570 C 
ATOM      2  N   LIG    1        1.649   2.293   0.167  0.00  0.00    -0.610 N 
ATOM      3  C   LIG    1        2.625   1.855  -0.840  0.00  0.00    +0.260 C 
ATOM      4  C   LIG    1        2.638   0.324  -0.881  0.00  0.00    +0.030 C 
ATOM      5  C   LIG    1        1.216  -0.188  -1.119  0.00  0.00    +0.060 C 
ATOM      6  C   LIG    1        0.312   0.256   0.033  0.00  0.00    -0.010 C 
ATOM      7  C   LIG    1        0.272   1.787   0.084  0.00  0.00    +0.300 C 
ATOM      8  O   LIG    1        1.223   3.416   2.036  0.00  0.00    -0.530 OA
ENDROOT
BRANCH   1  12
ATOM      9  C   LIG    1        5.925   4.892   1.121  0.00  0.00    +0.180 A 
ATOM     10  C   LIG    1        5.086   4.993   0.031  0.00  0.00    -0.100 A 
ATOM     11  C   LIG    1        3.823   4.425   0.033  0.00  0.00    +0.100 A 
ATOM     12  C   LIG    1        3.354   3.740   1.148  0.00  0.00    -0.170 A 
ATOM     13  C   LIG    1        4.223   3.617   2.318  0.00  0.00    +0.020 A 
ATOM     14  C   LIG    1        3.808   2.934   3.467  0.00  0.00    +0.020 A 
ATOM     15  C   LIG    1        4.648   2.842   4.537  0.00  0.00    +0.040 A 
ATOM     16  C   LIG    1        5.914   3.418   4.503  0.00  0.00    +0.000 A 
ATOM     17  C   LIG    1        6.349   4.090   3.400  0.00  0.00    +0.060 A 
ATOM     18  C   LIG    1        5.510   4.204   2.281  0.00  0.00    -0.080 A 
BRANCH   9  20
ATOM     19  C   LIG    1        7.514   6.139  -0.127  0.00  0.00    +0.250 C 
ATOM     20  O   LIG    1        7.156   5.458   1.077  0.00  0.00    -0.310 OA
ENDBRANCH   9  20
ENDBRANCH   1  12
BRANCH   6  21
ATOM     21  C   LIG    1       -1.081  -0.276  -0.187  0.00  0.00    +0.530 C 
ATOM     22  N   LIG    1       -2.054  -0.006   0.706  0.00  0.00    -0.670 N 
ATOM     23  H   LIG    1       -1.844   0.476   1.521  0.00  0.00    +0.420 HD
ATOM     24  O   LIG    1       -1.326  -0.948  -1.166  0.00  0.00    -0.510 OA
BRANCH  22  25
ATOM     25  C   LIG    1       -3.368  -0.420   0.456  0.00  0.00    +0.130 A 
ATOM     26  C   LIG    1       -3.606  -1.615  -0.209  0.00  0.00    +0.070 A 
ATOM     27  C   LIG    1       -4.904  -2.022  -0.454  0.00  0.00    -0.030 A 
ATOM     28  C   LIG    1       -5.967  -1.240  -0.037  0.00  0.00    +0.050 A 
ATOM     29  C   LIG    1       -5.734  -0.048   0.625  0.00  0.00    +0.030 A 
ATOM     30 CL   LIG    1       -5.202  -3.517  -1.285  0.00  0.00    -0.050 Cl
ATOM     31  C   LIG    1       -4.438   0.362   0.878  0.00  0.00    +0.080 A 
ATOM     32  F   LIG    1       -4.211   1.523   1.531  0.00  0.00    -0.130 F 
ENDBRANCH  22  25
ENDBRANCH   6  21
TORSDOF 4
