REMARK  Name = ZINCrH000004qa2G.0
REMARK                            x       y       z     vdW  Elec       q    Type
REMARK                         _______ _______ _______ _____ _____    ______ ____
ROOT
ATOM      1  C   LIG    1       -1.062  -1.067  -0.719  0.00  0.00    +0.610 C 
ATOM      2  N   LIG    1       -1.049  -2.206   0.001  0.00  0.00    -0.660 N 
ATOM      3  H   LIG    1       -0.236  -2.487   0.449  0.00  0.00    +0.420 HD
ATOM      4  O   LIG    1       -2.051  -0.763  -1.359  0.00  0.00    -0.490 OA
ENDROOT
BRANCH   1   7
ATOM      5  C   LIG    1       -0.833   1.605  -2.295  0.00  0.00    +0.140 C 
ATOM      6  C   LIG    1        0.218   0.977  -1.415  0.00  0.00    -0.060 A 
ATOM      7  C   LIG    1        0.117  -0.191  -0.730  0.00  0.00    -0.050 A 
ATOM      8  O   LIG    1        1.265  -0.426  -0.059  0.00  0.00    -0.190 OA
ATOM      9  C   LIG    1        2.156   0.562  -0.272  0.00  0.00    +0.080 A 
ATOM     10  C   LIG    1        3.451   0.789   0.177  0.00  0.00    +0.030 A 
ATOM     11  C   LIG    1        4.128   1.921  -0.223  0.00  0.00    +0.060 A 
ATOM     12  C   LIG    1        3.530   2.842  -1.072  0.00  0.00    +0.000 A 
ATOM     13  C   LIG    1        2.256   2.641  -1.526  0.00  0.00    +0.080 A 
ATOM     14  C   LIG    1        1.554   1.499  -1.133  0.00  0.00    -0.150 A 
ENDBRANCH   1   7
BRANCH   2  15
ATOM     15  C   LIG    1       -2.207  -2.983   0.101  0.00  0.00    +0.130 A 
ATOM     16  C   LIG    1       -3.455  -2.374   0.114  0.00  0.00    +0.080 A 
ATOM     17  C   LIG    1       -4.598  -3.145   0.206  0.00  0.00    +0.020 A 
ATOM     18  C   LIG    1       -4.499  -4.521   0.298  0.00  0.00    +0.110 A 
ATOM     19  C   LIG    1       -3.258  -5.131   0.290  0.00  0.00    -0.660 A 
ATOM     20  C   LIG    1       -2.112  -4.366   0.192  0.00  0.00    +0.100 A 
BRANCH  19  21
ATOM     21  S   LIG    1       -3.138  -6.885   0.406  0.00  0.00    +2.710 S 
ATOM     22  O   LIG    1       -1.887  -7.240  -0.165  0.00  0.00    -0.950 OA
ATOM     23  O   LIG    1       -4.378  -7.403  -0.054  0.00  0.00    -0.950 OA
BRANCH  21  24
ATOM     24  N   LIG    1       -3.042  -7.264   2.016  0.00  0.00    -1.010 NA
ATOM     25  C   LIG    1       -1.800  -7.389   2.794  0.00  0.00    +0.270 C 
ATOM     26  C   LIG    1       -2.199  -7.778   4.233  0.00  0.00    +0.030 C 
ATOM     27  C   LIG    1       -3.603  -8.411   4.043  0.00  0.00    +0.040 C 
ATOM     28  C   LIG    1       -4.186  -7.539   2.904  0.00  0.00    +0.270 C 
ENDBRANCH  21  24
ENDBRANCH  19  21
ENDBRANCH   2  15
TORSDOF 4
