REMARK  Name = ZINCpe00000MJIoq.0
REMARK                            x       y       z     vdW  Elec       q    Type
REMARK                         _______ _______ _______ _____ _____    ______ ____
ROOT
ATOM      1  C   LIG    1        3.712  -0.861  -0.037  0.00  0.00    +0.520 C 
ATOM      2  N   LIG    1        3.909  -2.194  -0.045  0.00  0.00    -0.730 N 
ATOM      3  H   LIG    1        3.148  -2.796  -0.041  0.00  0.00    +0.400 HD
ATOM      4  O   LIG    1        4.663  -0.108  -0.042  0.00  0.00    -0.500 OA
ENDROOT
BRANCH   1   5
ATOM      5  C   LIG    1        2.312  -0.306  -0.021  0.00  0.00    +0.230 C 
BRANCH   5   6
ATOM      6  O   LIG    1        2.365   1.122  -0.014  0.00  0.00    -0.280 OA
BRANCH   6  13
ATOM      7  C   LIG    1        1.155   3.176   0.008  0.00  0.00    +0.110 A 
ATOM      8  C   LIG    1       -0.057   3.846   0.023  0.00  0.00    -0.030 A 
ATOM      9  C   LIG    1       -1.242   3.133   0.031  0.00  0.00    -0.080 A 
ATOM     10  C   LIG    1       -1.219   1.751   0.017  0.00  0.00    +0.010 A 
ATOM     11  C   LIG    1       -0.013   1.076   0.008  0.00  0.00    -0.040 A 
ATOM     12  C   LIG    1       -2.560   3.863   0.047  0.00  0.00    +0.100 C 
ATOM     13  C   LIG    1        1.177   1.785   0.000  0.00  0.00    +0.090 A 
BRANCH   7  15
ATOM     14  C   LIG    1        2.221   5.302   0.009  0.00  0.00    +0.250 C 
ATOM     15  O   LIG    1        2.321   3.877   0.000  0.00  0.00    -0.300 OA
ENDBRANCH   7  15
ENDBRANCH   6  13
ENDBRANCH   5   6
ENDBRANCH   1   5
BRANCH   2  16
ATOM     16  C   LIG    1        5.271  -2.734  -0.061  0.00  0.00    +0.420 C 
BRANCH  16  17
ATOM     17  C   LIG    1        5.214  -4.240  -0.068  0.00  0.00    +0.150 A 
ATOM     18  N   LIG    1        5.176  -5.010  -1.124  0.00  0.00    -0.270 NA
ATOM     19  N   LIG    1        5.147  -6.245  -0.760  0.00  0.00    -0.280 NA
ATOM     20  C   LIG    1        5.173  -6.317   0.538  0.00  0.00    +0.180 A 
ATOM     21  C   LIG    1        5.188  -7.554   1.397  0.00  0.00    +0.150 C 
ATOM     22  C   LIG    1        4.175  -7.379   2.533  0.00  0.00    +0.230 C 
ATOM     23  O   LIG    1        4.800  -6.720   3.631  0.00  0.00    -0.370 OA
ATOM     24  C   LIG    1        5.800  -5.766   3.268  0.00  0.00    +0.240 C 
ATOM     25  C   LIG    1        5.172  -4.654   2.423  0.00  0.00    +0.270 C 
ATOM     26  N   LIG    1        5.200  -5.046   1.014  0.00  0.00    -0.460 N 
ENDBRANCH  16  17
ENDBRANCH   2  16
TORSDOF 6
