REMARK  Name = ZINCtV00000L6jrg.0
REMARK                            x       y       z     vdW  Elec       q    Type
REMARK                         _______ _______ _______ _____ _____    ______ ____
ROOT
ATOM      1  C   LIG    1        2.553  -0.549   6.123  0.00  0.00    +0.110 A 
ATOM      2  C   LIG    1        2.821  -1.733   6.710  0.00  0.00    -0.070 A 
ATOM      3  S   LIG    1        3.646  -1.408   8.232  0.00  0.00    +0.200 S 
ATOM      4  C   LIG    1        3.553   0.273   7.939  0.00  0.00    +0.030 A 
ATOM      5  N   LIG    1        2.967   0.503   6.815  0.00  0.00    -0.460 NA
ENDROOT
BRANCH   1   9
ATOM      6  C   LIG    1        0.566  -0.220   2.379  0.00  0.00    -0.060 A 
ATOM      7  C   LIG    1        0.804  -1.468   2.925  0.00  0.00    +0.020 A 
ATOM      8  C   LIG    1        1.454  -1.581   4.137  0.00  0.00    +0.020 A 
ATOM      9  C   LIG    1        1.860  -0.434   4.817  0.00  0.00    -0.030 A 
ATOM     10  C   LIG    1        1.612   0.821   4.264  0.00  0.00    +0.050 A 
ATOM     11  C   LIG    1        0.967   0.922   3.049  0.00  0.00    +0.000 A 
BRANCH   6  12
ATOM     12  C   LIG    1       -0.139  -0.103   1.052  0.00  0.00    +0.020 C 
ATOM     13  C   LIG    1       -1.526  -0.742   1.153  0.00  0.00    +0.030 C 
BRANCH  12  15
ATOM     14  C   LIG    1        0.027  -0.600  -1.391  0.00  0.00    +0.010 C 
ATOM     15  C   LIG    1        0.677  -0.824  -0.024  0.00  0.00    +0.000 C 
ENDBRANCH  12  15
ENDBRANCH   6  12
ENDBRANCH   1   9
BRANCH   4  16
ATOM     16  C   LIG    1        4.086   1.338   8.863  0.00  0.00    +0.280 C 
BRANCH  16  17
ATOM     17  C   LIG    1        3.058   1.645   9.921  0.00  0.00    +0.190 A 
ATOM     18  N   LIG    1        2.863   0.981  11.031  0.00  0.00    -0.270 NA
ATOM     19  N   LIG    1        1.909   1.524  11.706  0.00  0.00    -0.260 NA
ATOM     20  C   LIG    1        1.447   2.551  11.059  0.00  0.00    +0.170 A 
ATOM     21  C   LIG    1        0.339   3.489  11.468  0.00  0.00    +0.240 C 
ATOM     22  S   LIG    1        0.731   5.147  10.837  0.00  0.00    -0.070 S 
ATOM     23  C   LIG    1        1.308   4.822   9.204  0.00  0.00    -0.110 A 
ATOM     24  C   LIG    1        1.111   5.765   8.204  0.00  0.00    +0.070 A 
ATOM     25  C   LIG    1        1.567   5.522   6.923  0.00  0.00    +0.040 A 
ATOM     26  C   LIG    1        2.224   4.341   6.632  0.00  0.00    +0.050 A 
ATOM     27  C   LIG    1        2.422   3.395   7.620  0.00  0.00    +0.050 A 
ATOM     28  C   LIG    1        1.964   3.626   8.908  0.00  0.00    +0.120 A 
ATOM     29  N   LIG    1        2.157   2.659   9.901  0.00  0.00    -0.410 N 
ENDBRANCH  16  17
ENDBRANCH   4  16
TORSDOF 5
