REMARK  Name = ZINCpe00000ziFrw.0
REMARK                            x       y       z     vdW  Elec       q    Type
REMARK                         _______ _______ _______ _____ _____    ______ ____
ROOT
ATOM      1  C   LIG    1        1.185   1.792   0.000  0.00  0.00    -0.000 A 
ATOM      2  C   LIG    1       -0.013   1.076   0.008  0.00  0.00    +0.080 A 
ATOM      3  C   LIG    1       -1.215   1.752   0.017  0.00  0.00    +0.030 A 
ATOM      4  C   LIG    1       -1.235   3.134   0.030  0.00  0.00    +0.080 A 
ATOM      5  C   LIG    1       -0.049   3.853   0.022  0.00  0.00    -0.110 A 
ATOM      6  C   LIG    1        0.209   5.338   0.027  0.00  0.00    +0.320 C 
ATOM      7  N   LIG    1        1.662   5.538   0.015  0.00  0.00    -0.620 N 
ATOM      8  C   LIG    1        2.311   6.719   0.014  0.00  0.00    +0.560 C 
ATOM      9  O   LIG    1        3.523   6.745   0.002  0.00  0.00    -0.510 OA
ATOM     10  C   LIG    1        2.273   4.205   0.002  0.00  0.00    +0.330 C 
ATOM     11  C   LIG    1        1.158   3.190   0.008  0.00  0.00    -0.060 A 
ENDROOT
BRANCH   8  12
ATOM     12  C   LIG    1        1.530   8.008   0.028  0.00  0.00    +0.180 C 
ATOM     13  C   LIG    1        1.082   8.352   1.470  0.00  0.00    +0.090 C 
ATOM     14  C   LIG    1        0.901   9.891   1.383  0.00  0.00    +0.170 C 
ATOM     15  C   LIG    1        2.027  10.321   0.418  0.00  0.00    +0.210 C 
ATOM     16  N   LIG    1        2.392   9.137  -0.382  0.00  0.00    -0.440 N 
BRANCH  16  17
ATOM     17  C   LIG    1        2.263   9.394  -1.737  0.00  0.00    +0.350 A 
ATOM     18  C   LIG    1        2.991  10.424  -2.336  0.00  0.00    -0.090 A 
ATOM     19  C   LIG    1        2.828  10.640  -3.690  0.00  0.00    +0.340 A 
ATOM     20  N   LIG    1        1.992   9.870  -4.372  0.00  0.00    -0.540 NA
ATOM     21  C   LIG    1        1.319   8.906  -3.777  0.00  0.00    +0.520 A 
ATOM     22  N   LIG    1        1.447   8.661  -2.489  0.00  0.00    -0.560 NA
ENDBRANCH  16  17
BRANCH  14  23
ATOM     23  O   LIG    1        1.078  10.495   2.666  0.00  0.00    -0.550 OA
ATOM     24  H   LIG    1        1.049  11.462   2.653  0.00  0.00    +0.390 HD
ENDBRANCH  14  23
ENDBRANCH   8  12
BRANCH   1  26
ATOM     25  N   LIG    1        3.431   0.547  -0.026  0.00  0.00    -0.400 NA
ATOM     26  C   LIG    1        2.437   1.098  -0.014  0.00  0.00    +0.240 C 
ENDBRANCH   1  26
TORSDOF 4
