REMARK  Name = ZINCvU0000000AZD.0
REMARK                            x       y       z     vdW  Elec       q    Type
REMARK                         _______ _______ _______ _____ _____    ______ ____
ROOT
ATOM      1  C   LIG    1       -0.087   7.460   0.766  0.00  0.00    +0.200 A 
ATOM      2  N   LIG    1        0.497   6.317   0.556  0.00  0.00    -0.460 NA
ATOM      3  C   LIG    1       -0.157   5.665  -0.428  0.00  0.00    +0.050 A 
ATOM      4  C   LIG    1       -1.195   6.480  -0.831  0.00  0.00    +0.010 A 
ATOM      5  O   LIG    1       -1.130   7.591  -0.065  0.00  0.00    -0.190 OA
ENDROOT
BRANCH   4   6
ATOM      6  C   LIG    1       -2.184   6.193  -1.888  0.00  0.00    -0.020 A 
ATOM      7  C   LIG    1       -2.664   4.893  -2.065  0.00  0.00    +0.050 A 
ATOM      8  C   LIG    1       -3.593   4.633  -3.052  0.00  0.00    +0.010 A 
ATOM      9  C   LIG    1       -4.040   5.654  -3.872  0.00  0.00    +0.030 A 
ATOM     10  C   LIG    1       -3.565   6.943  -3.705  0.00  0.00    +0.010 A 
ATOM     11  C   LIG    1       -2.641   7.219  -2.719  0.00  0.00    +0.040 A 
ENDBRANCH   4   6
BRANCH   3  12
ATOM     12  C   LIG    1        0.179   4.331  -0.977  0.00  0.00    -0.020 A 
ATOM     13  C   LIG    1       -0.035   4.055  -2.327  0.00  0.00    +0.030 A 
ATOM     14  C   LIG    1        0.281   2.810  -2.833  0.00  0.00    +0.010 A 
ATOM     15  C   LIG    1        0.810   1.837  -2.003  0.00  0.00    +0.020 A 
ATOM     16  C   LIG    1        1.020   2.104  -0.662  0.00  0.00    +0.010 A 
ATOM     17  C   LIG    1        0.713   3.346  -0.146  0.00  0.00    +0.040 A 
ENDBRANCH   3  12
BRANCH   1  18
ATOM     18  C   LIG    1        0.343   8.481   1.788  0.00  0.00    +0.220 C 
BRANCH  18  19
ATOM     19  C   LIG    1        1.347   9.445   1.153  0.00  0.00    +0.080 C 
BRANCH  19  21
ATOM     20  O   LIG    1        1.326  10.427   3.299  0.00  0.00    -0.510 OA
ATOM     21  C   LIG    1        1.778  10.466   2.174  0.00  0.00    +0.520 C 
ATOM     22  N   LIG    1        2.665  11.424   1.838  0.00  0.00    -0.670 N 
ATOM     23  H   LIG    1        2.969  11.502   0.920  0.00  0.00    +0.420 HD
BRANCH  22  24
ATOM     24  C   LIG    1        3.147  12.305   2.812  0.00  0.00    +0.150 A 
ATOM     25  C   LIG    1        3.432  13.622   2.479  0.00  0.00    +0.060 A 
ATOM     26  C   LIG    1        3.902  14.491   3.445  0.00  0.00    +0.060 A 
ATOM     27  C   LIG    1        4.100  14.046   4.739  0.00  0.00    +0.090 A 
ATOM     28  C   LIG    1        3.822  12.733   5.073  0.00  0.00    -0.020 A 
ATOM     29  C   LIG    1        3.346  11.861   4.114  0.00  0.00    +0.100 A 
BRANCH  28  30
ATOM     30  N   LIG    1        4.036  12.261   6.460  0.00  0.00    +0.030 N 
ATOM     31  O   LIG    1        4.455  13.030   7.306  0.00  0.00    -0.150 OA
ATOM     32  O   LIG    1        3.792  11.105   6.754  0.00  0.00    -0.150 OA
ENDBRANCH  28  30
ENDBRANCH  22  24
ENDBRANCH  19  21
ENDBRANCH  18  19
ENDBRANCH   1  18
TORSDOF 7
