REMARK  Name = ZINCrD00000hQ6nk.0
REMARK                            x       y       z     vdW  Elec       q    Type
REMARK                         _______ _______ _______ _____ _____    ______ ____
ROOT
ATOM      1  N   LIG    1       -6.336   3.131   0.897  0.00  0.00    -0.480 N 
ATOM      2  C   LIG    1       -6.057   2.786  -0.503  0.00  0.00    +0.190 C 
ATOM      3  C   LIG    1       -4.810   1.901  -0.573  0.00  0.00    +0.030 C 
ATOM      4  C   LIG    1       -3.622   2.651   0.035  0.00  0.00    +0.240 C 
ATOM      5  C   LIG    1       -3.958   3.041   1.477  0.00  0.00    +0.030 C 
ATOM      6  C   LIG    1       -5.229   3.894   1.487  0.00  0.00    +0.200 C 
ENDROOT
BRANCH   1  11
ATOM      7  C   LIG    1       -9.488   4.798  -0.013  0.00  0.00    +0.190 A 
ATOM      8  C   LIG    1       -9.933   5.215   1.232  0.00  0.00    -0.190 A 
ATOM      9  C   LIG    1       -9.183   4.940   2.366  0.00  0.00    +0.190 A 
ATOM     10  C   LIG    1       -7.987   4.247   2.255  0.00  0.00    -0.070 A 
ATOM     11  C   LIG    1       -7.541   3.829   1.009  0.00  0.00    +0.190 A 
ATOM     12  C   LIG    1       -8.290   4.109  -0.126  0.00  0.00    -0.100 A 
BRANCH   7  14
ATOM     13  C   LIG    1      -11.445   5.785  -0.934  0.00  0.00    +0.250 C 
ATOM     14  O   LIG    1      -10.223   5.068  -1.123  0.00  0.00    -0.310 OA
ENDBRANCH   7  14
BRANCH   9  15
ATOM     15  O   LIG    1       -9.620   5.350   3.586  0.00  0.00    -0.310 OA
ATOM     16  C   LIG    1      -10.860   6.059   3.626  0.00  0.00    +0.250 C 
ENDBRANCH   9  15
ENDBRANCH   1  11
BRANCH   4  17
ATOM     17  N   LIG    1       -2.439   1.787   0.024  0.00  0.00    -0.720 N 
ATOM     18  H   LIG    1       -2.544   0.823   0.020  0.00  0.00    +0.400 HD
ATOM     19  C   LIG    1       -1.207   2.332   0.021  0.00  0.00    +0.590 C 
ATOM     20  O   LIG    1       -1.076   3.541   0.026  0.00  0.00    -0.550 OA
BRANCH  19  21
ATOM     21  C   LIG    1       -0.018   1.463   0.010  0.00  0.00    -0.230 A 
ATOM     22  C   LIG    1        1.291   1.860  -0.000  0.00  0.00    +0.140 A 
ATOM     23  N   LIG    1        2.069   0.761  -0.014  0.00  0.00    -0.550 N 
ATOM     24  H   LIG    1        3.039   0.768  -0.023  0.00  0.00    +0.420 HD
ATOM     25  C   LIG    1        1.298  -0.365  -0.012  0.00  0.00    +0.160 A 
ATOM     26  C   LIG    1        0.002  -0.004   0.002  0.00  0.00    -0.020 A 
BRANCH  22  27
ATOM     27  C   LIG    1        1.779   3.286   0.002  0.00  0.00    +0.050 C 
ATOM     28  C   LIG    1        3.275   3.521  -0.217  0.00  0.00    +0.020 C 
ATOM     29  C   LIG    1        2.663   3.728   1.171  0.00  0.00    +0.040 C 
ENDBRANCH  22  27
ENDBRANCH  19  21
ENDBRANCH   4  17
TORSDOF 6
