REMARK  Name = ZINCrH00000No4B9.0
REMARK                            x       y       z     vdW  Elec       q    Type
REMARK                         _______ _______ _______ _____ _____    ______ ____
ROOT
ATOM      1  N   LIG    1        1.137  -0.566  -0.023  0.00  0.00    -0.030 N 
ATOM      2  N   LIG    1        1.992   0.396  -0.043  0.00  0.00    -0.280 NA
ATOM      3  C   LIG    1        1.340   1.549  -0.034  0.00  0.00    +0.010 A 
ATOM      4  C   LIG    1        1.683   2.912  -0.045  0.00  0.00    +0.100 A 
ATOM      5  C   LIG    1        0.702   3.851  -0.029  0.00  0.00    +0.030 A 
ATOM      6  C   LIG    1       -0.653   3.497  -0.002  0.00  0.00    +0.150 A 
ATOM      7  C   LIG    1       -1.050   2.191   0.015  0.00  0.00    +0.080 A 
ATOM      8  C   LIG    1       -0.082   1.174  -0.005  0.00  0.00    +0.040 A 
ATOM      9  N   LIG    1       -0.081  -0.150  -0.001  0.00  0.00    -0.280 NA
ENDROOT
BRANCH   1  13
ATOM     10  C   LIG    1        2.200  -4.598  -0.029  0.00  0.00    +0.230 A 
ATOM     11  C   LIG    1        3.187  -3.619  -0.051  0.00  0.00    -0.050 A 
ATOM     12  C   LIG    1        2.835  -2.285  -0.050  0.00  0.00    +0.100 A 
ATOM     13  C   LIG    1        1.494  -1.920  -0.025  0.00  0.00    +0.050 A 
ATOM     14  C   LIG    1        0.508  -2.899   0.004  0.00  0.00    +0.100 A 
ATOM     15  C   LIG    1        0.860  -4.233  -0.004  0.00  0.00    -0.050 A 
BRANCH  10  17
ATOM     16  C   LIG    1        3.967  -6.334   0.056  0.00  0.00    +0.280 C 
ATOM     17  N   LIG    1        2.557  -5.948  -0.030  0.00  0.00    -0.630 N 
ATOM     18  C   LIG    1        1.519  -6.979  -0.118  0.00  0.00    +0.280 C 
ENDBRANCH  10  17
ENDBRANCH   1  13
BRANCH   6  19
ATOM     19  N   LIG    1       -1.622   4.505   0.013  0.00  0.00    -0.670 N 
ATOM     20  H   LIG    1       -1.454   5.332   0.493  0.00  0.00    +0.410 HD
ATOM     21  C   LIG    1       -2.788   4.330  -0.640  0.00  0.00    +0.560 C 
ATOM     22  O   LIG    1       -3.031   3.265  -1.173  0.00  0.00    -0.510 OA
BRANCH  21  23
ATOM     23  C   LIG    1       -3.770   5.432  -0.707  0.00  0.00    -0.140 A 
ATOM     24  C   LIG    1       -3.497   6.654  -0.091  0.00  0.00    +0.040 A 
ATOM     25  C   LIG    1       -4.416   7.680  -0.162  0.00  0.00    +0.000 A 
ATOM     26  C   LIG    1       -5.612   7.496  -0.834  0.00  0.00    +0.040 A 
ATOM     27  C   LIG    1       -5.892   6.285  -1.442  0.00  0.00    +0.000 A 
ATOM     28  C   LIG    1       -4.979   5.253  -1.383  0.00  0.00    +0.080 A 
ENDBRANCH  21  23
ENDBRANCH   6  19
TORSDOF 4
