REMARK  Name = ZINCrH000004pNqy.0
REMARK                            x       y       z     vdW  Elec       q    Type
REMARK                         _______ _______ _______ _____ _____    ______ ____
ROOT
ATOM      1  C   LIG    1        1.370   6.332   3.467  0.00  0.00    +0.070 C 
ATOM      2  C   LIG    1        0.071   5.552   3.681  0.00  0.00    -0.040 C 
ATOM      3  C   LIG    1        0.388   4.075   3.755  0.00  0.00    +0.250 C 
ATOM      4  N   LIG    1       -0.773   3.239   3.639  0.00  0.00    -0.510 N 
ATOM      5  C   LIG    1       -1.577   3.081   4.757  0.00  0.00    +0.070 A 
ATOM      6  C   LIG    1       -2.124   1.801   4.915  0.00  0.00    +0.050 A 
ATOM      7  C   LIG    1       -2.934   1.496   5.984  0.00  0.00    +0.000 A 
ATOM      8  C   LIG    1       -3.219   2.469   6.924  0.00  0.00    +0.040 A 
ATOM      9  C   LIG    1       -2.692   3.731   6.779  0.00  0.00    -0.020 A 
ATOM     10  C   LIG    1       -1.865   4.058   5.694  0.00  0.00    +0.140 A 
ATOM     11  N   LIG    1       -1.423   5.366   5.670  0.00  0.00    -0.650 N 
ATOM     12  H   LIG    1       -1.826   5.910   6.365  0.00  0.00    +0.400 HD
ATOM     13  C   LIG    1       -0.585   6.037   4.924  0.00  0.00    +0.520 C 
ATOM     14  O   LIG    1       -0.317   7.166   5.280  0.00  0.00    -0.530 OA
ENDROOT
BRANCH   4  15
ATOM     15  C   LIG    1       -1.572   3.609   2.463  0.00  0.00    +0.180 C 
BRANCH  15  16
ATOM     16  C   LIG    1       -0.765   3.339   1.192  0.00  0.00    -0.010 C 
ATOM     17  C   LIG    1       -0.506   1.836   1.062  0.00  0.00    +0.040 C 
ATOM     18  C   LIG    1        0.329   1.573  -0.195  0.00  0.00    +0.300 C 
ATOM     19  N   LIG    1       -0.350   2.174  -1.351  0.00  0.00    -0.600 N 
ATOM     20  C   LIG    1       -0.723   3.593  -1.292  0.00  0.00    +0.270 C 
ATOM     21  C   LIG    1       -0.625   1.436  -2.446  0.00  0.00    +0.650 C 
ATOM     22  O   LIG    1       -0.311   0.263  -2.482  0.00  0.00    -0.570 OA
ATOM     23  C   LIG    1       -1.549   3.834  -0.025  0.00  0.00    +0.020 C 
BRANCH  21  24
ATOM     24  O   LIG    1       -1.247   2.000  -3.498  0.00  0.00    -0.360 OA
BRANCH  24  25
ATOM     25  C   LIG    1       -1.511   1.146  -4.643  0.00  0.00    +0.140 C 
ATOM     26  C   LIG    1       -0.189   0.603  -5.189  0.00  0.00    +0.040 C 
ATOM     27  C   LIG    1       -2.219   1.956  -5.731  0.00  0.00    +0.080 C 
ATOM     28  C   LIG    1       -2.403  -0.021  -4.213  0.00  0.00    +0.040 C 
ENDBRANCH  24  25
ENDBRANCH  21  24
ENDBRANCH  15  16
ENDBRANCH   4  15
TORSDOF 4
