REMARK  Name = ZINCpe000027pHtO.0
REMARK                            x       y       z     vdW  Elec       q    Type
REMARK                         _______ _______ _______ _____ _____    ______ ____
ROOT
ATOM      1  N   LIG    1        0.092  -4.853  -1.524  0.00  0.00    -0.990 NA
ENDROOT
BRANCH   1   2
ATOM      2  S   LIG    1        1.315  -5.532  -2.411  0.00  0.00    +2.610 S 
ATOM      3  O   LIG    1        2.487  -4.871  -1.954  0.00  0.00    -0.930 OA
ATOM      4  O   LIG    1        0.882  -5.407  -3.759  0.00  0.00    -0.940 OA
BRANCH   2   5
ATOM      5  C   LIG    1        1.327  -7.274  -1.905  0.00  0.00    -0.350 C 
BRANCH   5   6
ATOM      6  C   LIG    1        2.429  -8.017  -2.665  0.00  0.00    +0.350 C 
ATOM      7  O   LIG    1        3.703  -7.415  -2.380  0.00  0.00    -0.370 OA
ATOM      8  C   LIG    1        4.442  -7.509  -3.621  0.00  0.00    +0.220 C 
ATOM      9  C   LIG    1        3.325  -7.285  -4.670  0.00  0.00    +0.200 C 
ATOM     10  O   LIG    1        2.183  -7.932  -4.075  0.00  0.00    -0.380 OA
ENDBRANCH   5   6
ENDBRANCH   2   5
ENDBRANCH   1   2
BRANCH   1  11
ATOM     11  C   LIG    1        0.374  -4.278  -0.207  0.00  0.00    +0.370 C 
BRANCH  11  15
ATOM     12  C   LIG    1        0.884  -0.096  -0.566  0.00  0.00    +0.340 A 
ATOM     13  N   LIG    1        1.923  -0.914  -0.595  0.00  0.00    -0.520 NA
ATOM     14  C   LIG    1        1.778  -2.220  -0.478  0.00  0.00    +0.350 A 
ATOM     15  C   LIG    1        0.527  -2.784  -0.332  0.00  0.00    -0.190 A 
ATOM     16  C   LIG    1       -0.590  -1.960  -0.303  0.00  0.00    +0.130 A 
ATOM     17  C   LIG    1       -0.406  -0.594  -0.422  0.00  0.00    -0.120 A 
ATOM     18 CL   LIG    1       -1.767   0.484  -0.393  0.00  0.00    -0.040 Cl
BRANCH  12  20
ATOM     19  C   LIG    1        2.428   1.691  -0.829  0.00  0.00    +0.260 C 
ATOM     20  O   LIG    1        1.079   1.242  -0.684  0.00  0.00    -0.300 OA
ENDBRANCH  12  20
ENDBRANCH  11  15
ENDBRANCH   1  11
BRANCH   1  21
ATOM     21  C   LIG    1       -1.272  -4.827  -2.057  0.00  0.00    +0.300 C 
BRANCH  21  22
ATOM     22  C   LIG    1       -2.181  -5.686  -1.175  0.00  0.00    -0.020 C 
ATOM     23  C   LIG    1       -1.710  -7.141  -1.222  0.00  0.00    +0.030 C 
BRANCH  22  24
ATOM     24  C   LIG    1       -3.620  -5.599  -1.688  0.00  0.00    +0.180 C 
BRANCH  24  25
ATOM     25  O   LIG    1       -4.486  -6.306  -0.798  0.00  0.00    -0.570 OA
ATOM     26  H   LIG    1       -5.416  -6.292  -1.062  0.00  0.00    +0.380 HD
ENDBRANCH  24  25
ENDBRANCH  22  24
ENDBRANCH  21  22
ENDBRANCH   1  21
TORSDOF 10
