REMARK  Name = ZINCrH000004pu6P.1
REMARK                            x       y       z     vdW  Elec       q    Type
REMARK                         _______ _______ _______ _____ _____    ______ ____
ROOT
ATOM      1  C   LIG    1        3.061   1.025   1.435  0.00  0.00    +0.010 C 
ATOM      2  C   LIG    1        2.489   1.048   0.016  0.00  0.00    +0.210 C 
ENDROOT
BRANCH   2   3
ATOM      3  C   LIG    1        1.174   1.783   0.016  0.00  0.00    -0.040 A 
ATOM      4  C   LIG    1        1.156   3.166   0.008  0.00  0.00    +0.000 A 
ATOM      5  C   LIG    1       -0.049   3.845   0.008  0.00  0.00    +0.040 A 
ATOM      6  C   LIG    1       -1.238   3.143   0.015  0.00  0.00    -0.040 A 
ATOM      7  C   LIG    1       -1.224   1.754   0.017  0.00  0.00    +0.190 A 
ATOM      8  C   LIG    1       -0.013   1.076   0.023  0.00  0.00    +0.010 A 
BRANCH   7   9
ATOM      9  N   LIG    1       -2.428   1.040   0.019  0.00  0.00    -0.570 N 
ATOM     10  C   LIG    1       -3.769   1.632   0.140  0.00  0.00    +0.260 C 
ATOM     11  C   LIG    1       -4.714   0.416   0.082  0.00  0.00    +0.270 C 
ATOM     12  N   LIG    1       -3.805  -0.731  -0.056  0.00  0.00    -0.740 N 
ATOM     13  H   LIG    1       -4.078  -1.660  -0.118  0.00  0.00    +0.430 HD
ATOM     14  C   LIG    1       -2.541  -0.290  -0.083  0.00  0.00    +0.700 C 
ATOM     15  O   LIG    1       -1.582  -1.031  -0.190  0.00  0.00    -0.570 OA
ENDBRANCH   7   9
ENDBRANCH   2   3
BRANCH   2  16
ATOM     16  N   LIG    1        3.432   1.730  -0.881  0.00  0.00    -0.680 NA
ATOM     17  H   LIG    1        3.855   2.523  -0.425  0.00  0.00    +0.340 HD
BRANCH  16  18
ATOM     18  C   LIG    1        4.455   0.799  -1.376  0.00  0.00    +0.240 C 
BRANCH  18  19
ATOM     19  C   LIG    1        5.401   1.533  -2.291  0.00  0.00    -0.130 A 
ATOM     20  C   LIG    1        5.145   1.596  -3.631  0.00  0.00    +0.120 A 
ATOM     21  C   LIG    1        6.053   2.297  -4.448  0.00  0.00    -0.080 A 
ATOM     22  C   LIG    1        5.853   2.410  -5.833  0.00  0.00    +0.040 A 
ATOM     23  C   LIG    1        6.755   3.091  -6.591  0.00  0.00    +0.050 A 
ATOM     24  C   LIG    1        7.877   3.679  -6.012  0.00  0.00    +0.000 A 
ATOM     25  C   LIG    1        8.104   3.589  -4.670  0.00  0.00    +0.130 A 
ATOM     26  F   LIG    1        9.198   4.167  -4.127  0.00  0.00    -0.120 F 
ATOM     27  C   LIG    1        7.192   2.893  -3.854  0.00  0.00    +0.090 A 
ATOM     28  N   LIG    1        7.387   2.789  -2.536  0.00  0.00    -0.460 NA
ATOM     29  C   LIG    1        6.541   2.143  -1.771  0.00  0.00    +0.300 A 
ENDBRANCH  18  19
ENDBRANCH  16  18
ENDBRANCH   2  16
TORSDOF 5
