REMARK  Name = ZINCpe00000MJMsr.0
REMARK                            x       y       z     vdW  Elec       q    Type
REMARK                         _______ _______ _______ _____ _____    ______ ____
ROOT
ATOM      1  N   LIG    1       -4.950   2.237   0.270  0.00  0.00    -0.510 NA
ATOM      2  C   LIG    1       -3.532   2.596   0.397  0.00  0.00    +0.160 C 
ATOM      3  C   LIG    1       -2.678   1.327   0.361  0.00  0.00    +0.040 C 
ATOM      4  C   LIG    1       -3.095   0.404   1.510  0.00  0.00    +0.000 C 
ATOM      5  C   LIG    1       -4.587   0.085   1.382  0.00  0.00    +0.230 C 
ATOM      6  C   LIG    1       -5.385   1.391   1.388  0.00  0.00    +0.220 C 
ENDROOT
BRANCH   5   7
ATOM      7  C   LIG    1       -5.019  -0.775   2.542  0.00  0.00    -0.020 A 
ATOM      8  N   LIG    1       -5.934  -0.490   3.440  0.00  0.00    -0.270 NA
ATOM      9  N   LIG    1       -6.014  -1.468   4.272  0.00  0.00    -0.250 N 
ATOM     10  H   LIG    1       -6.617  -1.497   5.031  0.00  0.00    +0.470 HD
ATOM     11  N   LIG    1       -5.187  -2.401   3.959  0.00  0.00    -0.280 NA
ATOM     12  C   LIG    1       -4.529  -2.038   2.881  0.00  0.00    +0.190 A 
ENDBRANCH   5   7
BRANCH   5  13
ATOM     13  O   LIG    1       -4.823  -0.613   0.157  0.00  0.00    -0.520 OA
ATOM     14  H   LIG    1       -4.346  -1.451   0.084  0.00  0.00    +0.370 HD
ENDBRANCH   5  13
BRANCH   1  15
ATOM     15  C   LIG    1       -5.789   3.438   0.162  0.00  0.00    +0.210 C 
BRANCH  15  18
ATOM     16  C   LIG    1       -7.870   5.360   0.071  0.00  0.00    +0.280 C 
ATOM     17  N   LIG    1       -8.168   3.965  -0.262  0.00  0.00    -0.620 N 
ATOM     18  C   LIG    1       -7.190   3.039  -0.224  0.00  0.00    +0.500 C 
ATOM     19  O   LIG    1       -7.437   1.884  -0.499  0.00  0.00    -0.480 OA
BRANCH  17  20
ATOM     20  C   LIG    1       -9.530   3.577  -0.637  0.00  0.00    +0.350 C 
BRANCH  20  21
ATOM     21  C   LIG    1      -10.298   3.183   0.598  0.00  0.00    -0.150 A 
ATOM     22  C   LIG    1      -11.248   4.038   1.123  0.00  0.00    +0.050 A 
ATOM     23  C   LIG    1      -11.953   3.676   2.257  0.00  0.00    -0.010 A 
ATOM     24  C   LIG    1      -11.708   2.460   2.866  0.00  0.00    +0.040 A 
ATOM     25  C   LIG    1      -10.758   1.603   2.342  0.00  0.00    -0.030 A 
ATOM     26  C   LIG    1      -10.056   1.961   1.204  0.00  0.00    +0.120 A 
ATOM     27  F   LIG    1       -9.132   1.122   0.688  0.00  0.00    -0.110 F 
ENDBRANCH  20  21
ENDBRANCH  17  20
ENDBRANCH  15  18
ENDBRANCH   1  15
TORSDOF 6
