REMARK  Name = ZINCnE00000dSSdn.0
REMARK                            x       y       z     vdW  Elec       q    Type
REMARK                         _______ _______ _______ _____ _____    ______ ____
ROOT
ATOM      1  C   LIG    1       -0.013   1.076   0.008  0.00  0.00    +0.020 C 
ATOM      2  C   LIG    1       -1.187   1.733   0.017  0.00  0.00    +0.120 C 
ENDROOT
BRANCH   2   3
ATOM      3  C   LIG    1       -2.453   0.979   0.019  0.00  0.00    -0.010 A 
ATOM      4  C   LIG    1       -3.674   1.659   0.029  0.00  0.00    -0.110 A 
ATOM      5  C   LIG    1       -4.857   0.949   0.030  0.00  0.00    +0.120 A 
ATOM      6  C   LIG    1       -4.839  -0.434   0.022  0.00  0.00    -0.190 A 
ATOM      7  C   LIG    1       -3.631  -1.119   0.012  0.00  0.00    +0.300 A 
ATOM      8  O   LIG    1       -3.620  -2.478   0.004  0.00  0.00    -0.640 OA
ATOM      9  C   LIG    1       -2.437  -0.418   0.006  0.00  0.00    -0.090 A 
BRANCH   6  10
ATOM     10  N   LIG    1       -6.113  -1.188   0.024  0.00  0.00    +0.070 N 
ATOM     11  O   LIG    1       -6.100  -2.406   0.017  0.00  0.00    -0.170 OA
ATOM     12  O   LIG    1       -7.174  -0.590   0.032  0.00  0.00    -0.270 OA
ENDBRANCH   6  10
ENDBRANCH   2   3
BRANCH   1  16
ATOM     13  C   LIG    1        2.583   3.608  -0.003  0.00  0.00    +0.020 A 
ATOM     14  C   LIG    1        3.569   2.665  -0.018  0.00  0.00    -0.190 A 
ATOM     15  S   LIG    1        2.855   1.111  -0.019  0.00  0.00    +0.190 S 
ATOM     16  C   LIG    1        1.248   1.827   0.000  0.00  0.00    +0.100 A 
ATOM     17  C   LIG    1        5.049   2.948  -0.031  0.00  0.00    +0.180 C 
ATOM     18  N   LIG    1        1.349   3.124   0.000  0.00  0.00    -0.430 NA
BRANCH  13  19
ATOM     19  C   LIG    1        2.867   5.052   0.001  0.00  0.00    +0.550 C 
ATOM     20  O   LIG    1        4.018   5.444  -0.008  0.00  0.00    -0.500 OA
BRANCH  19  21
ATOM     21  O   LIG    1        1.852   5.939   0.016  0.00  0.00    -0.330 OA
BRANCH  21  23
ATOM     22  C   LIG    1        0.933   8.194   0.036  0.00  0.00    +0.070 C 
ATOM     23  C   LIG    1        2.207   7.346   0.019  0.00  0.00    +0.200 C 
ENDBRANCH  21  23
ENDBRANCH  19  21
ENDBRANCH  13  19
ENDBRANCH   1  16
TORSDOF 6
