REMARK  Name = ZINCvU0000000F5L.0
REMARK                            x       y       z     vdW  Elec       q    Type
REMARK                         _______ _______ _______ _____ _____    ______ ____
ROOT
ATOM      1  C   LIG    1        2.171  -4.973  -0.071  0.00  0.00    +0.520 C 
ATOM      2  O   LIG    1        2.877  -5.955  -0.179  0.00  0.00    -0.490 OA
ENDROOT
BRANCH   1   3
ATOM      3  C   LIG    1        2.775  -3.624  -0.075  0.00  0.00    -0.070 A 
ATOM      4  C   LIG    1        1.989  -2.482  -0.061  0.00  0.00    +0.070 A 
ATOM      5  C   LIG    1        2.607  -1.219  -0.066  0.00  0.00    +0.230 A 
ATOM      6  N   LIG    1        3.918  -1.077  -0.087  0.00  0.00    -0.440 NA
ATOM      7  C   LIG    1        4.747  -2.122  -0.095  0.00  0.00    +0.130 A 
ATOM      8  C   LIG    1        6.142  -1.940  -0.112  0.00  0.00    +0.050 A 
ATOM      9  C   LIG    1        6.965  -3.026  -0.125  0.00  0.00    +0.040 A 
ATOM     10  C   LIG    1        6.448  -4.319  -0.122  0.00  0.00    +0.030 A 
ATOM     11  C   LIG    1        5.101  -4.533  -0.107  0.00  0.00    +0.050 A 
ATOM     12  C   LIG    1        4.228  -3.441  -0.092  0.00  0.00    -0.060 A 
BRANCH   5  13
ATOM     13  C   LIG    1        1.760  -0.011  -0.052  0.00  0.00    -0.170 A 
ATOM     14  C   LIG    1        2.214   1.260  -0.054  0.00  0.00    +0.070 A 
ATOM     15  C   LIG    1        1.230   2.224  -0.040  0.00  0.00    +0.010 A 
ATOM     16  C   LIG    1       -0.023   1.754  -0.026  0.00  0.00    -0.030 A 
ATOM     17  S   LIG    1        0.001  -0.004  -0.032  0.00  0.00    +0.140 S 
ENDBRANCH   5  13
ENDBRANCH   1   3
BRANCH   1  18
ATOM     18  O   LIG    1        0.836  -5.113   0.051  0.00  0.00    -0.320 OA
BRANCH  18  19
ATOM     19  C   LIG    1        0.312  -6.467   0.046  0.00  0.00    +0.270 C 
BRANCH  19  22
ATOM     20  N   LIG    1       -1.894  -7.574   0.213  0.00  0.00    -0.670 N 
ATOM     21  H   LIG    1       -1.433  -8.427   0.213  0.00  0.00    +0.420 HD
ATOM     22  C   LIG    1       -1.187  -6.426   0.192  0.00  0.00    +0.520 C 
ATOM     23  O   LIG    1       -1.758  -5.360   0.289  0.00  0.00    -0.490 OA
BRANCH  20  27
ATOM     24  C   LIG    1       -6.062  -7.454   0.274  0.00  0.00    +0.130 A 
ATOM     25  C   LIG    1       -5.351  -6.494  -0.430  0.00  0.00    -0.040 A 
ATOM     26  C   LIG    1       -3.971  -6.533  -0.450  0.00  0.00    +0.070 A 
ATOM     27  C   LIG    1       -3.294  -7.534   0.234  0.00  0.00    +0.120 A 
ATOM     28  C   LIG    1       -4.006  -8.499   0.934  0.00  0.00    +0.060 A 
ATOM     29  C   LIG    1       -5.387  -8.456   0.959  0.00  0.00    -0.050 A 
ATOM     30 CL   LIG    1       -6.277  -9.658   1.839  0.00  0.00    -0.050 Cl
BRANCH  24  32
ATOM     31  C   LIG    1       -8.050  -6.357  -0.432  0.00  0.00    +0.250 C 
ATOM     32  O   LIG    1       -7.421  -7.415   0.294  0.00  0.00    -0.300 OA
ENDBRANCH  24  32
ENDBRANCH  20  27
ENDBRANCH  19  22
ENDBRANCH  18  19
ENDBRANCH   1  18
TORSDOF 7
