REMARK  Name = ZINCvU0000000JJX.0
REMARK                            x       y       z     vdW  Elec       q    Type
REMARK                         _______ _______ _______ _____ _____    ______ ____
ROOT
ATOM      1  C   LIG    1        2.420   3.937  -0.001  0.00  0.00    +0.560 C 
ATOM      2  N   LIG    1        2.398   5.282  -0.096  0.00  0.00    -0.540 N 
ATOM      3  C   LIG    1        1.122   6.010  -0.081  0.00  0.00    +0.280 C 
ATOM      4  C   LIG    1        1.175   7.070  -1.189  0.00  0.00    +0.030 C 
ATOM      5  C   LIG    1        2.288   8.067  -0.866  0.00  0.00    +0.100 C 
ATOM      6  C   LIG    1        3.578   7.344  -0.579  0.00  0.00    -0.080 A 
ATOM      7  C   LIG    1        4.771   8.037  -0.689  0.00  0.00    +0.040 A 
ATOM      8  C   LIG    1        5.975   7.400  -0.430  0.00  0.00    +0.090 A 
ATOM      9  C   LIG    1        5.987   6.064  -0.058  0.00  0.00    -0.030 A 
ATOM     10  C   LIG    1        4.799   5.370   0.052  0.00  0.00    +0.070 A 
ATOM     11  C   LIG    1        3.592   6.009  -0.204  0.00  0.00    +0.140 A 
ATOM     12  O   LIG    1        3.482   3.347   0.022  0.00  0.00    -0.510 OA
ENDROOT
BRANCH   1  16
ATOM     13  C   LIG    1       -1.225   1.767   0.213  0.00  0.00    -0.090 A 
ATOM     14  C   LIG    1       -0.207   1.324  -0.613  0.00  0.00    +0.030 A 
ATOM     15  C   LIG    1        0.979   2.025  -0.688  0.00  0.00    +0.080 A 
ATOM     16  C   LIG    1        1.152   3.181   0.075  0.00  0.00    -0.120 A 
ATOM     17  C   LIG    1        0.123   3.619   0.910  0.00  0.00    +0.040 A 
ATOM     18  C   LIG    1       -1.058   2.909   0.976  0.00  0.00    +0.050 A 
BRANCH  13  19
ATOM     19  C   LIG    1       -2.520   0.999   0.285  0.00  0.00    +0.380 C 
BRANCH  19  26
ATOM     20  C   LIG    1       -1.525  -1.913  -0.087  0.00  0.00    +0.140 C 
ATOM     21  C   LIG    1       -2.000  -1.280   1.196  0.00  0.00    +0.090 A 
ATOM     22  C   LIG    1       -2.068  -1.882   2.406  0.00  0.00    -0.120 A 
ATOM     23  C   LIG    1       -2.566  -0.951   3.322  0.00  0.00    +0.080 A 
ATOM     24  N   LIG    1       -2.784   0.172   2.687  0.00  0.00    -0.290 NA
ATOM     25  C   LIG    1       -2.810  -1.198   4.789  0.00  0.00    +0.160 C 
ATOM     26  N   LIG    1       -2.431  -0.010   1.344  0.00  0.00    -0.370 N 
ENDBRANCH  19  26
ENDBRANCH  13  19
ENDBRANCH   1  16
BRANCH   8  27
ATOM     27  O   LIG    1        7.144   8.086  -0.540  0.00  0.00    -0.310 OA
BRANCH  27  28
ATOM     28  C   LIG    1        8.346   7.368  -0.258  0.00  0.00    +0.600 C 
ATOM     29  F   LIG    1        8.310   6.896   1.058  0.00  0.00    -0.160 F 
ATOM     30  F   LIG    1        9.446   8.217  -0.419  0.00  0.00    -0.130 F 
ATOM     31  F   LIG    1        8.460   6.286  -1.138  0.00  0.00    -0.160 F 
ENDBRANCH  27  28
ENDBRANCH   8  27
TORSDOF 5
