REMARK  Name = ZINCqH00000071Qe.0
REMARK                            x       y       z     vdW  Elec       q    Type
REMARK                         _______ _______ _______ _____ _____    ______ ____
ROOT
ATOM      1  C   LIG    1       -1.116   1.259  -3.559  0.00  0.00    +0.520 C 
ATOM      2  N   LIG    1       -0.839   0.778  -4.788  0.00  0.00    -0.670 N 
ATOM      3  H   LIG    1       -0.021   0.279  -4.941  0.00  0.00    +0.420 HD
ATOM      4  O   LIG    1       -2.087   1.966  -3.389  0.00  0.00    -0.480 OA
ENDROOT
BRANCH   2   5
ATOM      5  C   LIG    1       -1.732   0.997  -5.842  0.00  0.00    +0.210 A 
ATOM      6  C   LIG    1       -3.077   1.226  -5.580  0.00  0.00    +0.040 A 
ATOM      7  C   LIG    1       -3.955   1.448  -6.623  0.00  0.00    +0.130 A 
ATOM      8  C   LIG    1       -3.498   1.432  -7.928  0.00  0.00    -0.060 A 
ATOM      9  C   LIG    1       -2.161   1.199  -8.193  0.00  0.00    +0.130 A 
ATOM     10  C   LIG    1       -1.277   0.982  -7.154  0.00  0.00    -0.120 A 
ATOM     11  C   LIG    1        0.180   0.728  -7.444  0.00  0.00    +0.110 C 
BRANCH   8  12
ATOM     12  N   LIG    1       -4.443   1.663  -9.043  0.00  0.00    +0.030 N 
ATOM     13  O   LIG    1       -5.621   1.868  -8.812  0.00  0.00    -0.160 OA
ATOM     14  O   LIG    1       -4.042   1.649 -10.194  0.00  0.00    -0.160 OA
ENDBRANCH   8  12
ENDBRANCH   2   5
BRANCH   1  15
ATOM     15  C   LIG    1       -0.219   0.918  -2.397  0.00  0.00    +0.220 C 
BRANCH  15  16
ATOM     16  N   LIG    1       -0.732   1.559  -1.179  0.00  0.00    -0.510 NA
ATOM     17  C   LIG    1       -0.639   3.022  -1.274  0.00  0.00    +0.190 C 
BRANCH  16  18
ATOM     18  C   LIG    1       -0.029   1.063   0.012  0.00  0.00    +0.250 C 
BRANCH  18  25
ATOM     19  C   LIG    1       -1.877   0.900   1.698  0.00  0.00    +0.170 A 
ATOM     20  C   LIG    1       -2.526   1.350   2.839  0.00  0.00    -0.070 A 
ATOM     21  C   LIG    1       -2.034   2.442   3.527  0.00  0.00    +0.100 A 
ATOM     22  C   LIG    1       -0.896   3.087   3.080  0.00  0.00    -0.130 A 
ATOM     23  C   LIG    1       -0.244   2.637   1.946  0.00  0.00    +0.100 A 
ATOM     24 BR   LIG    1       -0.225   4.582   4.024  0.00  0.00    -0.050 Br
ATOM     25  C   LIG    1       -0.736   1.549   1.251  0.00  0.00    -0.110 A 
BRANCH  19  27
ATOM     26  C   LIG    1       -3.539  -0.792   1.538  0.00  0.00    +0.240 C 
ATOM     27  O   LIG    1       -2.360  -0.174   1.020  0.00  0.00    -0.300 OA
ENDBRANCH  19  27
ENDBRANCH  18  25
ENDBRANCH  16  18
ENDBRANCH  15  16
ENDBRANCH   1  15
TORSDOF 7
