REMARK  Name = ZINCrg00000J0kD5.0
REMARK                            x       y       z     vdW  Elec       q    Type
REMARK                         _______ _______ _______ _____ _____    ______ ____
ROOT
ATOM      1  C   LIG    1        1.777   2.938  -0.891  0.00  0.00    +0.560 C 
ATOM      2  N   LIG    1        1.329   2.128   0.088  0.00  0.00    -0.600 N 
ATOM      3  C   LIG    1       -0.098   1.782   0.191  0.00  0.00    +0.250 C 
ATOM      4  C   LIG    1       -0.218   0.258   0.310  0.00  0.00    +0.230 C 
ATOM      5  O   LIG    1        0.624  -0.199   1.371  0.00  0.00    -0.370 OA
ATOM      6  C   LIG    1        2.016   0.052   1.162  0.00  0.00    +0.220 C 
ATOM      7  C   LIG    1        2.251   1.565   1.087  0.00  0.00    +0.310 C 
ATOM      8  O   LIG    1        2.941   3.285  -0.907  0.00  0.00    -0.490 OA
ENDROOT
BRANCH   1  15
ATOM      9  C   LIG    1       -1.594   6.193  -2.626  0.00  0.00    +0.160 C 
ATOM     10  C   LIG    1       -0.762   4.948  -2.797  0.00  0.00    +0.280 A 
ATOM     11  N   LIG    1       -0.847   4.247  -3.905  0.00  0.00    -0.530 NA
ATOM     12  C   LIG    1       -0.118   3.139  -4.078  0.00  0.00    +0.640 A 
ATOM     13  N   LIG    1        0.730   2.710  -3.125  0.00  0.00    -0.610 N 
ATOM     14  H   LIG    1        1.254   1.906  -3.268  0.00  0.00    +0.420 HD
ATOM     15  C   LIG    1        0.850   3.404  -1.951  0.00  0.00    +0.180 A 
ATOM     16  O   LIG    1       -0.220   2.510  -5.118  0.00  0.00    -0.520 OA
ATOM     17  C   LIG    1        0.105   4.536  -1.773  0.00  0.00    -0.070 A 
ENDBRANCH   1  15
BRANCH   6  18
ATOM     18  C   LIG    1        2.809  -0.525   2.307  0.00  0.00    +0.200 A 
ATOM     19  C   LIG    1        2.178  -1.267   3.293  0.00  0.00    -0.070 A 
ATOM     20  C   LIG    1        2.944  -1.780   4.329  0.00  0.00    +0.340 A 
ATOM     21  N   LIG    1        4.246  -1.547   4.345  0.00  0.00    -0.550 NA
ATOM     22  C   LIG    1        4.818  -0.834   3.386  0.00  0.00    +0.490 A 
ATOM     23  N   LIG    1        4.116  -0.334   2.380  0.00  0.00    -0.520 NA
BRANCH  22  24
ATOM     24  N   LIG    1        6.183  -0.609   3.434  0.00  0.00    -0.450 N 
ATOM     25  C   LIG    1        6.480   0.840   3.562  0.00  0.00    +0.200 C 
ATOM     26  C   LIG    1        7.926   0.858   4.119  0.00  0.00    +0.030 C 
ATOM     27  C   LIG    1        7.936  -0.342   5.093  0.00  0.00    +0.020 C 
ATOM     28  C   LIG    1        6.784  -1.250   4.624  0.00  0.00    +0.220 C 
ENDBRANCH  22  24
ENDBRANCH   6  18
TORSDOF 3
