REMARK  Name = ZINCb80000003Wu9.0
REMARK                            x       y       z     vdW  Elec       q    Type
REMARK                         _______ _______ _______ _____ _____    ______ ____
ROOT
ATOM      1  O   LIG    1       -3.099   2.324   1.459  0.00  0.00    -0.430 OA
ATOM      2  C   LIG    1       -2.202   1.891   0.776  0.00  0.00    +0.390 C 
ATOM      3  C   LIG    1       -2.282   1.528  -0.699  0.00  0.00    +0.030 C 
ATOM      4  C   LIG    1       -0.820   1.628  -1.201  0.00  0.00    +0.050 C 
ATOM      5  C   LIG    1       -0.013   1.086   0.008  0.00  0.00    +0.070 C 
ATOM      6  C   LIG    1       -0.788   1.609   1.225  0.00  0.00    -0.170 C 
ATOM      7  C   LIG    1       -0.767   0.575   2.364  0.00  0.00    +0.070 C 
ATOM      8  C   LIG    1        0.416   1.083   3.222  0.00  0.00    +0.270 C 
ATOM      9  N   LIG    1        0.527   2.517   2.928  0.00  0.00    -0.730 N 
ATOM     10  H   LIG    1        1.014   3.152   3.476  0.00  0.00    +0.420 HD
ATOM     11  C   LIG    1       -0.134   2.837   1.799  0.00  0.00    +0.540 C 
ATOM     12  O   LIG    1       -0.193   3.948   1.316  0.00  0.00    -0.520 OA
ENDROOT
TORSDOF 0
