REMARK  Name = ZINCqH00000501an.0
REMARK                            x       y       z     vdW  Elec       q    Type
REMARK                         _______ _______ _______ _____ _____    ______ ____
ROOT
ATOM      1  C   LIG    1        0.854   6.834  -1.389  0.00  0.00    +0.510 C 
ATOM      2  N   LIG    1        1.687   7.864  -1.637  0.00  0.00    -0.670 N 
ATOM      3  H   LIG    1        2.033   8.395  -0.902  0.00  0.00    +0.410 HD
ATOM      4  O   LIG    1        0.353   6.224  -2.310  0.00  0.00    -0.510 OA
ENDROOT
BRANCH   2   5
ATOM      5  C   LIG    1        2.051   8.169  -2.955  0.00  0.00    +0.070 A 
ATOM      6  C   LIG    1        1.140   8.001  -3.996  0.00  0.00    +0.090 A 
ATOM      7  C   LIG    1        1.543   8.314  -5.282  0.00  0.00    -0.020 A 
ATOM      8  C   LIG    1        2.835   8.784  -5.492  0.00  0.00    +0.290 A 
ATOM      9  N   LIG    1        3.674   8.931  -4.479  0.00  0.00    -0.500 NA
ATOM     10  C   LIG    1        3.322   8.647  -3.239  0.00  0.00    +0.260 A 
BRANCH   8  11
ATOM     11  N   LIG    1        3.251   9.102  -6.782  0.00  0.00    -0.460 N 
ATOM     12  C   LIG    1        2.442  10.214  -7.342  0.00  0.00    +0.180 C 
ATOM     13  C   LIG    1        3.337  10.765  -8.480  0.00  0.00    +0.040 C 
ATOM     14  C   LIG    1        4.760  10.649  -7.888  0.00  0.00    +0.020 C 
ATOM     15  C   LIG    1        4.650   9.580  -6.785  0.00  0.00    +0.200 C 
ENDBRANCH   8  11
ENDBRANCH   2   5
BRANCH   1  16
ATOM     16  C   LIG    1        0.544   6.440   0.033  0.00  0.00    +0.160 C 
BRANCH  16  19
ATOM     17  C   LIG    1       -2.555   6.599   0.050  0.00  0.00    +0.140 C 
ATOM     18  C   LIG    1       -1.745   5.328   0.042  0.00  0.00    +0.110 A 
ATOM     19  C   LIG    1       -0.404   5.269   0.035  0.00  0.00    -0.160 A 
ATOM     20  C   LIG    1       -0.038   3.851   0.029  0.00  0.00    -0.060 A 
ATOM     21  C   LIG    1        1.178   3.164   0.021  0.00  0.00    +0.020 A 
ATOM     22  C   LIG    1        1.181   1.786   0.018  0.00  0.00    +0.080 A 
ATOM     23  C   LIG    1       -0.017   1.081   0.023  0.00  0.00    +0.010 A 
ATOM     24  C   LIG    1       -1.223   1.746   0.025  0.00  0.00    +0.030 A 
ATOM     25  F   LIG    1        2.355   1.117   0.011  0.00  0.00    -0.140 F 
ATOM     26  C   LIG    1       -1.249   3.136   0.034  0.00  0.00    +0.090 A 
ATOM     27  N   LIG    1       -2.268   4.064   0.042  0.00  0.00    -0.590 N 
ATOM     28  H   LIG    1       -3.215   3.852   0.046  0.00  0.00    +0.420 HD
ENDBRANCH  16  19
ENDBRANCH   1  16
TORSDOF 4
