REMARK  Name = ZINCrH000004tRx2.0
REMARK                            x       y       z     vdW  Elec       q    Type
REMARK                         _______ _______ _______ _____ _____    ______ ____
ROOT
ATOM      1  C   LIG    1       -2.208   6.195   0.046  0.00  0.00    +0.150 A 
ATOM      2  N   LIG    1       -0.990   6.689   0.043  0.00  0.00    -0.290 NA
ATOM      3  N   LIG    1       -1.033   7.973   0.050  0.00  0.00    -0.260 NA
ATOM      4  C   LIG    1       -2.281   8.381   0.058  0.00  0.00    +0.240 A 
ATOM      5  N   LIG    1       -3.074   7.255   0.051  0.00  0.00    -0.410 N 
ENDROOT
BRANCH   4   6
ATOM      6  C   LIG    1       -2.747   9.784   0.068  0.00  0.00    -0.030 A 
ATOM      7  C   LIG    1       -4.074  10.079   0.382  0.00  0.00    +0.060 A 
ATOM      8  C   LIG    1       -4.502  11.390   0.394  0.00  0.00    -0.010 A 
ATOM      9  C   LIG    1       -3.619  12.413   0.083  0.00  0.00    +0.120 A 
ATOM     10  C   LIG    1       -2.302  12.125  -0.235  0.00  0.00    +0.000 A 
ATOM     11  F   LIG    1       -4.045  13.695   0.090  0.00  0.00    -0.130 F 
ATOM     12  C   LIG    1       -1.862  10.818  -0.244  0.00  0.00    +0.110 A 
ENDBRANCH   4   6
BRANCH   5  13
ATOM     13  C   LIG    1       -4.475   7.205   0.051  0.00  0.00    +0.100 A 
ATOM     14  C   LIG    1       -5.189   7.696  -1.033  0.00  0.00    +0.030 A 
ATOM     15  C   LIG    1       -6.569   7.640  -1.032  0.00  0.00    +0.040 A 
ATOM     16  C   LIG    1       -7.240   7.106   0.052  0.00  0.00    +0.040 A 
ATOM     17  C   LIG    1       -6.532   6.620   1.136  0.00  0.00    +0.040 A 
ATOM     18  C   LIG    1       -5.152   6.668   1.139  0.00  0.00    +0.030 A 
ENDBRANCH   5  13
BRANCH   1  19
ATOM     19  S   LIG    1       -2.645   4.488   0.039  0.00  0.00    +0.100 S 
BRANCH  19  20
ATOM     20  C   LIG    1       -0.996   3.742   0.027  0.00  0.00    +0.110 C 
BRANCH  20  22
ATOM     21  O   LIG    1       -2.222   1.726   0.022  0.00  0.00    -0.520 OA
ATOM     22  C   LIG    1       -1.124   2.240   0.020  0.00  0.00    +0.550 C 
ATOM     23  N   LIG    1       -0.018   1.470   0.010  0.00  0.00    -0.610 N 
ATOM     24  C   LIG    1        1.368   1.960  -0.001  0.00  0.00    +0.230 C 
ATOM     25  C   LIG    1        2.291   0.724  -0.043  0.00  0.00    +0.040 C 
ATOM     26  C   LIG    1        1.368  -0.379  -0.625  0.00  0.00    +0.040 C 
ATOM     27  C   LIG    1        0.002  -0.004   0.002  0.00  0.00    +0.260 C 
ENDBRANCH  20  22
ENDBRANCH  19  20
ENDBRANCH   1  19
TORSDOF 5
