REMARK  Name = ZINCpk00000eb7i2.0
REMARK                            x       y       z     vdW  Elec       q    Type
REMARK                         _______ _______ _______ _____ _____    ______ ____
ROOT
ATOM      1  C   LIG    1        1.418   1.990  -0.001  0.00  0.00    -0.010 C 
ATOM      2  C   LIG    1        2.121   1.588   1.298  0.00  0.00    +0.020 C 
ATOM      3  C   LIG    1        3.536   2.172   1.306  0.00  0.00    +0.030 C 
ATOM      4  C   LIG    1        3.455   3.693   1.156  0.00  0.00    +0.180 C 
ATOM      5  N   LIG    1        2.775   4.027  -0.102  0.00  0.00    -0.500 NA
ATOM      6  C   LIG    1        1.398   3.517  -0.113  0.00  0.00    +0.190 C 
ENDROOT
BRANCH   5   7
ATOM      7  C   LIG    1        2.802   5.475  -0.348  0.00  0.00    +0.190 C 
ATOM      8  C   LIG    1        4.253   5.955  -0.407  0.00  0.00    +0.070 C 
BRANCH   7   9
ATOM      9  C   LIG    1        2.083   6.187   0.769  0.00  0.00    +0.480 C 
ATOM     10  N   LIG    1        1.980   7.531   0.756  0.00  0.00    -0.640 N 
ATOM     11  H   LIG    1        2.370   8.040   0.028  0.00  0.00    +0.420 HD
ATOM     12  O   LIG    1        1.596   5.550   1.680  0.00  0.00    -0.460 OA
BRANCH  10  13
ATOM     13  C   LIG    1        1.317   8.187   1.786  0.00  0.00    +0.530 A 
ATOM     14  N   LIG    1        0.787   7.476   2.769  0.00  0.00    -0.500 NA
ATOM     15  C   LIG    1        0.153   8.070   3.767  0.00  0.00    +0.350 A 
ATOM     16  C   LIG    1        0.039   9.451   3.769  0.00  0.00    -0.110 A 
ATOM     17  C   LIG    1        0.602  10.163   2.721  0.00  0.00    +0.350 A 
ATOM     18  N   LIG    1        1.226   9.507   1.757  0.00  0.00    -0.550 NA
ENDBRANCH  10  13
ENDBRANCH   7   9
ENDBRANCH   5   7
BRANCH   1  19
ATOM     19  C   LIG    1       -0.018   1.461   0.010  0.00  0.00    +0.330 C 
BRANCH  19  23
ATOM     20  C   LIG    1        0.061  -3.325   1.513  0.00  0.00    +0.190 C 
ATOM     21  C   LIG    1        0.035  -2.077   0.667  0.00  0.00    +0.220 A 
ATOM     22  N   LIG    1        0.024  -0.852   1.122  0.00  0.00    -0.310 NA
ATOM     23  N   LIG    1        0.002  -0.004   0.002  0.00  0.00    -0.370 N 
ATOM     24  C   LIG    1       -0.003  -0.804  -1.078  0.00  0.00    +0.280 A 
ATOM     25  C   LIG    1       -0.029  -0.350  -2.515  0.00  0.00    +0.190 C 
ATOM     26  N   LIG    1        0.022  -2.045  -0.665  0.00  0.00    -0.540 NA
ENDBRANCH  19  23
ENDBRANCH   1  19
TORSDOF 5
