REMARK  Name = ZINCkj000005hr1d.1
REMARK                            x       y       z     vdW  Elec       q    Type
REMARK                         _______ _______ _______ _____ _____    ______ ____
ROOT
ATOM      1  C   LIG    1       -1.638   4.516  -2.911  0.00  0.00    +0.340 C 
ATOM      2  N   LIG    1       -1.552   3.888  -1.586  0.00  0.00    -0.390 N 
ATOM      3  C   LIG    1       -2.738   3.046  -1.361  0.00  0.00    +0.280 C 
ATOM      4  C   LIG    1       -2.243   1.735  -0.697  0.00  0.00    +0.050 C 
ATOM      5  C   LIG    1       -2.087   1.966   0.814  0.00  0.00    +0.230 C 
ATOM      6  N   LIG    1       -0.726   1.572   1.195  0.00  0.00    -0.620 N 
ATOM      7  C   LIG    1       -0.013   1.086   0.008  0.00  0.00    +0.310 C 
ATOM      8  C   LIG    1       -0.211   1.645   2.438  0.00  0.00    +0.610 C 
ATOM      9  O   LIG    1        0.935   1.290   2.644  0.00  0.00    -0.480 OA
ATOM     10  C   LIG    1       -0.784   1.609  -1.217  0.00  0.00    +0.040 C 
ATOM     11  C   LIG    1       -0.344   3.051  -1.516  0.00  0.00    +0.260 C 
ATOM     12  H   LIG    1       -1.507   4.604  -0.876  0.00  0.00    +0.430 HD
ENDROOT
BRANCH   8  13
ATOM     13  C   LIG    1       -1.031   2.152   3.543  0.00  0.00    +0.020 A 
ATOM     14  C   LIG    1       -0.637   2.281   4.858  0.00  0.00    +0.120 A 
ATOM     15  C   LIG    1       -1.726   2.800   5.565  0.00  0.00    -0.080 A 
ATOM     16  C   LIG    1       -2.745   2.975   4.689  0.00  0.00    +0.110 A 
ATOM     17 BR   LIG    1       -1.771   3.189   7.415  0.00  0.00    +0.060 Br
ATOM     18  N   LIG    1       -2.333   2.590   3.455  0.00  0.00    -0.510 N 
ATOM     19  H   LIG    1       -2.867   2.617   2.647  0.00  0.00    +0.430 HD
BRANCH  16  20
ATOM     20  N   LIG    1       -4.086   3.506   5.022  0.00  0.00    +0.040 N 
ATOM     21  O   LIG    1       -4.347   3.827   6.167  0.00  0.00    -0.090 OA
ATOM     22  O   LIG    1       -4.929   3.622   4.150  0.00  0.00    -0.170 OA
ENDBRANCH  16  20
ENDBRANCH   8  13
TORSDOF 2
