REMARK  Name = ZINCkj000005hr1d.0
REMARK                            x       y       z     vdW  Elec       q    Type
REMARK                         _______ _______ _______ _____ _____    ______ ____
ROOT
ATOM      1  C   LIG    1       -7.505  -4.091   0.739  0.00  0.00    +0.340 C 
ATOM      2  N   LIG    1       -7.058  -3.085  -0.234  0.00  0.00    -0.400 N 
ATOM      3  C   LIG    1       -5.647  -2.693   0.030  0.00  0.00    +0.280 C 
ATOM      4  C   LIG    1       -5.488  -1.334  -0.686  0.00  0.00    +0.010 C 
ATOM      5  C   LIG    1       -4.717  -0.373   0.237  0.00  0.00    +0.310 C 
ATOM      6  N   LIG    1       -5.449   0.912   0.135  0.00  0.00    -0.630 N 
ATOM      7  C   LIG    1       -6.875   0.504   0.158  0.00  0.00    +0.280 C 
ATOM      8  C   LIG    1       -4.941   2.157   0.037  0.00  0.00    +0.620 C 
ATOM      9  O   LIG    1       -3.740   2.315  -0.087  0.00  0.00    -0.480 OA
ATOM     10  C   LIG    1       -6.929  -0.749  -0.743  0.00  0.00    +0.010 C 
ATOM     11  C   LIG    1       -7.824  -1.809  -0.064  0.00  0.00    +0.290 C 
ATOM     12  H   LIG    1       -7.160  -3.433  -1.175  0.00  0.00    +0.430 HD
ENDROOT
BRANCH   8  13
ATOM     13  C   LIG    1       -5.833   3.320   0.081  0.00  0.00    +0.030 A 
ATOM     14  C   LIG    1       -5.477   4.630  -0.161  0.00  0.00    +0.120 A 
ATOM     15  C   LIG    1       -6.634   5.403  -0.017  0.00  0.00    -0.080 A 
ATOM     16  C   LIG    1       -7.651   4.572   0.313  0.00  0.00    +0.110 A 
ATOM     17 BR   LIG    1       -6.755   7.277  -0.239  0.00  0.00    +0.050 Br
ATOM     18  N   LIG    1       -7.178   3.302   0.372  0.00  0.00    -0.510 N 
ATOM     19  H   LIG    1       -7.701   2.513   0.585  0.00  0.00    +0.430 HD
BRANCH  16  20
ATOM     20  N   LIG    1       -9.052   4.981   0.561  0.00  0.00    +0.050 N 
ATOM     21  O   LIG    1       -9.366   6.155   0.485  0.00  0.00    -0.090 OA
ATOM     22  O   LIG    1       -9.890   4.144   0.847  0.00  0.00    -0.170 OA
ENDBRANCH  16  20
ENDBRANCH   8  13
TORSDOF 2
