REMARK  Name = ZINCrD0000071bIi.0
REMARK                            x       y       z     vdW  Elec       q    Type
REMARK                         _______ _______ _______ _____ _____    ______ ____
ROOT
ATOM      1  C   LIG    1       -4.816   3.913   0.078  0.00  0.00    +0.520 C 
ATOM      2  N   LIG    1       -6.056   3.383   0.081  0.00  0.00    -0.720 N 
ATOM      3  H   LIG    1       -6.171   2.420   0.070  0.00  0.00    +0.410 HD
ATOM      4  O   LIG    1       -4.672   5.117   0.091  0.00  0.00    -0.510 OA
ENDROOT
BRANCH   1   5
ATOM      5  C   LIG    1       -3.610   3.010   0.058  0.00  0.00    +0.240 C 
BRANCH   5   6
ATOM      6  O   LIG    1       -2.421   3.803   0.059  0.00  0.00    -0.290 OA
BRANCH   6  10
ATOM      7  C   LIG    1        1.176   1.784   0.007  0.00  0.00    -0.100 A 
ATOM      8  C   LIG    1       -0.012   1.077   0.007  0.00  0.00    +0.050 A 
ATOM      9  C   LIG    1       -1.218   1.751   0.018  0.00  0.00    -0.080 A 
ATOM     10  C   LIG    1       -1.236   3.138   0.042  0.00  0.00    +0.120 A 
ATOM     11  C   LIG    1       -0.043   3.845   0.041  0.00  0.00    -0.010 A 
ATOM     12  C   LIG    1        1.161   3.166   0.024  0.00  0.00    +0.050 A 
BRANCH   7  14
ATOM     13  C   LIG    1        2.572   0.184  -1.273  0.00  0.00    +0.040 C 
ATOM     14  C   LIG    1        2.490   1.047  -0.012  0.00  0.00    -0.030 C 
ATOM     15  C   LIG    1        2.591   0.152   1.225  0.00  0.00    +0.040 C 
ATOM     16  C   LIG    1        3.641   2.055  -0.008  0.00  0.00    +0.030 C 
ENDBRANCH   7  14
ENDBRANCH   6  10
ENDBRANCH   5   6
ENDBRANCH   1   5
BRANCH   2  17
ATOM     17  C   LIG    1       -7.228   4.261   0.100  0.00  0.00    +0.320 C 
BRANCH  17  18
ATOM     18  C   LIG    1       -8.482   3.425   0.099  0.00  0.00    +0.510 C 
ATOM     19  N   LIG    1       -9.690   4.022   0.116  0.00  0.00    -0.670 N 
ATOM     20  H   LIG    1       -9.753   4.986   0.195  0.00  0.00    +0.420 HD
ATOM     21  O   LIG    1       -8.404   2.214   0.084  0.00  0.00    -0.510 OA
BRANCH  19  22
ATOM     22  C   LIG    1      -10.854   3.249   0.017  0.00  0.00    +0.160 A 
ATOM     23  C   LIG    1      -10.905   1.992   0.603  0.00  0.00    +0.060 A 
ATOM     24  C   LIG    1      -12.054   1.231   0.506  0.00  0.00    +0.050 A 
ATOM     25  C   LIG    1      -13.155   1.720  -0.175  0.00  0.00    +0.060 A 
ATOM     26  C   LIG    1      -13.106   2.976  -0.762  0.00  0.00    +0.090 A 
ATOM     27  F   LIG    1      -14.182   3.453  -1.427  0.00  0.00    -0.120 F 
ATOM     28  F   LIG    1      -14.277   0.974  -0.269  0.00  0.00    -0.130 F 
ATOM     29  C   LIG    1      -11.960   3.743  -0.661  0.00  0.00    +0.000 A 
ENDBRANCH  19  22
ENDBRANCH  17  18
ENDBRANCH   2  17
TORSDOF 7
