REMARK  Name = ZINCpk00000FbUBp.0
REMARK                            x       y       z     vdW  Elec       q    Type
REMARK                         _______ _______ _______ _____ _____    ______ ____
ROOT
ATOM      1  C   LIG    1        0.596   1.452   3.015  0.00  0.00    +0.240 C 
ATOM      2  C   LIG    1        0.688   2.047   1.605  0.00  0.00    +0.300 C 
ATOM      3  N   LIG    1       -0.336   1.407   0.763  0.00  0.00    -0.600 N 
ATOM      4  C   LIG    1       -0.403  -0.063   0.753  0.00  0.00    +0.260 C 
ATOM      5  C   LIG    1       -0.442  -0.555   2.204  0.00  0.00    +0.230 C 
ATOM      6  C   LIG    1       -1.183   2.145   0.019  0.00  0.00    +0.590 C 
ATOM      7  O   LIG    1       -1.950   1.599  -0.751  0.00  0.00    -0.530 OA
ATOM      8  O   LIG    1        0.646   0.025   2.928  0.00  0.00    -0.360 OA
ENDROOT
BRANCH   6   9
ATOM      9  C   LIG    1       -1.179   3.611   0.138  0.00  0.00    -0.280 A 
ATOM     10  C   LIG    1       -2.376   4.316   0.248  0.00  0.00    +0.210 A 
ATOM     11  C   LIG    1       -2.333   5.706   0.364  0.00  0.00    -0.070 A 
ATOM     12  C   LIG    1       -1.140   6.353   0.359  0.00  0.00    +0.230 A 
ATOM     13  N   LIG    1        0.027   5.675   0.248  0.00  0.00    -0.600 N 
ATOM     14  H   LIG    1        0.865   6.163   0.247  0.00  0.00    +0.420 HD
ATOM     15  C   LIG    1        0.042   4.333   0.138  0.00  0.00    +0.530 A 
ATOM     16  O   LIG    1        1.103   3.740   0.039  0.00  0.00    -0.530 OA
BRANCH  12  17
ATOM     17  C   LIG    1       -1.113   7.855   0.479  0.00  0.00    +0.000 C 
ATOM     18  C   LIG    1        0.229   8.557   0.266  0.00  0.00    +0.050 C 
ATOM     19  C   LIG    1       -0.367   8.456   1.671  0.00  0.00    +0.050 C 
ENDBRANCH  12  17
ENDBRANCH   6   9
BRANCH   1  24
ATOM     20  N   LIG    1        1.695   2.886   4.821  0.00  0.00    -0.470 N 
ATOM     21  C   LIG    1        2.958   3.010   5.295  0.00  0.00    +0.380 A 
ATOM     22  N   LIG    1        3.709   2.184   4.619  0.00  0.00    -0.290 NA
ATOM     23  N   LIG    1        2.992   1.552   3.759  0.00  0.00    -0.260 NA
ATOM     24  C   LIG    1        1.751   1.946   3.847  0.00  0.00    +0.180 A 
BRANCH  20  26
ATOM     25  C   LIG    1       -0.236   2.787   6.318  0.00  0.00    +0.040 C 
ATOM     26  C   LIG    1        0.508   3.618   5.271  0.00  0.00    +0.290 C 
ENDBRANCH  20  26
ENDBRANCH   1  24
TORSDOF 4
