REMARK  Name = ZINCvU0000000FlR.0
REMARK                            x       y       z     vdW  Elec       q    Type
REMARK                         _______ _______ _______ _____ _____    ______ ____
ROOT
ATOM      1  C   LIG    1       -1.225   2.457   5.592  0.00  0.00    +0.160 A 
ATOM      2  N   LIG    1       -2.325   2.088   4.978  0.00  0.00    -0.290 NA
ATOM      3  N   LIG    1       -2.039   1.587   3.830  0.00  0.00    -0.250 NA
ATOM      4  C   LIG    1       -0.749   1.596   3.646  0.00  0.00    +0.200 A 
ATOM      5  N   LIG    1       -0.182   2.154   4.761  0.00  0.00    -0.420 N 
ENDROOT
BRANCH   5   6
ATOM      6  C   LIG    1        1.183   2.371   5.000  0.00  0.00    +0.110 A 
ATOM      7  C   LIG    1        2.047   1.292   5.126  0.00  0.00    +0.050 A 
ATOM      8  C   LIG    1        3.391   1.508   5.357  0.00  0.00    +0.050 A 
ATOM      9  C   LIG    1        3.876   2.799   5.472  0.00  0.00    -0.020 A 
ATOM     10  C   LIG    1        3.016   3.877   5.352  0.00  0.00    +0.060 A 
ATOM     11 CL   LIG    1        5.565   3.068   5.769  0.00  0.00    -0.050 Cl
ATOM     12  C   LIG    1        1.671   3.665   5.117  0.00  0.00    +0.060 A 
ENDBRANCH   5   6
BRANCH   4  13
ATOM     13  C   LIG    1       -0.016   1.091   2.429  0.00  0.00    +0.230 C 
ATOM     14  C   LIG    1        0.004  -0.439   2.444  0.00  0.00    +0.070 C 
BRANCH  13  15
ATOM     15  N   LIG    1       -0.700   1.560   1.217  0.00  0.00    -0.530 NA
ATOM     16  C   LIG    1       -0.822   3.023   1.213  0.00  0.00    +0.190 C 
ATOM     17  C   LIG    1       -0.013   1.086   0.008  0.00  0.00    +0.210 C 
ENDBRANCH  13  15
ENDBRANCH   4  13
BRANCH   1  18
ATOM     18  S   LIG    1       -1.114   3.201   7.186  0.00  0.00    +0.020 S 
BRANCH  18  19
ATOM     19  C   LIG    1       -2.869   3.267   7.625  0.00  0.00    +0.170 C 
BRANCH  19  25
ATOM     20  C   LIG    1       -3.177   5.262   9.114  0.00  0.00    +0.190 A 
ATOM     21  C   LIG    1       -3.319   5.840  10.371  0.00  0.00    -0.080 A 
ATOM     22  C   LIG    1       -3.306   5.050  11.498  0.00  0.00    +0.120 A 
ATOM     23  C   LIG    1       -3.150   3.664  11.373  0.00  0.00    -0.210 A 
ATOM     24  C   LIG    1       -3.013   3.092  10.102  0.00  0.00    +0.140 A 
ATOM     25  C   LIG    1       -3.022   3.886   8.991  0.00  0.00    -0.130 A 
BRANCH  23  26
ATOM     26  C   LIG    1       -3.135   2.813  12.569  0.00  0.00    +0.400 C 
ATOM     27  O   LIG    1       -2.999   1.613  12.459  0.00  0.00    -0.460 OA
ATOM     28  C   LIG    1       -3.288   3.431  13.935  0.00  0.00    +0.080 C 
ENDBRANCH  23  26
BRANCH  20  29
ATOM     29  O   LIG    1       -3.190   6.043   8.005  0.00  0.00    -0.300 OA
BRANCH  29  31
ATOM     30  C   LIG    1       -3.343   8.160   6.849  0.00  0.00    +0.070 C 
ATOM     31  C   LIG    1       -3.353   7.449   8.204  0.00  0.00    +0.190 C 
ENDBRANCH  29  31
ENDBRANCH  20  29
ENDBRANCH  19  25
ENDBRANCH  18  19
ENDBRANCH   1  18
TORSDOF 9
