REMARK  Name = ZINCrg000000oM7V.0
REMARK                            x       y       z     vdW  Elec       q    Type
REMARK                         _______ _______ _______ _____ _____    ______ ____
ROOT
ATOM      1  N   LIG    1       -1.042   0.854   1.686  0.00  0.00    -0.670 N 
ATOM      2  H   LIG    1       -0.981   1.756   2.036  0.00  0.00    +0.420 HD
ATOM      3  C   LIG    1        0.053   0.070   1.646  0.00  0.00    +0.500 C 
ATOM      4  O   LIG    1       -0.036  -1.079   1.269  0.00  0.00    -0.500 OA
ENDROOT
BRANCH   1   8
ATOM      5  C   LIG    1       -4.694  -0.599   0.305  0.00  0.00    -0.150 A 
ATOM      6  C   LIG    1       -4.649   0.220   1.437  0.00  0.00    +0.100 A 
ATOM      7  C   LIG    1       -3.440   0.698   1.891  0.00  0.00    -0.010 A 
ATOM      8  C   LIG    1       -2.265   0.367   1.224  0.00  0.00    +0.170 A 
ATOM      9  C   LIG    1       -2.307  -0.443   0.093  0.00  0.00    +0.010 A 
ATOM     10  C   LIG    1       -3.511  -0.930  -0.362  0.00  0.00    +0.060 A 
BRANCH   5  13
ATOM     11  C   LIG    1       -7.315  -2.914  -1.150  0.00  0.00    +0.300 C 
ATOM     12  N   LIG    1       -6.032  -2.252  -0.905  0.00  0.00    -0.620 N 
ATOM     13  C   LIG    1       -5.988  -1.113  -0.184  0.00  0.00    +0.560 C 
ATOM     14  O   LIG    1       -7.014  -0.510   0.063  0.00  0.00    -0.530 OA
ATOM     15  C   LIG    1       -4.796  -2.825  -1.443  0.00  0.00    +0.300 C 
ENDBRANCH   5  13
ENDBRANCH   1   8
BRANCH   3  16
ATOM     16  C   LIG    1        1.391   0.624   2.063  0.00  0.00    +0.340 C 
BRANCH  16  17
ATOM     17  N   LIG    1        2.415  -0.415   1.924  0.00  0.00    -0.510 N 
ATOM     18  C   LIG    1        2.689  -1.234   2.960  0.00  0.00    +0.510 A 
ATOM     19  C   LIG    1        3.731  -2.289   2.801  0.00  0.00    +0.510 A 
ATOM     20  N   LIG    1        4.386  -2.399   1.628  0.00  0.00    -0.630 N 
ATOM     21  H   LIG    1        5.068  -3.080   1.516  0.00  0.00    +0.420 HD
ATOM     22  C   LIG    1        4.086  -1.537   0.577  0.00  0.00    +0.120 A 
ATOM     23  C   LIG    1        4.766  -1.658  -0.629  0.00  0.00    +0.020 A 
ATOM     24  C   LIG    1        4.474  -0.807  -1.675  0.00  0.00    +0.040 A 
ATOM     25  C   LIG    1        3.503   0.170  -1.530  0.00  0.00    +0.040 A 
ATOM     26  C   LIG    1        2.822   0.300  -0.337  0.00  0.00    +0.010 A 
ATOM     27  O   LIG    1        3.990  -3.039   3.721  0.00  0.00    -0.470 OA
ATOM     28  O   LIG    1        2.091  -1.115   4.010  0.00  0.00    -0.460 OA
ATOM     29  C   LIG    1        3.107  -0.552   0.724  0.00  0.00    +0.130 A 
ENDBRANCH  16  17
ENDBRANCH   3  16
TORSDOF 4
