REMARK  Name = ZINCpk00000ebtR2.0
REMARK                            x       y       z     vdW  Elec       q    Type
REMARK                         _______ _______ _______ _____ _____    ______ ____
ROOT
ATOM      1  O   LIG    1        6.754  -2.832   3.123  0.00  0.00    -0.440 OA
ATOM      2  C   LIG    1        7.615  -2.886   2.272  0.00  0.00    +0.520 C 
ATOM      3  N   LIG    1        8.726  -3.620   2.482  0.00  0.00    -0.690 N 
ATOM      4  H   LIG    1        9.415  -3.663   1.800  0.00  0.00    +0.410 HD
ATOM      5  C   LIG    1        8.880  -4.293   3.639  0.00  0.00    +0.700 C 
ATOM      6  N   LIG    1        9.991  -5.026   3.849  0.00  0.00    -0.740 N 
ATOM      7  H   LIG    1       10.680  -5.070   3.168  0.00  0.00    +0.400 HD
ATOM      8  O   LIG    1        8.017  -4.239   4.493  0.00  0.00    -0.530 OA
ENDROOT
BRANCH   6   9
ATOM      9  C   LIG    1       10.158  -5.758   5.107  0.00  0.00    +0.410 C 
BRANCH   9  10
ATOM     10  C   LIG    1       11.474  -6.492   5.090  0.00  0.00    -0.040 A 
ATOM     11  C   LIG    1       12.653  -6.004   5.517  0.00  0.00    -0.030 A 
ATOM     12  C   LIG    1       13.613  -7.022   5.321  0.00  0.00    -0.070 A 
ATOM     13  C   LIG    1       12.966  -8.069   4.779  0.00  0.00    +0.190 A 
ATOM     14  O   LIG    1       11.671  -7.742   4.641  0.00  0.00    -0.170 OA
ENDBRANCH   9  10
ENDBRANCH   6   9
BRANCH   2  15
ATOM     15  C   LIG    1        7.443  -2.133   0.977  0.00  0.00    +0.220 C 
BRANCH  15  16
ATOM     16  N   LIG    1        6.160  -1.418   0.994  0.00  0.00    -0.520 NA
ATOM     17  C   LIG    1        6.060  -0.488  -0.140  0.00  0.00    +0.200 C 
ATOM     18  C   LIG    1        4.748   0.293  -0.042  0.00  0.00    +0.200 C 
ATOM     19  N   LIG    1        3.620  -0.649  -0.037  0.00  0.00    -0.490 N 
ATOM     20  C   LIG    1        3.719  -1.579   1.097  0.00  0.00    +0.210 C 
ATOM     21  C   LIG    1        5.032  -2.360   1.000  0.00  0.00    +0.190 C 
BRANCH  19  22
ATOM     22  C   LIG    1        2.400   0.031  -0.021  0.00  0.00    +0.110 A 
ATOM     23  C   LIG    1        1.206  -0.680  -0.013  0.00  0.00    -0.020 A 
ATOM     24  C   LIG    1        0.002  -0.004   0.002  0.00  0.00    +0.020 A 
ATOM     25  C   LIG    1       -0.017   1.379   0.010  0.00  0.00    -0.030 A 
ATOM     26  C   LIG    1        1.169   2.089   0.002  0.00  0.00    +0.030 A 
ATOM     27  C   LIG    1        2.377   1.420  -0.013  0.00  0.00    -0.040 A 
ENDBRANCH  19  22
ENDBRANCH  15  16
ENDBRANCH   2  15
TORSDOF 5
