REMARK  Name = ZINCrH000004nW0T.0
REMARK                            x       y       z     vdW  Elec       q    Type
REMARK                         _______ _______ _______ _____ _____    ______ ____
ROOT
ATOM      1  C   LIG    1       -2.831  -4.230  -0.048  0.00  0.00    +0.400 C 
ENDROOT
BRANCH   1   2
ATOM      2  C   LIG    1       -2.513  -2.763   0.091  0.00  0.00    +0.170 A 
ATOM      3  N   LIG    1       -1.320  -2.228   0.156  0.00  0.00    -0.420 NA
ATOM      4  C   LIG    1       -1.524  -0.898   0.279  0.00  0.00    +0.260 A 
ATOM      5  N   LIG    1       -2.817  -0.704   0.272  0.00  0.00    -0.340 NA
ATOM      6  O   LIG    1       -3.397  -1.763   0.165  0.00  0.00    +0.100 OA
BRANCH   4   7
ATOM      7  C   LIG    1       -0.477   0.148   0.394  0.00  0.00    +0.300 A 
ATOM      8  N   LIG    1       -0.693   1.440   0.508  0.00  0.00    -0.270 NA
ATOM      9  N   LIG    1        0.567   2.055   0.589  0.00  0.00    -0.470 N 
ATOM     10  H   LIG    1        0.745   3.004   0.679  0.00  0.00    +0.450 HD
ATOM     11  C   LIG    1        1.479   1.068   0.516  0.00  0.00    +0.510 A 
ATOM     12  N   LIG    1        0.845  -0.069   0.400  0.00  0.00    -0.510 NA
ENDBRANCH   4   7
ENDBRANCH   1   2
BRANCH   1  14
ATOM     13  C   LIG    1       -3.996  -5.844   1.357  0.00  0.00    +0.570 C 
ATOM     14  N   LIG    1       -3.907  -4.587   0.879  0.00  0.00    -0.730 N 
ATOM     15  H   LIG    1       -4.555  -3.918   1.150  0.00  0.00    +0.410 HD
ATOM     16  O   LIG    1       -3.132  -6.657   1.092  0.00  0.00    -0.500 OA
BRANCH  13  21
ATOM     17  C   LIG    1       -7.210  -5.676   3.302  0.00  0.00    -0.090 A 
ATOM     18  C   LIG    1       -7.295  -6.975   3.791  0.00  0.00    +0.050 A 
ATOM     19  C   LIG    1       -6.313  -7.898   3.488  0.00  0.00    +0.050 A 
ATOM     20  C   LIG    1       -5.239  -7.537   2.698  0.00  0.00    +0.010 A 
ATOM     21  C   LIG    1       -5.144  -6.234   2.202  0.00  0.00    -0.110 A 
ATOM     22 CL   LIG    1       -4.007  -8.701   2.322  0.00  0.00    -0.020 Cl
ATOM     23  C   LIG    1       -6.133  -5.301   2.512  0.00  0.00    +0.080 A 
BRANCH  17  25
ATOM     24  C   LIG    1       -9.610  -5.460   4.726  0.00  0.00    +0.140 C 
ATOM     25  S   LIG    1       -8.466  -4.504   3.693  0.00  0.00    -0.100 S 
ENDBRANCH  17  25
ENDBRANCH  13  21
ENDBRANCH   1  14
BRANCH   1  26
ATOM     26  C   LIG    1       -3.276  -4.522  -1.483  0.00  0.00    +0.050 C 
BRANCH  26  27
ATOM     27  C   LIG    1       -2.106  -4.284  -2.439  0.00  0.00    -0.030 C 
ATOM     28  C   LIG    1       -2.587  -4.437  -3.883  0.00  0.00    +0.020 C 
ATOM     29  C   LIG    1       -1.002  -5.306  -2.158  0.00  0.00    +0.030 C 
ENDBRANCH  26  27
ENDBRANCH   1  26
TORSDOF 7
