REMARK  Name = ZINCpe000000ZfSw.0
REMARK                            x       y       z     vdW  Elec       q    Type
REMARK                         _______ _______ _______ _____ _____    ______ ____
ROOT
ATOM      1  C   LIG    1       -2.595   3.975   0.048  0.00  0.00    +0.560 C 
ATOM      2  N   LIG    1       -2.616   5.318   0.157  0.00  0.00    -0.710 N 
ATOM      3  H   LIG    1       -1.784   5.818   0.152  0.00  0.00    +0.400 HD
ATOM      4  O   LIG    1       -3.637   3.356  -0.039  0.00  0.00    -0.520 OA
ENDROOT
BRANCH   1   8
ATOM      5  O   LIG    1        2.155   3.854  -0.046  0.00  0.00    -0.520 OA
ATOM      6  C   LIG    1        1.109   3.229  -0.015  0.00  0.00    +0.540 A 
ATOM      7  C   LIG    1       -0.117   3.936   0.004  0.00  0.00    -0.010 A 
ATOM      8  C   LIG    1       -1.300   3.252   0.033  0.00  0.00    -0.020 A 
ATOM      9  C   LIG    1       -1.257   1.783   0.056  0.00  0.00    -0.130 A 
ATOM     10  C   LIG    1       -2.432   1.028   0.091  0.00  0.00    +0.160 A 
ATOM     11  C   LIG    1       -2.361  -0.336   0.111  0.00  0.00    -0.030 A 
ATOM     12  C   LIG    1       -1.129  -0.980   0.097  0.00  0.00    +0.160 A 
ATOM     13  C   LIG    1        0.044  -0.253   0.061  0.00  0.00    -0.060 A 
ATOM     14  F   LIG    1       -1.079  -2.330   0.117  0.00  0.00    -0.130 F 
ATOM     15  C   LIG    1       -0.006   1.137   0.040  0.00  0.00    +0.220 A 
ATOM     16  N   LIG    1        1.151   1.886   0.005  0.00  0.00    -0.620 N 
ATOM     17  H   LIG    1        2.010   1.435  -0.005  0.00  0.00    +0.420 HD
ENDBRANCH   1   8
BRANCH   2  18
ATOM     18  C   LIG    1       -3.894   6.023   0.283  0.00  0.00    +0.360 C 
BRANCH  18  19
ATOM     19  C   LIG    1       -3.642   7.505   0.389  0.00  0.00    -0.260 A 
ATOM     20  C   LIG    1       -3.376   8.339  -0.633  0.00  0.00    +0.110 A 
ATOM     21  C   LIG    1       -3.283   8.021  -2.105  0.00  0.00    +0.280 C 
ATOM     22  N   LIG    1       -3.361   9.288  -2.853  0.00  0.00    -0.690 NA
ATOM     23  H   LIG    1       -3.201   9.137  -3.838  0.00  0.00    +0.360 HD
ATOM     24  C   LIG    1       -2.422  10.281  -2.313  0.00  0.00    +0.200 C 
ATOM     25  C   LIG    1       -2.910  10.762  -0.941  0.00  0.00    +0.320 C 
ATOM     26  N   LIG    1       -3.214   9.584  -0.123  0.00  0.00    -0.360 N 
ATOM     27  N   LIG    1       -3.380   9.507   1.259  0.00  0.00    -0.290 NA
ATOM     28  C   LIG    1       -3.636   8.260   1.569  0.00  0.00    +0.250 A 
ENDBRANCH  18  19
ENDBRANCH   2  18
TORSDOF 3
