REMARK  Name = ZINCrD000007619M.0
REMARK                            x       y       z     vdW  Elec       q    Type
REMARK                         _______ _______ _______ _____ _____    ______ ____
ROOT
ATOM      1  C   LIG    1       -3.715   1.521   2.169  0.00  0.00    +0.290 A 
ATOM      2  N   LIG    1       -3.881   0.989   3.345  0.00  0.00    -0.490 NA
ATOM      3  C   LIG    1       -3.209  -0.190   3.411  0.00  0.00    +0.050 A 
ATOM      4  C   LIG    1       -3.048  -1.152   4.412  0.00  0.00    +0.070 A 
ATOM      5  C   LIG    1       -2.291  -2.264   4.171  0.00  0.00    +0.000 A 
ATOM      6  C   LIG    1       -1.677  -2.450   2.941  0.00  0.00    +0.030 A 
ATOM      7  C   LIG    1       -1.822  -1.513   1.939  0.00  0.00    +0.010 A 
ATOM      8  C   LIG    1       -2.593  -0.381   2.163  0.00  0.00    +0.050 A 
ATOM      9  N   LIG    1       -2.926   0.721   1.401  0.00  0.00    -0.470 N 
ENDROOT
BRANCH   1  10
ATOM     10  C   LIG    1       -4.309   2.832   1.724  0.00  0.00    +0.310 C 
BRANCH  10  13
ATOM     11  C   LIG    1       -7.479   3.497  -0.199  0.00  0.00    +0.170 C 
ATOM     12  C   LIG    1       -6.137   3.807   0.468  0.00  0.00    +0.160 C 
ATOM     13  N   LIG    1       -5.626   2.592   1.119  0.00  0.00    -0.530 NA
ATOM     14  C   LIG    1       -6.583   2.096   2.119  0.00  0.00    +0.170 C 
ATOM     15  C   LIG    1       -7.921   1.803   1.436  0.00  0.00    +0.230 C 
ATOM     16  O   LIG    1       -8.386   2.987   0.782  0.00  0.00    -0.380 OA
BRANCH  11  17
ATOM     17  C   LIG    1       -8.054   4.777  -0.810  0.00  0.00    +0.060 C 
BRANCH  17  18
ATOM     18  C   LIG    1       -9.335   4.445  -1.577  0.00  0.00    +0.170 C 
BRANCH  18  19
ATOM     19  O   LIG    1       -9.872   5.640  -2.148  0.00  0.00    -0.580 OA
ATOM     20  H   LIG    1      -10.687   5.504  -2.650  0.00  0.00    +0.380 HD
ENDBRANCH  18  19
ENDBRANCH  17  18
ENDBRANCH  11  17
ENDBRANCH  10  13
ENDBRANCH   1  10
BRANCH   9  21
ATOM     21  C   LIG    1       -2.514   0.979   0.019  0.00  0.00    +0.360 C 
BRANCH  21  22
ATOM     22  C   LIG    1       -1.219   1.750   0.017  0.00  0.00    -0.110 A 
ATOM     23  C   LIG    1       -0.013   1.076   0.008  0.00  0.00    +0.050 A 
ATOM     24  C   LIG    1        1.175   1.783   0.000  0.00  0.00    +0.030 A 
ATOM     25  C   LIG    1        1.156   3.166   0.008  0.00  0.00    -0.020 A 
ATOM     26  C   LIG    1       -0.052   3.841   0.022  0.00  0.00    +0.030 A 
ATOM     27 CL   LIG    1        2.647   4.055  -0.001  0.00  0.00    -0.060 Cl
ATOM     28  C   LIG    1       -1.239   3.133   0.030  0.00  0.00    +0.040 A 
ENDBRANCH  21  22
ENDBRANCH   9  21
TORSDOF 7
