REMARK  Name = ZINCrD00000l0ikS.1
REMARK                            x       y       z     vdW  Elec       q    Type
REMARK                         _______ _______ _______ _____ _____    ______ ____
ROOT
ATOM      1  C   LIG    1       -0.945  -3.789  -0.418  0.00  0.00    +0.570 C 
ATOM      2  N   LIG    1       -0.803  -2.449  -0.430  0.00  0.00    -0.610 N 
ATOM      3  C   LIG    1       -1.602  -1.588   0.454  0.00  0.00    +0.320 C 
ATOM      4  C   LIG    1       -2.084  -0.395  -0.322  0.00  0.00    -0.040 C 
ATOM      5  C   LIG    1       -1.652  -0.090  -1.524  0.00  0.00    -0.030 C 
ATOM      6  C   LIG    1       -0.631  -0.886  -2.282  0.00  0.00    +0.080 C 
ATOM      7  C   LIG    1        0.158  -1.788  -1.330  0.00  0.00    +0.290 C 
ATOM      8  O   LIG    1       -0.356  -4.470  -1.235  0.00  0.00    -0.530 OA
ENDROOT
BRANCH   1  16
ATOM      9  C   LIG    1       -4.343  -8.204   0.070  0.00  0.00    +0.360 C 
ATOM     10  N   LIG    1       -4.141  -7.296   1.201  0.00  0.00    -0.400 N 
ATOM     11  N   LIG    1       -4.734  -7.412   2.465  0.00  0.00    -0.240 NA
ATOM     12  C   LIG    1       -4.335  -6.437   3.229  0.00  0.00    +0.270 A 
ATOM     13  C   LIG    1       -3.446  -5.617   2.495  0.00  0.00    -0.160 A 
ATOM     14  C   LIG    1       -2.728  -4.454   2.807  0.00  0.00    +0.100 A 
ATOM     15  C   LIG    1       -1.930  -3.874   1.870  0.00  0.00    +0.000 A 
ATOM     16  C   LIG    1       -1.816  -4.431   0.587  0.00  0.00    -0.080 A 
ATOM     17  C   LIG    1       -2.525  -5.581   0.257  0.00  0.00    +0.060 A 
ATOM     18  C   LIG    1       -3.338  -6.183   1.209  0.00  0.00    +0.120 A 
ENDBRANCH   1  16
BRANCH   5  19
ATOM     19  C   LIG    1       -2.202   1.118  -2.169  0.00  0.00    -0.140 A 
ATOM     20  C   LIG    1       -1.576   2.313  -2.323  0.00  0.00    +0.260 A 
ATOM     21  N   LIG    1       -2.404   3.187  -2.967  0.00  0.00    -0.580 N 
ATOM     22  H   LIG    1       -2.177   4.103  -3.189  0.00  0.00    +0.420 HD
ATOM     23  C   LIG    1       -3.606   2.583  -3.255  0.00  0.00    +0.280 A 
ATOM     24  N   LIG    1       -4.709   3.007  -3.858  0.00  0.00    -0.500 NA
ATOM     25  C   LIG    1       -5.754   2.222  -4.019  0.00  0.00    +0.300 A 
ATOM     26  C   LIG    1       -5.754   0.912  -3.567  0.00  0.00    -0.060 A 
ATOM     27  C   LIG    1       -4.631   0.415  -2.930  0.00  0.00    +0.100 A 
ATOM     28  C   LIG    1       -3.534   1.262  -2.777  0.00  0.00    -0.140 A 
ENDBRANCH   5  19
TORSDOF 2
