REMARK  Name = ZINCrD00000l0ikS.0
REMARK                            x       y       z     vdW  Elec       q    Type
REMARK                         _______ _______ _______ _____ _____    ______ ____
ROOT
ATOM      1  C   LIG    1       -4.663  -3.455   1.108  0.00  0.00    +0.570 C 
ATOM      2  N   LIG    1       -4.369  -2.918  -0.093  0.00  0.00    -0.610 N 
ATOM      3  C   LIG    1       -3.187  -3.349  -0.854  0.00  0.00    +0.310 C 
ATOM      4  C   LIG    1       -2.499  -2.139  -1.424  0.00  0.00    -0.060 C 
ATOM      5  C   LIG    1       -3.032  -0.937  -1.423  0.00  0.00    -0.020 C 
ATOM      6  C   LIG    1       -4.374  -0.607  -0.840  0.00  0.00    +0.070 C 
ATOM      7  C   LIG    1       -5.219  -1.877  -0.696  0.00  0.00    +0.290 C 
ATOM      8  O   LIG    1       -5.714  -3.184   1.654  0.00  0.00    -0.530 OA
ENDROOT
BRANCH   1  16
ATOM      9  C   LIG    1       -4.679  -7.949   4.436  0.00  0.00    +0.360 C 
ATOM     10  N   LIG    1       -3.413  -7.374   3.974  0.00  0.00    -0.400 N 
ATOM     11  N   LIG    1       -2.133  -7.847   4.286  0.00  0.00    -0.250 NA
ATOM     12  C   LIG    1       -1.235  -7.101   3.709  0.00  0.00    +0.270 A 
ATOM     13  C   LIG    1       -1.892  -6.085   2.976  0.00  0.00    -0.160 A 
ATOM     14  C   LIG    1       -1.436  -5.025   2.178  0.00  0.00    +0.100 A 
ATOM     15  C   LIG    1       -2.328  -4.188   1.583  0.00  0.00    +0.000 A 
ATOM     16  C   LIG    1       -3.707  -4.373   1.760  0.00  0.00    -0.080 A 
ATOM     17  C   LIG    1       -4.178  -5.415   2.553  0.00  0.00    +0.060 A 
ATOM     18  C   LIG    1       -3.276  -6.278   3.159  0.00  0.00    +0.120 A 
ENDBRANCH   1  16
BRANCH   5  19
ATOM     19  C   LIG    1       -2.257   0.159  -2.031  0.00  0.00    -0.190 A 
ATOM     20  C   LIG    1       -1.903   0.305  -3.364  0.00  0.00    +0.250 A 
ATOM     21  N   LIG    1       -1.205   1.423  -3.520  0.00  0.00    -0.550 NA
ATOM     22  C   LIG    1       -1.044   2.076  -2.380  0.00  0.00    +0.260 A 
ATOM     23  N   LIG    1       -0.412   3.248  -2.048  0.00  0.00    -0.500 N 
ATOM     24  H   LIG    1        0.034   3.764  -2.737  0.00  0.00    +0.420 HD
ATOM     25  C   LIG    1       -0.405   3.688  -0.779  0.00  0.00    +0.330 A 
ATOM     26  C   LIG    1       -1.016   2.998   0.223  0.00  0.00    -0.070 A 
ATOM     27  C   LIG    1       -1.674   1.802  -0.050  0.00  0.00    +0.180 A 
ATOM     28  C   LIG    1       -1.687   1.330  -1.356  0.00  0.00    -0.150 A 
ENDBRANCH   5  19
TORSDOF 2
