REMARK  Name = ZINCpk00000KfKOh.0
REMARK                            x       y       z     vdW  Elec       q    Type
REMARK                         _______ _______ _______ _____ _____    ______ ____
ROOT
ATOM      1  C   LIG    1       -6.976   7.676   2.330  0.00  0.00    +0.030 C 
ATOM      2  C   LIG    1       -7.617   6.702   3.322  0.00  0.00    +0.010 C 
ATOM      3  C   LIG    1       -6.759   5.437   3.410  0.00  0.00    +0.030 C 
ATOM      4  C   LIG    1       -6.627   4.818   2.016  0.00  0.00    +0.170 C 
ATOM      5  N   LIG    1       -6.008   5.789   1.105  0.00  0.00    -0.530 NA
ATOM      6  C   LIG    1       -6.839   6.992   0.968  0.00  0.00    +0.190 C 
ENDROOT
BRANCH   1  12
ATOM      7  C   LIG    1      -10.025  10.080   4.975  0.00  0.00    +0.340 C 
ATOM      8  N   LIG    1       -9.384   9.541   3.772  0.00  0.00    -0.580 N 
ATOM      9  C   LIG    1      -10.044   8.947   2.771  0.00  0.00    +0.700 C 
ATOM     10  N   LIG    1       -9.224   8.542   1.785  0.00  0.00    -0.720 N 
ATOM     11  H   LIG    1       -9.481   8.091   0.966  0.00  0.00    +0.440 HD
ATOM     12  C   LIG    1       -7.859   8.919   2.191  0.00  0.00    +0.130 C 
ATOM     13  C   LIG    1       -7.250   9.899   1.186  0.00  0.00    +0.090 C 
ATOM     14  O   LIG    1      -11.249   8.790   2.755  0.00  0.00    -0.540 OA
ATOM     15  C   LIG    1       -8.055   9.587   3.537  0.00  0.00    +0.530 C 
ATOM     16  O   LIG    1       -7.197  10.061   4.251  0.00  0.00    -0.460 OA
ENDBRANCH   1  12
BRANCH   5  17
ATOM     17  C   LIG    1       -5.740   5.183  -0.206  0.00  0.00    +0.350 C 
BRANCH  17  18
ATOM     18  C   LIG    1       -4.696   4.106  -0.058  0.00  0.00    +0.170 A 
ATOM     19  N   LIG    1       -4.917   2.847   0.192  0.00  0.00    -0.280 NA
ATOM     20  N   LIG    1       -3.795   2.219   0.246  0.00  0.00    -0.280 NA
ATOM     21  C   LIG    1       -2.819   3.058   0.043  0.00  0.00    +0.180 A 
ATOM     22  O   LIG    1       -3.366   4.270  -0.157  0.00  0.00    -0.220 OA
BRANCH  21  23
ATOM     23  C   LIG    1       -1.349   2.730   0.028  0.00  0.00    +0.090 C 
ATOM     24  C   LIG    1       -0.959   1.695  -1.040  0.00  0.00    +0.050 C 
ATOM     25  C   LIG    1       -0.013   1.086   0.008  0.00  0.00    +0.030 C 
ATOM     26  C   LIG    1       -0.939   1.683   1.080  0.00  0.00    +0.060 C 
ENDBRANCH  21  23
ENDBRANCH  17  18
ENDBRANCH   5  17
TORSDOF 4
