REMARK  Name = ZINCrg000000ohzj.0
REMARK                            x       y       z     vdW  Elec       q    Type
REMARK                         _______ _______ _______ _____ _____    ______ ____
ROOT
ATOM      1  N   LIG    1        2.323   0.998  -0.015  0.00  0.00    -0.730 N 
ATOM      2  H   LIG    1        2.336   0.028  -0.020  0.00  0.00    +0.400 HD
ATOM      3  C   LIG    1        1.147   1.655   0.000  0.00  0.00    +0.710 C 
ATOM      4  N   LIG    1       -0.011   0.966   0.007  0.00  0.00    -0.740 N 
ATOM      5  H   LIG    1        0.002  -0.004   0.002  0.00  0.00    +0.400 HD
ATOM      6  O   LIG    1        1.130   2.871   0.007  0.00  0.00    -0.580 OA
ENDROOT
BRANCH   1   9
ATOM      7  C   LIG    1        5.616   1.587   0.548  0.00  0.00    +0.150 C 
ATOM      8  C   LIG    1        4.304   1.752   1.335  0.00  0.00    +0.020 C 
ATOM      9  C   LIG    1        3.582   1.747  -0.023  0.00  0.00    +0.280 C 
ATOM     10  C   LIG    1        4.774   0.943  -0.566  0.00  0.00    +0.160 C 
BRANCH  10  11
ATOM     11  O   LIG    1        5.174   1.331  -1.882  0.00  0.00    -0.370 OA
ATOM     12  C   LIG    1        5.744   0.271  -2.653  0.00  0.00    +0.210 C 
ENDBRANCH  10  11
BRANCH   7  13
ATOM     13  O   LIG    1        6.541   0.686   1.160  0.00  0.00    -0.370 OA
BRANCH  13  15
ATOM     14  C   LIG    1        8.609   0.269   2.338  0.00  0.00    +0.040 C 
ATOM     15  C   LIG    1        7.694   1.324   1.713  0.00  0.00    +0.160 C 
ENDBRANCH  13  15
ENDBRANCH   7  13
ENDBRANCH   1   9
BRANCH   4  16
ATOM     16  C   LIG    1       -1.290   1.681   0.017  0.00  0.00    +0.350 C 
BRANCH  16  17
ATOM     17  C   LIG    1       -2.422   0.686   0.017  0.00  0.00    -0.160 A 
ATOM     18  C   LIG    1       -2.954   0.237  -1.174  0.00  0.00    +0.310 A 
ATOM     19  N   LIG    1       -3.943  -0.637  -1.187  0.00  0.00    -0.490 NA
ATOM     20  C   LIG    1       -4.468  -1.110  -0.068  0.00  0.00    +0.300 A 
ATOM     21  C   LIG    1       -3.983  -0.696   1.172  0.00  0.00    +0.030 A 
ATOM     22  F   LIG    1       -4.520  -1.179   2.313  0.00  0.00    -0.120 F 
ATOM     23  C   LIG    1       -2.943   0.217   1.216  0.00  0.00    +0.090 A 
BRANCH  20  24
ATOM     24  N   LIG    1       -5.513  -2.026  -0.128  0.00  0.00    -0.470 N 
ATOM     25  C   LIG    1       -5.175  -3.258   0.600  0.00  0.00    +0.180 C 
ATOM     26  C   LIG    1       -6.372  -4.213   0.558  0.00  0.00    +0.250 C 
ATOM     27  O   LIG    1       -6.724  -4.468  -0.804  0.00  0.00    -0.380 OA
ATOM     28  C   LIG    1       -7.059  -3.290  -1.543  0.00  0.00    +0.230 C 
ATOM     29  C   LIG    1       -5.870  -2.326  -1.522  0.00  0.00    +0.190 C 
ENDBRANCH  20  24
ENDBRANCH  16  17
ENDBRANCH   4  16
TORSDOF 7
