REMARK  Name = ZINCpe000027pHpd.1
REMARK                            x       y       z     vdW  Elec       q    Type
REMARK                         _______ _______ _______ _____ _____    ______ ____
ROOT
ATOM      1  C   LIG    1       -1.590  -2.361  -3.430  0.00  0.00    +0.240 C 
ENDROOT
BRANCH   1   7
ATOM      2  C   LIG    1       -2.289  -4.701  -3.999  0.00  0.00    +0.150 A 
ATOM      3  C   LIG    1       -2.020  -5.958  -4.521  0.00  0.00    -0.090 A 
ATOM      4  C   LIG    1       -0.763  -6.243  -5.018  0.00  0.00    +0.050 A 
ATOM      5  C   LIG    1        0.224  -5.275  -5.002  0.00  0.00    -0.030 A 
ATOM      6  C   LIG    1       -0.044  -4.020  -4.488  0.00  0.00    +0.060 A 
ATOM      7  C   LIG    1       -1.298  -3.730  -3.990  0.00  0.00    -0.120 A 
BRANCH   2   8
ATOM      8  O   LIG    1       -3.523  -4.420  -3.504  0.00  0.00    -0.270 OA
BRANCH   8   9
ATOM      9  C   LIG    1       -4.493  -5.468  -3.546  0.00  0.00    +0.220 C 
BRANCH   9  12
ATOM     10  C   LIG    1       -8.117  -5.320  -2.321  0.00  0.00    +0.300 C 
ATOM     11  N   LIG    1       -6.856  -5.799  -2.893  0.00  0.00    -0.620 N 
ATOM     12  C   LIG    1       -5.791  -4.976  -2.958  0.00  0.00    +0.520 C 
ATOM     13  O   LIG    1       -5.876  -3.839  -2.544  0.00  0.00    -0.510 OA
ATOM     14  C   LIG    1       -6.753  -7.172  -3.393  0.00  0.00    +0.280 C 
ENDBRANCH   9  12
ENDBRANCH   8   9
ENDBRANCH   2   8
ENDBRANCH   1   7
BRANCH   1  15
ATOM     15  N   LIG    1       -1.516  -2.406  -1.963  0.00  0.00    -0.660 NA
ATOM     16  H   LIG    1       -0.620  -2.755  -1.657  0.00  0.00    +0.350 HD
BRANCH  15  17
ATOM     17  C   LIG    1       -1.795  -1.087  -1.381  0.00  0.00    +0.140 C 
ATOM     18  C   LIG    1       -3.167  -0.995  -0.692  0.00  0.00    +0.050 C 
ATOM     19  C   LIG    1       -2.474  -0.166   0.402  0.00  0.00    +0.170 C 
ATOM     20  C   LIG    1       -1.171  -0.882   0.009  0.00  0.00    +0.270 C 
BRANCH  20  21
ATOM     21  N   LIG    1        0.002  -0.004   0.002  0.00  0.00    -0.360 N 
ATOM     22  C   LIG    1       -0.016   1.345   0.009  0.00  0.00    +0.220 A 
ATOM     23  C   LIG    1        1.267   1.775  -0.001  0.00  0.00    -0.120 A 
ATOM     24  C   LIG    1        2.098   0.650  -0.015  0.00  0.00    +0.220 A 
ATOM     25  N   LIG    1        1.341  -0.417  -0.013  0.00  0.00    -0.290 NA
ENDBRANCH  20  21
BRANCH  19  26
ATOM     26  O   LIG    1       -2.921  -0.476   1.724  0.00  0.00    -0.550 OA
ATOM     27  H   LIG    1       -3.740  -0.028   1.977  0.00  0.00    +0.390 HD
ENDBRANCH  19  26
ENDBRANCH  15  17
ENDBRANCH   1  15
TORSDOF 8
