REMARK  Name = ZINCrD00000bGMOs.0
REMARK                            x       y       z     vdW  Elec       q    Type
REMARK                         _______ _______ _______ _____ _____    ______ ____
ROOT
ATOM      1  C   LIG    1       -0.154   1.264   8.736  0.00  0.00    +0.030 A 
ATOM      2  C   LIG    1        0.540   0.877   9.838  0.00  0.00    +0.280 A 
ATOM      3  N   LIG    1        0.125   1.239  11.081  0.00  0.00    -0.490 N 
ATOM      4  C   LIG    1       -0.987   1.980  11.247  0.00  0.00    +0.510 A 
ATOM      5  C   LIG    1       -1.733   2.394  10.130  0.00  0.00    -0.070 A 
ATOM      6  O   LIG    1       -1.349   2.292  12.370  0.00  0.00    -0.540 OA
ATOM      7  C   LIG    1       -1.320   2.038   8.880  0.00  0.00    +0.140 A 
ENDROOT
BRANCH   1   9
ATOM      8  C   LIG    1        0.556   1.832   6.533  0.00  0.00    +0.520 C 
ATOM      9  N   LIG    1        0.287   0.889   7.458  0.00  0.00    -0.670 N 
ATOM     10  H   LIG    1        0.399  -0.050   7.240  0.00  0.00    +0.410 HD
ATOM     11  O   LIG    1        0.333   2.999   6.776  0.00  0.00    -0.520 OA
BRANCH   8  12
ATOM     12  C   LIG    1        1.133   1.436   5.198  0.00  0.00    +0.050 C 
BRANCH  12  13
ATOM     13  C   LIG    1        1.341   2.687   4.342  0.00  0.00    +0.130 C 
BRANCH  13  14
ATOM     14  C   LIG    1        1.926   2.285   2.987  0.00  0.00    +0.040 C 
ATOM     15  N   LIG    1        2.758   1.081   2.912  0.00  0.00    -0.120 NA
ATOM     16  N   LIG    1        1.611   0.958   2.452  0.00  0.00    -0.120 NA
BRANCH  14  17
ATOM     17  C   LIG    1        2.197   3.425   2.003  0.00  0.00    +0.120 C 
BRANCH  17  18
ATOM     18  C   LIG    1        2.777   2.853   0.707  0.00  0.00    +0.160 C 
BRANCH  18  20
ATOM     19  C   LIG    1        3.246   4.824  -0.994  0.00  0.00    +0.030 C 
ATOM     20  C   LIG    1        3.038   3.950  -0.239  0.00  0.00    -0.200 C 
ENDBRANCH  18  20
ENDBRANCH  17  18
ENDBRANCH  14  17
ENDBRANCH  13  14
ENDBRANCH  12  13
ENDBRANCH   8  12
ENDBRANCH   1   9
BRANCH   3  21
ATOM     21  C   LIG    1        0.893   0.814  12.253  0.00  0.00    +0.360 C 
BRANCH  21  22
ATOM     22  C   LIG    1        0.379  -0.518  12.735  0.00  0.00    -0.090 A 
ATOM     23  C   LIG    1        0.923  -1.688  12.241  0.00  0.00    +0.010 A 
ATOM     24  C   LIG    1        0.452  -2.911  12.682  0.00  0.00    +0.050 A 
ATOM     25  C   LIG    1       -0.564  -2.965  13.617  0.00  0.00    +0.000 A 
ATOM     26  C   LIG    1       -1.110  -1.792  14.113  0.00  0.00    +0.100 A 
ATOM     27  F   LIG    1       -2.103  -1.843  15.027  0.00  0.00    -0.140 F 
ATOM     28  C   LIG    1       -0.634  -0.569  13.674  0.00  0.00    +0.030 A 
ENDBRANCH  21  22
ENDBRANCH   3  21
TORSDOF 9
