REMARK  Name = ZINCuk000000023B.1
REMARK                            x       y       z     vdW  Elec       q    Type
REMARK                         _______ _______ _______ _____ _____    ______ ____
ROOT
ATOM      1  N   LIG    1       -2.526   7.134   4.618  0.00  0.00    -0.720 N 
ATOM      2  H   LIG    1       -2.040   7.645   3.951  0.00  0.00    +0.410 HD
ATOM      3  C   LIG    1       -2.583   5.791   4.527  0.00  0.00    +0.500 C 
ATOM      4  O   LIG    1       -3.191   5.152   5.361  0.00  0.00    -0.490 OA
ENDROOT
BRANCH   3   5
ATOM      5  C   LIG    1       -1.898   5.088   3.400  0.00  0.00    +0.510 C 
ATOM      6  N   LIG    1       -1.955   3.744   3.310  0.00  0.00    -0.700 N 
ATOM      7  H   LIG    1       -2.441   3.234   3.976  0.00  0.00    +0.420 HD
ATOM      8  O   LIG    1       -1.290   5.727   2.567  0.00  0.00    -0.500 OA
BRANCH   6   9
ATOM      9  C   LIG    1       -1.283   3.055   2.205  0.00  0.00    +0.300 C 
BRANCH   9  10
ATOM     10  C   LIG    1       -1.502   1.547   2.337  0.00  0.00    +0.030 C 
BRANCH  10  11
ATOM     11  C   LIG    1       -0.800   0.827   1.183  0.00  0.00    +0.270 C 
BRANCH  11  12
ATOM     12  N   LIG    1       -1.010  -0.621   1.309  0.00  0.00    -0.390 N 
ATOM     13  C   LIG    1       -2.438  -0.925   1.146  0.00  0.00    +0.330 C 
ATOM     14  H   LIG    1       -0.703  -0.927   2.220  0.00  0.00    +0.430 HD
BRANCH  12  15
ATOM     15  C   LIG    1       -0.239  -1.320   0.273  0.00  0.00    +0.270 C 
BRANCH  15  16
ATOM     16  C   LIG    1       -0.357  -2.831   0.480  0.00  0.00    +0.030 C 
BRANCH  16  17
ATOM     17  C   LIG    1        0.446  -3.559  -0.600  0.00  0.00    +0.300 C 
BRANCH  17  18
ATOM     18  N   LIG    1        0.332  -5.010  -0.400  0.00  0.00    -0.640 N 
ATOM     19  H   LIG    1       -0.637  -5.283  -0.461  0.00  0.00    +0.440 HD
ATOM     20  H   LIG    1        0.694  -5.254   0.510  0.00  0.00    +0.440 HD
ATOM     21  H   LIG    1        0.862  -5.490  -1.112  0.00  0.00    +0.450 HD
ENDBRANCH  17  18
ENDBRANCH  16  17
ENDBRANCH  15  16
ENDBRANCH  12  15
ENDBRANCH  11  12
ENDBRANCH  10  11
ENDBRANCH   9  10
ENDBRANCH   6   9
ENDBRANCH   3   5
BRANCH   1  22
ATOM     22  C   LIG    1       -3.198   7.823   5.722  0.00  0.00    +0.330 C 
BRANCH  22  28
ATOM     23  C   LIG    1       -3.969   9.965   4.681  0.00  0.00    -0.140 A 
ATOM     24  C   LIG    1       -3.870  11.332   4.501  0.00  0.00    +0.050 A 
ATOM     25  C   LIG    1       -2.890  12.047   5.164  0.00  0.00    +0.050 A 
ATOM     26  C   LIG    1       -2.010  11.396   6.007  0.00  0.00    +0.060 A 
ATOM     27  C   LIG    1       -2.113  10.029   6.192  0.00  0.00    +0.050 A 
ATOM     28  C   LIG    1       -3.089   9.313   5.525  0.00  0.00    -0.100 A 
BRANCH  23  29
ATOM     29  C   LIG    1       -5.038   9.185   3.959  0.00  0.00    +0.310 C 
BRANCH  29  36
ATOM     30  C   LIG    1       -6.003   6.686   3.120  0.00  0.00    +0.090 C 
ATOM     31  C   LIG    1       -5.475   7.714   2.118  0.00  0.00    +0.160 C 
ATOM     32  C   LIG    1       -4.856   6.988   0.922  0.00  0.00    +0.050 C 
ATOM     33  C   LIG    1       -4.329   8.021  -0.079  0.00  0.00    +0.040 C 
ATOM     34  C   LIG    1       -3.325   8.937   0.629  0.00  0.00    +0.060 C 
ATOM     35  C   LIG    1       -4.003   9.590   1.835  0.00  0.00    +0.240 C 
ATOM     36  N   LIG    1       -4.459   8.552   2.767  0.00  0.00    -0.380 N 
ATOM     37  H   LIG    1       -3.675   7.978   3.039  0.00  0.00    +0.400 HD
ENDBRANCH  29  36
ENDBRANCH  23  29
ENDBRANCH  22  28
ENDBRANCH   1  22
TORSDOF 13
