REMARK  Name = ZINCuk000000023B.0
REMARK                            x       y       z     vdW  Elec       q    Type
REMARK                         _______ _______ _______ _____ _____    ______ ____
ROOT
ATOM      1  N   LIG    1       -4.522   4.341   0.521  0.00  0.00    -0.720 N 
ATOM      2  H   LIG    1       -4.846   4.166  -0.377  0.00  0.00    +0.410 HD
ATOM      3  C   LIG    1       -4.065   5.567   0.845  0.00  0.00    +0.500 C 
ATOM      4  O   LIG    1       -3.659   5.786   1.967  0.00  0.00    -0.490 OA
ENDROOT
BRANCH   3   5
ATOM      5  C   LIG    1       -4.059   6.657  -0.178  0.00  0.00    +0.510 C 
ATOM      6  N   LIG    1       -3.603   7.883   0.147  0.00  0.00    -0.700 N 
ATOM      7  H   LIG    1       -3.278   8.058   1.044  0.00  0.00    +0.420 HD
ATOM      8  O   LIG    1       -4.465   6.438  -1.300  0.00  0.00    -0.510 OA
BRANCH   6   9
ATOM      9  C   LIG    1       -3.597   8.951  -0.856  0.00  0.00    +0.300 C 
BRANCH   9  10
ATOM     10  C   LIG    1       -3.034  10.231  -0.234  0.00  0.00    +0.030 C 
BRANCH  10  11
ATOM     11  C   LIG    1       -3.028  11.347  -1.281  0.00  0.00    +0.270 C 
BRANCH  11  12
ATOM     12  N   LIG    1       -2.487  12.575  -0.684  0.00  0.00    -0.390 N 
ATOM     13  C   LIG    1       -3.390  13.042   0.377  0.00  0.00    +0.330 C 
ATOM     14  H   LIG    1       -1.577  12.386  -0.292  0.00  0.00    +0.430 HD
BRANCH  12  15
ATOM     15  C   LIG    1       -2.370  13.611  -1.719  0.00  0.00    +0.270 C 
BRANCH  15  16
ATOM     16  C   LIG    1       -1.692  14.849  -1.126  0.00  0.00    +0.030 C 
BRANCH  16  17
ATOM     17  C   LIG    1       -1.569  15.928  -2.204  0.00  0.00    +0.300 C 
BRANCH  17  18
ATOM     18  N   LIG    1       -0.919  17.116  -1.635  0.00  0.00    -0.640 N 
ATOM     19  H   LIG    1        0.001  16.868  -1.301  0.00  0.00    +0.440 HD
ATOM     20  H   LIG    1       -1.472  17.468  -0.868  0.00  0.00    +0.440 HD
ATOM     21  H   LIG    1       -0.838  17.828  -2.346  0.00  0.00    +0.450 HD
ENDBRANCH  17  18
ENDBRANCH  16  17
ENDBRANCH  15  16
ENDBRANCH  12  15
ENDBRANCH  11  12
ENDBRANCH  10  11
ENDBRANCH   9  10
ENDBRANCH   6   9
ENDBRANCH   3   5
BRANCH   1  22
ATOM     22  C   LIG    1       -4.527   3.273   1.523  0.00  0.00    +0.340 C 
BRANCH  22  28
ATOM     23  C   LIG    1       -4.267   1.199   0.145  0.00  0.00    -0.140 A 
ATOM     24  C   LIG    1       -4.774   0.040  -0.412  0.00  0.00    +0.050 A 
ATOM     25  C   LIG    1       -6.098  -0.303  -0.208  0.00  0.00    +0.040 A 
ATOM     26  C   LIG    1       -6.914   0.513   0.553  0.00  0.00    +0.060 A 
ATOM     27  C   LIG    1       -6.407   1.672   1.110  0.00  0.00    +0.050 A 
ATOM     28  C   LIG    1       -5.082   2.012   0.911  0.00  0.00    -0.100 A 
BRANCH  23  29
ATOM     29  C   LIG    1       -2.824   1.573  -0.077  0.00  0.00    +0.310 C 
BRANCH  29  36
ATOM     30  C   LIG    1       -0.632   3.326  -0.172  0.00  0.00    +0.090 C 
ATOM     31  C   LIG    1       -1.324   2.844  -1.449  0.00  0.00    +0.160 C 
ATOM     32  C   LIG    1       -1.227   3.930  -2.522  0.00  0.00    +0.050 C 
ATOM     33  C   LIG    1       -1.920   3.443  -3.798  0.00  0.00    +0.040 C 
ATOM     34  C   LIG    1       -3.371   3.078  -3.471  0.00  0.00    +0.060 C 
ATOM     35  C   LIG    1       -3.389   2.024  -2.362  0.00  0.00    +0.240 C 
ATOM     36  N   LIG    1       -2.735   2.559  -1.162  0.00  0.00    -0.380 N 
ATOM     37  H   LIG    1       -3.198   3.410  -0.879  0.00  0.00    +0.400 HD
ENDBRANCH  29  36
ENDBRANCH  23  29
ENDBRANCH  22  28
ENDBRANCH   1  22
TORSDOF 13
