REMARK  Name = ZINCqH0000006SLo.0
REMARK                            x       y       z     vdW  Elec       q    Type
REMARK                         _______ _______ _______ _____ _____    ______ ____
ROOT
ATOM      1  C   LIG    1       -3.142  -2.148  -1.792  0.00  0.00    -0.020 C 
ATOM      2  C   LIG    1       -1.992  -2.057  -1.165  0.00  0.00    -0.050 C 
ATOM      3  C   LIG    1       -1.708  -1.034  -0.106  0.00  0.00    +0.300 C 
ATOM      4  N   LIG    1       -2.790  -0.039  -0.087  0.00  0.00    -0.610 N 
ATOM      5  C   LIG    1       -4.171  -0.539  -0.195  0.00  0.00    +0.300 C 
ATOM      6  C   LIG    1       -2.528   1.279   0.020  0.00  0.00    +0.600 C 
ATOM      7  O   LIG    1       -3.443   2.081   0.049  0.00  0.00    -0.520 OA
ATOM      8  C   LIG    1       -4.313  -1.243  -1.547  0.00  0.00    +0.070 C 
ENDROOT
BRANCH   6   9
ATOM      9  C   LIG    1       -1.140   1.746   0.102  0.00  0.00    -0.040 A 
ATOM     10  C   LIG    1       -0.678   2.995  -0.257  0.00  0.00    +0.080 A 
ATOM     11  C   LIG    1        0.700   3.007  -0.022  0.00  0.00    -0.180 A 
ATOM     12  C   LIG    1        1.048   1.794   0.471  0.00  0.00    +0.240 A 
ATOM     13 BR   LIG    1        1.871   4.459  -0.335  0.00  0.00    -0.020 Br
ATOM     14  N   LIG    1       -0.062   1.019   0.553  0.00  0.00    -0.530 N 
ATOM     15  H   LIG    1       -0.091   0.104   0.874  0.00  0.00    +0.430 HD
ENDBRANCH   6   9
BRANCH   1  19
ATOM     16  C   LIG    1       -3.578  -5.212  -4.710  0.00  0.00    +0.210 A 
ATOM     17  C   LIG    1       -3.910  -5.466  -3.387  0.00  0.00    -0.140 A 
ATOM     18  C   LIG    1       -3.771  -4.474  -2.432  0.00  0.00    +0.220 A 
ATOM     19  C   LIG    1       -3.293  -3.211  -2.804  0.00  0.00    -0.170 A 
ATOM     20  C   LIG    1       -2.964  -2.960  -4.142  0.00  0.00    +0.220 A 
ATOM     21  C   LIG    1       -3.103  -3.963  -5.085  0.00  0.00    -0.190 A 
BRANCH  16  23
ATOM     22  C   LIG    1       -3.357  -5.863  -6.986  0.00  0.00    +0.250 C 
ATOM     23  O   LIG    1       -3.717  -6.191  -5.642  0.00  0.00    -0.310 OA
ENDBRANCH  16  23
BRANCH  20  24
ATOM     24  O   LIG    1       -2.505  -1.736  -4.512  0.00  0.00    -0.300 OA
ATOM     25  C   LIG    1       -2.190  -1.552  -5.894  0.00  0.00    +0.250 C 
ENDBRANCH  20  24
BRANCH  18  26
ATOM     26  O   LIG    1       -4.097  -4.724  -1.138  0.00  0.00    -0.300 OA
ATOM     27  C   LIG    1       -4.578  -6.034  -0.831  0.00  0.00    +0.240 C 
ENDBRANCH  18  26
ENDBRANCH   1  19
TORSDOF 5
