REMARK  Name = ZINCvU0000000Izj.0
REMARK                            x       y       z     vdW  Elec       q    Type
REMARK                         _______ _______ _______ _____ _____    ______ ____
ROOT
ATOM      1  N   LIG    1       -2.469   4.480   0.048  0.00  0.00    -0.410 N 
ATOM      2  C   LIG    1       -2.959   5.276   1.047  0.00  0.00    +0.160 A 
ATOM      3  N   LIG    1       -4.131   5.720   0.651  0.00  0.00    -0.280 NA
ATOM      4  N   LIG    1       -4.410   5.254  -0.514  0.00  0.00    -0.260 NA
ATOM      5  C   LIG    1       -3.432   4.488  -0.937  0.00  0.00    +0.240 A 
ENDROOT
BRANCH   1   9
ATOM      6  C   LIG    1        1.171   2.442   0.004  0.00  0.00    +0.160 A 
ATOM      7  C   LIG    1        1.153   3.829   0.011  0.00  0.00    -0.030 A 
ATOM      8  C   LIG    1       -0.052   4.504   0.026  0.00  0.00    +0.090 A 
ATOM      9  C   LIG    1       -1.245   3.795   0.034  0.00  0.00    +0.070 A 
ATOM     10  C   LIG    1       -1.227   2.406   0.021  0.00  0.00    +0.100 A 
ATOM     11  C   LIG    1       -0.021   1.732   0.012  0.00  0.00    -0.060 A 
ATOM     12 CL   LIG    1        0.002  -0.004   0.002  0.00  0.00    -0.030 Cl
BRANCH   6  14
ATOM     13  C   LIG    1        3.546   2.573  -0.018  0.00  0.00    +0.250 C 
ATOM     14  O   LIG    1        2.358   1.779  -0.011  0.00  0.00    -0.300 OA
ENDBRANCH   6  14
ENDBRANCH   1   9
BRANCH   5  15
ATOM     15  C   LIG    1       -3.374   3.768  -2.227  0.00  0.00    -0.030 A 
ATOM     16  C   LIG    1       -2.162   3.253  -2.689  0.00  0.00    +0.020 A 
ATOM     17  C   LIG    1       -2.116   2.578  -3.891  0.00  0.00    +0.010 A 
ATOM     18  C   LIG    1       -3.266   2.421  -4.644  0.00  0.00    +0.030 A 
ATOM     19  C   LIG    1       -4.470   2.934  -4.195  0.00  0.00    +0.010 A 
ATOM     20  C   LIG    1       -4.531   3.607  -2.992  0.00  0.00    +0.070 A 
ENDBRANCH   5  15
BRANCH   2  21
ATOM     21  S   LIG    1       -2.165   5.641   2.577  0.00  0.00    +0.040 S 
BRANCH  21  22
ATOM     22  C   LIG    1       -3.409   6.723   3.326  0.00  0.00    +0.070 C 
BRANCH  22  23
ATOM     23  C   LIG    1       -2.924   7.179   4.704  0.00  0.00    +0.290 C 
BRANCH  23  24
ATOM     24  C   LIG    1       -4.010   7.979   5.378  0.00  0.00    -0.130 A 
ATOM     25  C   LIG    1       -4.195   9.308   5.047  0.00  0.00    +0.050 A 
ATOM     26  C   LIG    1       -5.194  10.040   5.661  0.00  0.00    -0.010 A 
ATOM     27  C   LIG    1       -6.001   9.445   6.615  0.00  0.00    +0.110 A 
ATOM     28  C   LIG    1       -5.810   8.115   6.950  0.00  0.00    -0.010 A 
ATOM     29  F   LIG    1       -6.974  10.162   7.220  0.00  0.00    -0.140 F 
ATOM     30  C   LIG    1       -4.814   7.383   6.332  0.00  0.00    +0.070 A 
ENDBRANCH  23  24
BRANCH  23  31
ATOM     31  O   LIG    1       -1.758   7.991   4.554  0.00  0.00    -0.540 OA
ATOM     32  H   LIG    1       -1.898   8.787   4.023  0.00  0.00    +0.380 HD
ENDBRANCH  23  31
ENDBRANCH  22  23
ENDBRANCH  21  22
ENDBRANCH   2  21
TORSDOF 8
