REMARK  Name = ZINCrD000000fNC9.0
REMARK                            x       y       z     vdW  Elec       q    Type
REMARK                         _______ _______ _______ _____ _____    ______ ____
ROOT
ATOM      1  C   LIG    1        0.002  -0.004   0.002  0.00  0.00    +0.510 C 
ATOM      2  N   LIG    1       -0.016   1.344   0.009  0.00  0.00    -0.740 N 
ATOM      3  H   LIG    1        0.817   1.840   0.004  0.00  0.00    +0.400 HD
ATOM      4  O   LIG    1       -1.040  -0.625   0.009  0.00  0.00    -0.530 OA
ENDROOT
BRANCH   1   5
ATOM      5  C   LIG    1        1.317  -0.740  -0.015  0.00  0.00    +0.070 C 
BRANCH   5   8
ATOM      6  C   LIG    1        1.677  -4.037  -0.971  0.00  0.00    -0.050 C 
ATOM      7  C   LIG    1        0.840  -2.830  -1.427  0.00  0.00    +0.050 C 
ATOM      8  C   LIG    1        1.058  -2.248  -0.020  0.00  0.00    +0.020 C 
ATOM      9  C   LIG    1        2.341  -3.093   0.048  0.00  0.00    -0.070 C 
ATOM     10  C   LIG    1        2.579  -3.736   1.416  0.00  0.00    +0.040 C 
ATOM     11  C   LIG    1        3.578  -2.376  -0.496  0.00  0.00    +0.060 C 
BRANCH   6  13
ATOM     12  C   LIG    1        2.300  -5.821  -2.772  0.00  0.00    +0.050 C 
ATOM     13  C   LIG    1        2.621  -4.551  -2.027  0.00  0.00    +0.370 C 
ATOM     14  O   LIG    1        3.635  -3.944  -2.276  0.00  0.00    -0.450 OA
ENDBRANCH   6  13
ENDBRANCH   5   8
ENDBRANCH   1   5
BRANCH   2  15
ATOM     15  C   LIG    1       -1.295   2.059   0.019  0.00  0.00    +0.270 C 
BRANCH  15  16
ATOM     16  C   LIG    1       -1.036   3.567   0.026  0.00  0.00    +0.130 C 
BRANCH  16  17
ATOM     17  C   LIG    1       -2.351   4.302   0.037  0.00  0.00    +0.090 A 
ATOM     18  N   LIG    1       -3.321   4.150  -0.828  0.00  0.00    -0.280 NA
ATOM     19  N   LIG    1       -4.366   5.013  -0.470  0.00  0.00    -0.320 N 
ATOM     20  C   LIG    1       -3.986   5.687   0.639  0.00  0.00    +0.240 A 
ATOM     21  C   LIG    1       -2.747   5.261   0.976  0.00  0.00    -0.090 A 
BRANCH  19  22
ATOM     22  C   LIG    1       -5.588   5.153  -1.144  0.00  0.00    +0.150 A 
ATOM     23  C   LIG    1       -6.541   6.046  -0.675  0.00  0.00    +0.030 A 
ATOM     24  C   LIG    1       -7.742   6.187  -1.342  0.00  0.00    +0.030 A 
ATOM     25  C   LIG    1       -8.001   5.428  -2.472  0.00  0.00    +0.090 A 
ATOM     26  C   LIG    1       -7.053   4.533  -2.938  0.00  0.00    +0.020 A 
ATOM     27  F   LIG    1       -9.178   5.563  -3.120  0.00  0.00    -0.130 F 
ATOM     28  C   LIG    1       -5.848   4.394  -2.276  0.00  0.00    +0.060 A 
ENDBRANCH  19  22
ENDBRANCH  16  17
ENDBRANCH  15  16
ENDBRANCH   2  15
TORSDOF 7
