REMARK  Name = ZINCrD00000F5LxC.0
REMARK                            x       y       z     vdW  Elec       q    Type
REMARK                         _______ _______ _______ _____ _____    ______ ____
ROOT
ATOM      1  N   LIG    1        2.412   1.081  -0.015  0.00  0.00    -0.660 N 
ATOM      2  H   LIG    1        3.246   1.569  -0.089  0.00  0.00    +0.420 HD
ATOM      3  C   LIG    1        2.423  -0.263   0.079  0.00  0.00    +0.550 C 
ATOM      4  O   LIG    1        1.375  -0.882   0.086  0.00  0.00    -0.530 OA
ENDROOT
BRANCH   1  12
ATOM      5  C   LIG    1       -2.947   0.506  -1.815  0.00  0.00    +0.170 C 
ATOM      6  C   LIG    1       -2.472   1.723  -1.063  0.00  0.00    +0.110 A 
ATOM      7  N   LIG    1       -3.195   2.758  -0.741  0.00  0.00    -0.240 NA
ATOM      8  N   LIG    1       -2.417   3.690  -0.048  0.00  0.00    -0.400 N 
ATOM      9  C   LIG    1       -1.138   3.213   0.068  0.00  0.00    +0.300 A 
ATOM     10  N   LIG    1       -0.033   3.691   0.628  0.00  0.00    -0.490 NA
ATOM     11  C   LIG    1        1.099   3.024   0.602  0.00  0.00    +0.330 A 
ATOM     12  C   LIG    1        1.194   1.773  -0.007  0.00  0.00    +0.040 A 
ATOM     13  C   LIG    1        0.071   1.221  -0.603  0.00  0.00    +0.170 A 
ATOM     14  C   LIG    1       -2.893   4.975   0.470  0.00  0.00    +0.360 C 
ATOM     15  C   LIG    1       -1.121   1.954  -0.566  0.00  0.00    -0.210 A 
ENDBRANCH   1  12
BRANCH   3  16
ATOM     16  C   LIG    1        3.695  -0.979   0.173  0.00  0.00    -0.070 C 
ATOM     17  C   LIG    1        3.707  -2.325   0.268  0.00  0.00    +0.140 C 
BRANCH  17  18
ATOM     18  C   LIG    1        4.985  -3.044   0.363  0.00  0.00    -0.060 A 
ATOM     19  C   LIG    1        6.192  -2.336   0.349  0.00  0.00    +0.060 A 
ATOM     20  C   LIG    1        7.388  -3.014   0.442  0.00  0.00    -0.040 A 
ATOM     21  C   LIG    1        7.402  -4.402   0.538  0.00  0.00    +0.070 A 
ATOM     22  O   LIG    1        8.596  -5.049   0.620  0.00  0.00    -0.290 OA
ATOM     23  C   LIG    1        8.564  -6.400   1.093  0.00  0.00    +0.230 C 
ATOM     24  C   LIG    1        7.436  -7.139   0.361  0.00  0.00    +0.230 C 
ATOM     25  O   LIG    1        6.202  -6.471   0.648  0.00  0.00    -0.300 OA
ATOM     26  C   LIG    1        6.205  -5.113   0.549  0.00  0.00    +0.060 A 
ATOM     27 CL   LIG    1        8.884  -2.133   0.432  0.00  0.00    -0.040 Cl
ATOM     28  C   LIG    1        5.000  -4.440   0.461  0.00  0.00    +0.070 A 
ENDBRANCH  17  18
ENDBRANCH   3  16
TORSDOF 3
