REMARK  Name = ZINCpe000027pHrG.0
REMARK                            x       y       z     vdW  Elec       q    Type
REMARK                         _______ _______ _______ _____ _____    ______ ____
ROOT
ATOM      1  C   LIG    1        2.560   1.348   0.168  0.00  0.00    +0.240 C 
ATOM      2  C   LIG    1        1.294   1.835   0.132  0.00  0.00    -0.250 A 
ATOM      3  S   LIG    1        0.782   3.534   0.152  0.00  0.00    +0.090 S 
ATOM      4  C   LIG    1       -0.950   3.164   0.080  0.00  0.00    +0.190 A 
ATOM      5  N   LIG    1       -1.061   1.809   0.040  0.00  0.00    -0.530 N 
ATOM      6  C   LIG    1       -2.378   1.172  -0.030  0.00  0.00    +0.340 C 
ATOM      7  C   LIG    1       -2.000   4.088   0.062  0.00  0.00    -0.140 C 
ATOM      8  C   LIG    1        0.040   1.076   0.069  0.00  0.00    +0.560 A 
ATOM      9  O   LIG    1        0.014  -0.140   0.040  0.00  0.00    -0.470 OA
ENDROOT
BRANCH   1  16
ATOM     10  C   LIG    1        5.111   0.570   1.293  0.00  0.00    +0.100 C 
ATOM     11  C   LIG    1        4.943   1.904   0.614  0.00  0.00    -0.040 A 
ATOM     12  C   LIG    1        6.012   2.769   0.517  0.00  0.00    +0.010 A 
ATOM     13  C   LIG    1        5.859   3.998  -0.102  0.00  0.00    +0.040 A 
ATOM     14  C   LIG    1        4.636   4.366  -0.634  0.00  0.00    +0.010 A 
ATOM     15  C   LIG    1        3.558   3.510  -0.550  0.00  0.00    +0.040 A 
ATOM     16  C   LIG    1        3.704   2.267   0.074  0.00  0.00    -0.100 A 
ENDBRANCH   1  16
BRANCH   7  17
ATOM     17  C   LIG    1       -3.383   3.623   0.146  0.00  0.00    +0.600 C 
ATOM     18  N   LIG    1       -3.930   3.349   1.347  0.00  0.00    -0.610 N 
ATOM     19  C   LIG    1       -3.251   3.467   2.645  0.00  0.00    +0.250 C 
ATOM     20  C   LIG    1       -4.256   3.027   3.730  0.00  0.00    +0.040 C 
ATOM     21  C   LIG    1       -5.254   2.141   2.938  0.00  0.00    +0.040 C 
ATOM     22  C   LIG    1       -5.308   2.876   1.575  0.00  0.00    +0.260 C 
ATOM     23  O   LIG    1       -4.041   3.484  -0.869  0.00  0.00    -0.520 OA
ENDBRANCH   7  17
BRANCH   7  24
ATOM     24  C   LIG    1       -1.719   5.488  -0.038  0.00  0.00    +0.270 C 
ATOM     25  N   LIG    1       -1.497   6.600  -0.118  0.00  0.00    -0.390 NA
ENDBRANCH   7  24
TORSDOF 3
