REMARK  Name = ZINCkj000005mkcq.0
REMARK                            x       y       z     vdW  Elec       q    Type
REMARK                         _______ _______ _______ _____ _____    ______ ____
ROOT
ATOM      1  N   LIG    1        2.138   1.472   1.171  0.00  0.00    -0.520 NA
ATOM      2  C   LIG    1        1.419   1.992  -0.001  0.00  0.00    +0.210 C 
ATOM      3  C   LIG    1       -0.018   1.465   0.010  0.00  0.00    +0.210 C 
ATOM      4  N   LIG    1        0.002  -0.004   0.002  0.00  0.00    -0.530 NA
ATOM      5  C   LIG    1        0.721  -0.525   1.173  0.00  0.00    +0.190 C 
ATOM      6  C   LIG    1        2.158   0.003   1.162  0.00  0.00    +0.210 C 
ENDROOT
BRANCH   1  13
ATOM      7  C   LIG    1        3.821   2.808   2.292  0.00  0.00    -0.080 C 
ATOM      8  C   LIG    1        5.111   3.295   2.319  0.00  0.00    +0.370 C 
ATOM      9  N   LIG    1        5.965   3.002   1.356  0.00  0.00    -0.450 NA
ATOM     10  C   LIG    1        5.631   2.235   0.336  0.00  0.00    +0.350 C 
ATOM     11  C   LIG    1        4.362   1.704   0.237  0.00  0.00    +0.020 C 
ATOM     12  H   LIG    1        6.865   3.362   1.400  0.00  0.00    +0.450 HD
ATOM     13  C   LIG    1        3.429   1.988   1.233  0.00  0.00    +0.230 C 
BRANCH   7  14
ATOM     14  C   LIG    1        2.851   3.152   3.392  0.00  0.00    +0.310 C 
BRANCH  14  15
ATOM     15  O   LIG    1        3.494   3.998   4.347  0.00  0.00    -0.580 OA
ATOM     16  H   LIG    1        2.927   4.260   5.085  0.00  0.00    +0.410 HD
ENDBRANCH  14  15
ENDBRANCH   7  14
ENDBRANCH   1  13
BRANCH   4  17
ATOM     17  C   LIG    1       -1.361  -0.549  -0.064  0.00  0.00    +0.290 C 
BRANCH  17  18
ATOM     18  C   LIG    1       -1.297  -2.033  -0.317  0.00  0.00    +0.070 A 
ATOM     19  C   LIG    1       -1.337  -2.937   0.666  0.00  0.00    -0.080 A 
ATOM     20  S   LIG    1       -1.238  -4.537  -0.063  0.00  0.00    +0.140 S 
ATOM     21  C   LIG    1       -1.144  -3.832  -1.618  0.00  0.00    +0.220 A 
ATOM     22  N   LIG    1       -1.190  -2.546  -1.526  0.00  0.00    -0.460 NA
ENDBRANCH  17  18
ENDBRANCH   4  17
TORSDOF 5
