REMARK  Name = ZINCc70000002hKD.0
REMARK                            x       y       z     vdW  Elec       q    Type
REMARK                         _______ _______ _______ _____ _____    ______ ____
ROOT
ATOM      1  C   LIG    1        1.647   3.272   0.004  0.00  0.00    +0.180 C 
ATOM      2  C   LIG    1        1.220   1.827   0.000  0.00  0.00    +0.130 A 
ATOM      3  N   LIG    1       -0.017   1.397   0.010  0.00  0.00    -0.270 NA
ATOM      4  N   LIG    1        0.002  -0.004   0.002  0.00  0.00    -0.340 N 
ATOM      5  C   LIG    1       -1.005  -0.943   0.007  0.00  0.00    +0.450 A 
ATOM      6  C   LIG    1       -0.700  -2.266  -0.003  0.00  0.00    -0.200 A 
ATOM      7  C   LIG    1        0.647  -2.673  -0.018  0.00  0.00    +0.560 A 
ATOM      8  N   LIG    1        1.627  -1.747  -0.022  0.00  0.00    -0.630 N 
ATOM      9  H   LIG    1        2.557  -2.025  -0.033  0.00  0.00    +0.430 HD
ATOM     10  O   LIG    1        0.927  -3.860  -0.026  0.00  0.00    -0.520 OA
ATOM     11  C   LIG    1        1.308  -0.401  -0.013  0.00  0.00    +0.340 A 
ATOM     12  C   LIG    1        2.076   0.725  -0.014  0.00  0.00    -0.110 A 
ENDROOT
BRANCH   5  13
ATOM     13  O   LIG    1       -2.297  -0.547   0.022  0.00  0.00    -0.450 OA
ATOM     14  H   LIG    1       -2.931  -1.277   0.024  0.00  0.00    +0.430 HD
ENDBRANCH   5  13
TORSDOF 1
