REMARK  Name = ZINCpe000000ZFYI.0
REMARK                            x       y       z     vdW  Elec       q    Type
REMARK                         _______ _______ _______ _____ _____    ______ ____
ROOT
ATOM      1  C   LIG    1        3.461   9.294  -1.940  0.00  0.00    -0.630 A 
ATOM      2  C   LIG    1        2.817   9.414  -0.723  0.00  0.00    +0.110 A 
ATOM      3  C   LIG    1        2.906   8.398   0.210  0.00  0.00    +0.110 A 
ATOM      4  C   LIG    1        3.639   7.261  -0.075  0.00  0.00    -0.630 A 
ATOM      5  C   LIG    1        4.287   7.142  -1.290  0.00  0.00    +0.110 A 
ATOM      6  C   LIG    1        4.194   8.157  -2.224  0.00  0.00    +0.110 A 
ENDROOT
BRANCH   1   8
ATOM      7  O   LIG    1        3.597   9.995  -4.395  0.00  0.00    -0.950 OA
ATOM      8  S   LIG    1        3.347  10.589  -3.128  0.00  0.00    +2.690 S 
ATOM      9  O   LIG    1        2.159  11.307  -2.827  0.00  0.00    -0.950 OA
BRANCH   8  10
ATOM     10  N   LIG    1        4.606  11.628  -2.844  0.00  0.00    -0.990 NA
ATOM     11  C   LIG    1        4.445  12.764  -1.927  0.00  0.00    +0.290 C 
ATOM     12  C   LIG    1        5.562  12.705  -0.874  0.00  0.00    +0.010 C 
ATOM     13  C   LIG    1        6.919  12.654  -1.581  0.00  0.00    +0.020 C 
ATOM     14  C   LIG    1        7.001  11.392  -2.442  0.00  0.00    +0.010 C 
ATOM     15  C   LIG    1        5.902  11.434  -3.508  0.00  0.00    +0.290 C 
ENDBRANCH   8  10
ENDBRANCH   1   8
BRANCH   4  16
ATOM     16  S   LIG    1        3.753   5.965   1.114  0.00  0.00    +2.710 S 
ATOM     17  O   LIG    1        4.941   5.247   0.812  0.00  0.00    -0.940 OA
ATOM     18  O   LIG    1        3.505   6.560   2.381  0.00  0.00    -0.940 OA
BRANCH  16  19
ATOM     19  N   LIG    1        2.494   4.927   0.830  0.00  0.00    -1.010 NA
ATOM     20  C   LIG    1        1.152   5.019   1.434  0.00  0.00    +0.270 C 
ATOM     21  C   LIG    1        0.586   3.576   1.369  0.00  0.00    +0.050 C 
ATOM     22  C   LIG    1        1.145   3.085   0.008  0.00  0.00    -0.010 C 
ATOM     23  C   LIG    1        2.530   3.763  -0.066  0.00  0.00    +0.270 C 
BRANCH  22  24
ATOM     24  C   LIG    1        1.286   1.562  -0.002  0.00  0.00    +0.180 C 
BRANCH  24  25
ATOM     25  O   LIG    1       -0.011   0.963   0.007  0.00  0.00    -0.570 OA
ATOM     26  H   LIG    1        0.002  -0.004   0.002  0.00  0.00    +0.380 HD
ENDBRANCH  24  25
ENDBRANCH  22  24
ENDBRANCH  16  19
ENDBRANCH   4  16
TORSDOF 6
