REMARK  Name = ZINCqH0000038QSt.0
REMARK                            x       y       z     vdW  Elec       q    Type
REMARK                         _______ _______ _______ _____ _____    ______ ____
ROOT
ATOM      1  C   LIG    1        2.973  -1.918   0.152  0.00  0.00    +0.090 A 
ATOM      2  C   LIG    1        1.638  -1.896  -0.082  0.00  0.00    -0.040 A 
ATOM      3  N   LIG    1        1.267  -0.567  -0.241  0.00  0.00    -0.410 N 
ATOM      4  C   LIG    1        0.130   0.167  -0.491  0.00  0.00    +0.210 A 
ATOM      5  C   LIG    1        0.226   1.482  -0.567  0.00  0.00    +0.020 A 
ATOM      6  S   LIG    1        1.938   1.852  -0.295  0.00  0.00    +0.170 S 
ATOM      7  C   LIG    1        2.411   0.158  -0.093  0.00  0.00    +0.160 A 
ATOM      8  N   LIG    1        3.420  -0.646   0.140  0.00  0.00    -0.430 NA
ENDROOT
BRANCH   1  13
ATOM      9 CL   LIG    1        6.303  -6.808   1.080  0.00  0.00    -0.060 Cl
ATOM     10  C   LIG    1        5.337  -5.390   0.811  0.00  0.00    -0.030 A 
ATOM     11  C   LIG    1        5.801  -4.387  -0.023  0.00  0.00    +0.030 A 
ATOM     12  C   LIG    1        5.038  -3.259  -0.240  0.00  0.00    +0.060 A 
ATOM     13  C   LIG    1        3.797  -3.129   0.381  0.00  0.00    -0.000 A 
ATOM     14  C   LIG    1        3.336  -4.140   1.223  0.00  0.00    +0.030 A 
ATOM     15  C   LIG    1        4.106  -5.266   1.431  0.00  0.00    +0.030 A 
ENDBRANCH   1  13
BRANCH   2  16
ATOM     16  C   LIG    1        0.725  -3.093  -0.156  0.00  0.00    +0.320 C 
BRANCH  16  17
ATOM     17  N   LIG    1        0.591  -3.521  -1.554  0.00  0.00    -0.510 NA
ATOM     18  C   LIG    1        1.871  -4.025  -2.075  0.00  0.00    +0.150 C 
ATOM     19  C   LIG    1        1.674  -4.529  -3.508  0.00  0.00    +0.230 C 
ATOM     20  O   LIG    1        1.156  -3.464  -4.314  0.00  0.00    -0.360 OA
ATOM     21  C   LIG    1       -0.062  -2.917  -3.829  0.00  0.00    +0.090 C 
ATOM     22  C   LIG    1       -1.196  -3.965  -3.921  0.00  0.00    +0.010 C 
ATOM     23  C   LIG    1       -1.662  -3.763  -5.386  0.00  0.00    +0.200 C 
ATOM     24  O   LIG    1       -1.536  -2.352  -5.631  0.00  0.00    -0.380 OA
ATOM     25  C   LIG    1       -0.560  -1.788  -4.745  0.00  0.00    +0.230 C 
ATOM     26  C   LIG    1        0.084  -2.426  -2.396  0.00  0.00    +0.170 C 
ENDBRANCH  16  17
ENDBRANCH   2  16
TORSDOF 3
