REMARK  Name = ZINCrD00000F5Lmx.0
REMARK                            x       y       z     vdW  Elec       q    Type
REMARK                         _______ _______ _______ _____ _____    ______ ____
ROOT
ATOM      1  C   LIG    1        0.891   7.814   0.006  0.00  0.00    +0.170 A 
ATOM      2  C   LIG    1        0.369   6.530   0.038  0.00  0.00    -0.070 A 
ATOM      3  C   LIG    1        1.219   5.436  -0.014  0.00  0.00    +0.130 A 
ATOM      4  C   LIG    1        2.591   5.629  -0.092  0.00  0.00    -0.010 A 
ATOM      5  C   LIG    1        3.109   6.910  -0.130  0.00  0.00    +0.090 A 
ATOM      6  C   LIG    1        2.264   8.001  -0.078  0.00  0.00    -0.110 A 
ENDROOT
BRANCH   1   8
ATOM      7  C   LIG    1       -1.342   8.620   0.141  0.00  0.00    +0.250 C 
ATOM      8  O   LIG    1        0.059   8.888   0.056  0.00  0.00    -0.300 OA
ENDBRANCH   1   8
BRANCH   3   9
ATOM      9  O   LIG    1        0.710   4.177   0.018  0.00  0.00    -0.290 OA
BRANCH   9  10
ATOM     10  C   LIG    1        0.153   3.690  -1.110  0.00  0.00    +0.550 C 
ATOM     11  O   LIG    1        0.036   4.404  -2.087  0.00  0.00    -0.470 OA
BRANCH  10  12
ATOM     12  C   LIG    1       -0.312   2.302  -1.157  0.00  0.00    -0.070 A 
ATOM     13  C   LIG    1       -0.891   1.685  -2.230  0.00  0.00    +0.070 A 
ATOM     14  C   LIG    1       -1.175   0.369  -1.834  0.00  0.00    -0.070 A 
ATOM     15  C   LIG    1       -0.762   0.241  -0.553  0.00  0.00    +0.240 A 
ATOM     16  O   LIG    1       -0.243   1.408  -0.149  0.00  0.00    -0.150 OA
ENDBRANCH  10  12
ENDBRANCH   9  10
ENDBRANCH   3   9
BRANCH   6  17
ATOM     17  C   LIG    1        2.832   9.396  -0.113  0.00  0.00    +0.280 C 
BRANCH  17  18
ATOM     18  N   LIG    1        2.877   9.939   1.247  0.00  0.00    -0.140 NA
ATOM     19  N   LIG    1        3.962  10.280   1.743  0.00  0.00    -0.180 NA
BRANCH  19  20
ATOM     20  C   LIG    1        4.005  10.789   3.019  0.00  0.00    +0.460 A 
ATOM     21  N   LIG    1        2.876  10.914   3.704  0.00  0.00    -0.510 NA
ATOM     22  C   LIG    1        2.883  11.395   4.935  0.00  0.00    +0.180 A 
ATOM     23  C   LIG    1        4.088  11.780   5.504  0.00  0.00    -0.070 A 
ATOM     24  C   LIG    1        5.249  11.641   4.757  0.00  0.00    +0.180 A 
ATOM     25  C   LIG    1        6.581  12.047   5.334  0.00  0.00    +0.160 C 
ATOM     26  C   LIG    1        1.596  11.528   5.708  0.00  0.00    +0.140 C 
ATOM     27  N   LIG    1        5.173  11.148   3.534  0.00  0.00    -0.480 NA
ENDBRANCH  19  20
ENDBRANCH  17  18
ENDBRANCH   6  17
TORSDOF 7
