REMARK  Name = ZINCqH0000050UJg.0
REMARK                            x       y       z     vdW  Elec       q    Type
REMARK                         _______ _______ _______ _____ _____    ______ ____
ROOT
ATOM      1  N   LIG    1        5.189   3.577   0.095  0.00  0.00    -0.520 N 
ATOM      2  C   LIG    1        4.227   4.533   0.061  0.00  0.00    +0.560 A 
ATOM      3  N   LIG    1        2.960   4.237   0.140  0.00  0.00    -0.480 NA
ATOM      4  C   LIG    1        2.551   2.963   0.257  0.00  0.00    +0.110 A 
ATOM      5  C   LIG    1        3.486   1.933   0.297  0.00  0.00    -0.070 A 
ATOM      6  O   LIG    1        2.836   0.757   0.417  0.00  0.00    -0.160 OA
ATOM      7  C   LIG    1        1.499   0.937   0.461  0.00  0.00    +0.090 A 
ATOM      8  C   LIG    1        0.435   0.050   0.576  0.00  0.00    +0.030 A 
ATOM      9  C   LIG    1       -0.860   0.523   0.590  0.00  0.00    +0.070 A 
ATOM     10  C   LIG    1       -1.117   1.883   0.499  0.00  0.00    +0.000 A 
ATOM     11  C   LIG    1       -0.076   2.779   0.385  0.00  0.00    +0.100 A 
ATOM     12  C   LIG    1        1.236   2.313   0.364  0.00  0.00    -0.120 A 
ATOM     13  C   LIG    1        4.855   2.274   0.212  0.00  0.00    +0.560 A 
ATOM     14  O   LIG    1        5.716   1.410   0.243  0.00  0.00    -0.480 OA
ENDROOT
BRANCH   1  15
ATOM     15  C   LIG    1        6.599   3.961   0.004  0.00  0.00    +0.450 C 
BRANCH  15  26
ATOM     16  C   LIG    1        6.837   6.638   1.534  0.00  0.00    +0.330 C 
ATOM     17  N   LIG    1        7.255   5.331   2.045  0.00  0.00    -0.480 N 
ATOM     18  C   LIG    1        7.819   5.077   3.280  0.00  0.00    +0.060 A 
ATOM     19  C   LIG    1        8.159   5.870   4.367  0.00  0.00    +0.030 A 
ATOM     20  C   LIG    1        8.723   5.295   5.486  0.00  0.00    +0.050 A 
ATOM     21  C   LIG    1        8.954   3.926   5.534  0.00  0.00    -0.040 A 
ATOM     22  C   LIG    1        8.623   3.124   4.464  0.00  0.00    +0.090 A 
ATOM     23 CL   LIG    1        9.665   3.221   6.952  0.00  0.00    -0.060 Cl
ATOM     24  C   LIG    1        8.050   3.691   3.323  0.00  0.00    +0.050 A 
ATOM     25  N   LIG    1        7.621   3.182   2.140  0.00  0.00    -0.450 NA
ATOM     26  C   LIG    1        7.161   4.142   1.391  0.00  0.00    +0.250 A 
ENDBRANCH  15  26
ENDBRANCH   1  15
TORSDOF 2
