REMARK  Name = ZINCrH00000No4DX.0
REMARK                            x       y       z     vdW  Elec       q    Type
REMARK                         _______ _______ _______ _____ _____    ______ ____
ROOT
ATOM      1  N   LIG    1       -2.707   1.252  -0.096  0.00  0.00    -0.540 N 
ATOM      2  C   LIG    1       -3.440   0.912   1.028  0.00  0.00    +0.160 A 
ATOM      3  C   LIG    1       -3.343   1.463   2.315  0.00  0.00    -0.010 A 
ATOM      4  C   LIG    1       -4.149   1.015   3.335  0.00  0.00    +0.050 A 
ATOM      5  C   LIG    1       -5.074   0.009   3.117  0.00  0.00    +0.010 A 
ATOM      6  C   LIG    1       -5.186  -0.549   1.858  0.00  0.00    +0.100 A 
ATOM      7  C   LIG    1       -4.378  -0.101   0.829  0.00  0.00    -0.170 A 
ATOM      8  S   LIG    1       -4.252  -0.574  -0.871  0.00  0.00    +0.110 S 
ATOM      9  C   LIG    1       -2.970   0.587  -1.256  0.00  0.00    +0.370 A 
ATOM     10  N   LIG    1       -2.393   0.766  -2.415  0.00  0.00    -0.520 NA
ENDROOT
BRANCH   1  11
ATOM     11  C   LIG    1       -1.683   2.299  -0.043  0.00  0.00    +0.310 C 
BRANCH  11  14
ATOM     12  N   LIG    1       -1.534   4.732  -0.463  0.00  0.00    -0.670 N 
ATOM     13  H   LIG    1       -0.614   4.698  -0.157  0.00  0.00    +0.410 HD
ATOM     14  C   LIG    1       -2.292   3.618  -0.444  0.00  0.00    +0.490 C 
ATOM     15  O   LIG    1       -3.466   3.677  -0.746  0.00  0.00    -0.490 OA
BRANCH  12  20
ATOM     16  C   LIG    1       -3.724   9.621  -2.330  0.00  0.00    +0.090 C 
ATOM     17  C   LIG    1       -3.143   8.322  -1.834  0.00  0.00    -0.100 A 
ATOM     18  C   LIG    1       -3.938   7.432  -1.136  0.00  0.00    +0.030 A 
ATOM     19  C   LIG    1       -3.408   6.241  -0.680  0.00  0.00    +0.030 A 
ATOM     20  C   LIG    1       -2.075   5.938  -0.924  0.00  0.00    +0.140 A 
ATOM     21  C   LIG    1       -1.277   6.836  -1.621  0.00  0.00    -0.020 A 
ATOM     22  C   LIG    1       -1.815   8.023  -2.079  0.00  0.00    +0.030 A 
ENDBRANCH  12  20
ENDBRANCH  11  14
ENDBRANCH   1  11
BRANCH  10  23
ATOM     23  C   LIG    1       -1.367   1.800  -2.570  0.00  0.00    +0.200 C 
BRANCH  23  24
ATOM     24  C   LIG    1       -1.086   2.021  -4.058  0.00  0.00    +0.170 C 
ATOM     25  C   LIG    1        0.080   3.016  -4.243  0.00  0.00    +0.000 C 
ATOM     26  C   LIG    1       -0.326   3.845  -5.482  0.00  0.00    +0.000 C 
ATOM     27  C   LIG    1       -1.690   3.252  -5.899  0.00  0.00    +0.190 C 
ATOM     28  O   LIG    1       -2.217   2.655  -4.694  0.00  0.00    -0.360 OA
ENDBRANCH  23  24
ENDBRANCH  10  23
TORSDOF 5
