REMARK  Name = ZINCrH000004tyiL.0
REMARK                            x       y       z     vdW  Elec       q    Type
REMARK                         _______ _______ _______ _____ _____    ______ ____
ROOT
ATOM      1  C   LIG    1       -3.231  -1.771   0.213  0.00  0.00    +0.610 C 
ATOM      2  N   LIG    1       -3.950  -1.542  -0.904  0.00  0.00    -0.610 N 
ATOM      3  C   LIG    1       -4.427  -2.571  -1.845  0.00  0.00    +0.250 C 
ATOM      4  C   LIG    1       -5.652  -1.931  -2.544  0.00  0.00    +0.040 C 
ATOM      5  C   LIG    1       -5.198  -0.454  -2.678  0.00  0.00    +0.030 C 
ATOM      6  C   LIG    1       -4.387  -0.223  -1.385  0.00  0.00    +0.230 C 
ATOM      7  O   LIG    1       -3.011  -0.862   0.993  0.00  0.00    -0.520 OA
ENDROOT
BRANCH   1   9
ATOM      8  C   LIG    1       -2.115  -3.434   1.632  0.00  0.00    +0.310 A 
ATOM      9  C   LIG    1       -2.731  -3.070   0.480  0.00  0.00    -0.370 A 
ATOM     10  S   LIG    1       -2.834  -4.420  -0.632  0.00  0.00    +0.180 S 
ATOM     11  C   LIG    1       -2.013  -5.504   0.485  0.00  0.00    +0.080 A 
ATOM     12  N   LIG    1       -1.694  -6.794   0.348  0.00  0.00    -0.460 NA
ATOM     13  C   LIG    1       -1.078  -7.466   1.293  0.00  0.00    +0.320 A 
ATOM     14  C   LIG    1       -0.728  -6.861   2.490  0.00  0.00    -0.030 A 
ATOM     15  C   LIG    1       -1.030  -5.534   2.692  0.00  0.00    +0.120 A 
ATOM     16  C   LIG    1       -1.692  -4.824   1.665  0.00  0.00    -0.170 A 
BRANCH   8  17
ATOM     17  N   LIG    1       -1.908  -2.556   2.687  0.00  0.00    -0.820 N 
ATOM     18  H   LIG    1       -1.462  -2.863   3.492  0.00  0.00    +0.400 HD
ATOM     19  H   LIG    1       -2.209  -1.637   2.619  0.00  0.00    +0.420 HD
ENDBRANCH   8  17
ENDBRANCH   1   9
BRANCH   6  20
ATOM     20  C   LIG    1       -3.168   0.652  -1.685  0.00  0.00    -0.010 C 
BRANCH  20  21
ATOM     21  C   LIG    1       -2.468   1.018  -0.375  0.00  0.00    +0.280 C 
BRANCH  21  22
ATOM     22  C   LIG    1       -1.394   2.039  -0.647  0.00  0.00    -0.120 A 
ATOM     23  C   LIG    1       -0.088   1.632  -0.847  0.00  0.00    +0.050 A 
ATOM     24  C   LIG    1        0.896   2.568  -1.103  0.00  0.00    -0.010 A 
ATOM     25  C   LIG    1        0.575   3.914  -1.153  0.00  0.00    +0.090 A 
ATOM     26  C   LIG    1       -0.732   4.321  -0.947  0.00  0.00    -0.010 A 
ATOM     27  F   LIG    1        1.537   4.829  -1.402  0.00  0.00    -0.140 F 
ATOM     28  C   LIG    1       -1.715   3.384  -0.692  0.00  0.00    +0.040 A 
ENDBRANCH  21  22
BRANCH  21  29
ATOM     29  O   LIG    1       -3.423   1.562   0.539  0.00  0.00    -0.530 OA
ATOM     30  H   LIG    1       -3.863   2.361   0.218  0.00  0.00    +0.360 HD
ENDBRANCH  21  29
ENDBRANCH  20  21
ENDBRANCH   6  20
TORSDOF 6
