REMARK  Name = ZINCqH0000007iwa.0
REMARK                            x       y       z     vdW  Elec       q    Type
REMARK                         _______ _______ _______ _____ _____    ______ ____
ROOT
ATOM      1  O   LIG    1        3.926  -4.578  -0.369  0.00  0.00    -0.290 OA
ENDROOT
BRANCH   1   2
ATOM      2  C   LIG    1        4.161  -5.912  -0.487  0.00  0.00    +0.110 A 
ATOM      3  C   LIG    1        3.095  -6.807  -0.491  0.00  0.00    -0.040 A 
ATOM      4  C   LIG    1        3.317  -8.161  -0.617  0.00  0.00    +0.080 A 
ATOM      5  C   LIG    1        4.613  -8.647  -0.729  0.00  0.00    +0.020 A 
ATOM      6  O   LIG    1        5.127  -9.889  -0.857  0.00  0.00    -0.190 OA
ATOM      7  C   LIG    1        6.467  -9.849  -0.930  0.00  0.00    +0.040 A 
ATOM      8  C   LIG    1        6.888  -8.575  -0.852  0.00  0.00    -0.180 A 
ATOM      9  C   LIG    1        8.328  -8.139  -0.894  0.00  0.00    +0.110 C 
ATOM     10  C   LIG    1        9.214  -9.363  -0.631  0.00  0.00    +0.020 C 
ATOM     11  C   LIG    1        8.769 -10.513  -1.538  0.00  0.00    +0.030 C 
ATOM     12  C   LIG    1        7.401 -11.029  -1.078  0.00  0.00    +0.140 C 
ATOM     13  C   LIG    1        5.692  -7.745  -0.719  0.00  0.00    -0.080 A 
ATOM     14  C   LIG    1        5.458  -6.376  -0.598  0.00  0.00    +0.040 A 
ENDBRANCH   1   2
BRANCH   1  15
ATOM     15  C   LIG    1        2.561  -4.167  -0.259  0.00  0.00    +0.240 C 
BRANCH  15  18
ATOM     16  N   LIG    1        1.304  -2.050  -0.021  0.00  0.00    -0.660 N 
ATOM     17  H   LIG    1        0.493  -2.576   0.061  0.00  0.00    +0.420 HD
ATOM     18  C   LIG    1        2.497  -2.667  -0.137  0.00  0.00    +0.520 C 
ATOM     19  O   LIG    1        3.519  -2.013  -0.144  0.00  0.00    -0.490 OA
BRANCH  16  23
ATOM     20  C   LIG    1        1.038   2.066   0.035  0.00  0.00    +0.310 A 
ATOM     21  C   LIG    1        2.037   1.480  -0.732  0.00  0.00    -0.020 A 
ATOM     22  C   LIG    1        2.142   0.101  -0.763  0.00  0.00    +0.110 A 
ATOM     23  C   LIG    1        1.236  -0.651  -0.019  0.00  0.00    +0.060 A 
ATOM     24  C   LIG    1        0.264   0.004   0.724  0.00  0.00    +0.280 A 
ATOM     25  N   LIG    1        0.194   1.321   0.730  0.00  0.00    -0.520 NA
BRANCH  20  27
ATOM     26  C   LIG    1       -0.120   3.961   0.880  0.00  0.00    +0.260 C 
ATOM     27  O   LIG    1        0.927   3.418   0.073  0.00  0.00    -0.310 OA
ENDBRANCH  20  27
ENDBRANCH  16  23
ENDBRANCH  15  18
ENDBRANCH   1  15
TORSDOF 5
