REMARK  Name = ZINCpk00000e9g6d.0
REMARK                            x       y       z     vdW  Elec       q    Type
REMARK                         _______ _______ _______ _____ _____    ______ ____
ROOT
ATOM      1  N   LIG    1       -5.374   2.054   2.391  0.00  0.00    -0.600 N 
ATOM      2  C   LIG    1       -4.715   1.734   3.667  0.00  0.00    +0.280 C 
ATOM      3  C   LIG    1       -3.235   2.119   3.556  0.00  0.00    +0.220 C 
ATOM      4  O   LIG    1       -2.678   1.517   2.385  0.00  0.00    -0.370 OA
ATOM      5  C   LIG    1       -3.272   1.957   1.161  0.00  0.00    +0.140 C 
ATOM      6  C   LIG    1       -4.754   1.564   1.149  0.00  0.00    +0.290 C 
ENDROOT
BRANCH   1  14
ATOM      7  C   LIG    1       -8.248   3.957   1.165  0.00  0.00    +0.270 A 
ATOM      8  N   LIG    1       -8.844   4.250   2.301  0.00  0.00    -0.500 NA
ATOM      9  C   LIG    1       -8.340   3.847   3.473  0.00  0.00    +0.490 A 
ATOM     10  N   LIG    1       -8.746   4.011   4.727  0.00  0.00    -0.540 NA
ATOM     11  C   LIG    1       -7.897   3.415   5.555  0.00  0.00    +0.500 A 
ATOM     12  N   LIG    1       -6.931   2.856   4.868  0.00  0.00    -0.360 NA
ATOM     13  N   LIG    1       -7.187   3.116   3.515  0.00  0.00    -0.360 N 
ATOM     14  C   LIG    1       -6.538   2.790   2.359  0.00  0.00    +0.490 A 
ATOM     15  C   LIG    1       -7.067   3.219   1.157  0.00  0.00    -0.160 A 
BRANCH   7  16
ATOM     16  C   LIG    1       -8.844   4.428  -0.137  0.00  0.00    +0.120 C 
BRANCH  16  18
ATOM     17  C   LIG    1      -10.730   5.695  -1.176  0.00  0.00    +0.000 C 
ATOM     18  C   LIG    1      -10.125   5.216   0.145  0.00  0.00    +0.030 C 
ENDBRANCH  16  18
ENDBRANCH   7  16
ENDBRANCH   1  14
BRANCH   5  19
ATOM     19  C   LIG    1       -2.559   1.296  -0.020  0.00  0.00    +0.370 C 
BRANCH  19  20
ATOM     20  N   LIG    1       -1.171   1.762  -0.074  0.00  0.00    -0.370 N 
ATOM     21  C   LIG    1       -0.071   0.979  -0.080  0.00  0.00    +0.230 A 
ATOM     22  C   LIG    1        1.011   1.790  -0.142  0.00  0.00    -0.240 A 
ATOM     23  C   LIG    1        0.557   3.112  -0.170  0.00  0.00    +0.230 A 
ATOM     24  C   LIG    1        2.450   1.345  -0.175  0.00  0.00    +0.110 C 
ATOM     25  N   LIG    1       -0.751   3.097  -0.127  0.00  0.00    -0.300 NA
ENDBRANCH  19  20
ENDBRANCH   5  19
TORSDOF 5
