REMARK  Name = ZINCqH00000079Ya.0
REMARK                            x       y       z     vdW  Elec       q    Type
REMARK                         _______ _______ _______ _____ _____    ______ ____
ROOT
ATOM      1  N   LIG    1        2.344   4.291   0.105  0.00  0.00    -0.710 N 
ATOM      2  H   LIG    1        3.182   3.801   0.094  0.00  0.00    +0.400 HD
ATOM      3  C   LIG    1        1.175   3.628   0.011  0.00  0.00    +0.560 C 
ATOM      4  O   LIG    1        0.131   4.245  -0.068  0.00  0.00    -0.520 OA
ENDROOT
BRANCH   3   5
ATOM      5  C   LIG    1        1.162   2.145   0.004  0.00  0.00    -0.030 A 
ATOM      6  C   LIG    1        2.329   1.437  -0.035  0.00  0.00    +0.000 A 
ATOM      7  C   LIG    1        2.283  -0.024  -0.042  0.00  0.00    +0.540 A 
ATOM      8  N   LIG    1        1.110  -0.680  -0.010  0.00  0.00    -0.630 N 
ATOM      9  H   LIG    1        1.108  -1.650  -0.016  0.00  0.00    +0.420 HD
ATOM     10  C   LIG    1       -0.089  -0.002   0.029  0.00  0.00    +0.180 A 
ATOM     11  C   LIG    1       -1.294  -0.701   0.062  0.00  0.00    -0.030 A 
ATOM     12  C   LIG    1       -2.485  -0.011   0.102  0.00  0.00    +0.070 A 
ATOM     13  C   LIG    1       -2.499   1.377   0.111  0.00  0.00    -0.020 A 
ATOM     14  C   LIG    1       -1.330   2.083   0.079  0.00  0.00    +0.110 A 
ATOM     15  O   LIG    1        3.324  -0.656  -0.075  0.00  0.00    -0.520 OA
ATOM     16  C   LIG    1       -0.108   1.404   0.037  0.00  0.00    -0.110 A 
ENDBRANCH   3   5
BRANCH   1  17
ATOM     17  C   LIG    1        2.351   5.751   0.224  0.00  0.00    +0.230 C 
ATOM     18  C   LIG    1        2.277   6.377  -1.171  0.00  0.00    +0.020 C 
BRANCH  17  19
ATOM     19  C   LIG    1        3.639   6.201   0.916  0.00  0.00    +0.040 C 
BRANCH  19  20
ATOM     20  C   LIG    1        3.654   5.678   2.354  0.00  0.00    +0.060 C 
BRANCH  20  24
ATOM     21  C   LIG    1        7.251   6.933   4.290  0.00  0.00    +0.120 A 
ATOM     22  C   LIG    1        6.117   7.731   4.345  0.00  0.00    -0.020 A 
ATOM     23  C   LIG    1        4.955   7.323   3.719  0.00  0.00    +0.050 A 
ATOM     24  C   LIG    1        4.922   6.121   3.037  0.00  0.00    -0.120 A 
ATOM     25  C   LIG    1        6.049   5.321   2.985  0.00  0.00    +0.040 A 
ATOM     26  C   LIG    1        7.215   5.728   3.605  0.00  0.00    -0.080 A 
BRANCH  21  28
ATOM     27  C   LIG    1        9.523   6.461   4.807  0.00  0.00    +0.250 C 
ATOM     28  O   LIG    1        8.394   7.332   4.906  0.00  0.00    -0.320 OA
ENDBRANCH  21  28
ENDBRANCH  20  24
ENDBRANCH  19  20
ENDBRANCH  17  19
ENDBRANCH   1  17
TORSDOF 6
