REMARK  Name = ZINCkj000005h1ko.0
REMARK                            x       y       z     vdW  Elec       q    Type
REMARK                         _______ _______ _______ _____ _____    ______ ____
ROOT
ATOM      1  C   LIG    1        0.010   1.073   2.407  0.00  0.00    +0.340 C 
ENDROOT
BRANCH   1   2
ATOM      2  C   LIG    1       -0.695   1.559   3.647  0.00  0.00    -0.160 A 
ATOM      3  C   LIG    1       -0.334   2.768   4.216  0.00  0.00    +0.070 A 
ATOM      4  C   LIG    1       -0.979   3.224   5.349  0.00  0.00    +0.050 A 
ATOM      5  C   LIG    1       -1.984   2.463   5.925  0.00  0.00    +0.130 A 
ATOM      6  N   LIG    1       -2.797   2.641   7.041  0.00  0.00    -0.640 N 
ATOM      7  H   LIG    1       -2.778   3.403   7.642  0.00  0.00    +0.440 HD
ATOM      8  C   LIG    1       -3.615   1.577   7.145  0.00  0.00    +0.690 A 
ATOM      9  N   LIG    1       -3.365   0.714   6.141  0.00  0.00    -0.640 N 
ATOM     10  H   LIG    1       -3.819  -0.130   5.993  0.00  0.00    +0.440 HD
ATOM     11  O   LIG    1       -4.452   1.417   8.014  0.00  0.00    -0.530 OA
ATOM     12  C   LIG    1       -2.344   1.240   5.354  0.00  0.00    +0.090 A 
ATOM     13  C   LIG    1       -1.696   0.793   4.214  0.00  0.00    +0.060 A 
ENDBRANCH   1   2
BRANCH   1  14
ATOM     14  N   LIG    1       -0.700   1.560   1.217  0.00  0.00    -0.510 N 
ATOM     15  H   LIG    1       -1.647   1.210   1.224  0.00  0.00    +0.420 HD
ATOM     16  H   LIG    1       -0.714   2.568   1.222  0.00  0.00    +0.430 HD
BRANCH  14  17
ATOM     17  C   LIG    1       -0.013   1.086   0.008  0.00  0.00    +0.370 C 
BRANCH  17  22
ATOM     18  N   LIG    1       -1.805   0.997  -1.801  0.00  0.00    -0.360 N 
ATOM     19  N   LIG    1       -2.176   1.780  -2.901  0.00  0.00    -0.250 NA
ATOM     20  C   LIG    1       -1.363   2.803  -2.969  0.00  0.00    +0.250 A 
ATOM     21  C   LIG    1       -0.451   2.706  -1.913  0.00  0.00    -0.050 A 
ATOM     22  C   LIG    1       -0.742   1.585  -1.213  0.00  0.00    -0.010 A 
BRANCH  18  24
ATOM     23  C   LIG    1       -3.569   0.090  -0.370  0.00  0.00    +0.040 C 
ATOM     24  C   LIG    1       -2.455  -0.241  -1.365  0.00  0.00    +0.320 C 
ENDBRANCH  18  24
ENDBRANCH  17  22
ENDBRANCH  14  17
ENDBRANCH   1  14
TORSDOF 5
