REMARK  Name = ZINCpk00000KfKI3.0
REMARK                            x       y       z     vdW  Elec       q    Type
REMARK                         _______ _______ _______ _____ _____    ______ ____
ROOT
ATOM      1  C   LIG    1       -5.997   1.932   5.379  0.00  0.00    +0.160 A 
ATOM      2  N   LIG    1       -5.296   0.953   5.866  0.00  0.00    -0.350 NA
ATOM      3  O   LIG    1       -4.612   0.453   4.998  0.00  0.00    +0.110 OA
ATOM      4  C   LIG    1       -4.810   1.092   3.841  0.00  0.00    +0.190 A 
ATOM      5  N   LIG    1       -5.693   2.034   4.072  0.00  0.00    -0.460 NA
ENDROOT
BRANCH   1   6
ATOM      6  C   LIG    1       -6.970   2.797   6.138  0.00  0.00    +0.350 C 
BRANCH   6   7
ATOM      7  O   LIG    1       -8.272   2.211   6.080  0.00  0.00    -0.310 OA
BRANCH   7  12
ATOM      8  F   LIG    1      -12.311   4.868   8.657  0.00  0.00    -0.140 F 
ATOM      9  C   LIG    1      -11.315   4.213   8.021  0.00  0.00    +0.060 A 
ATOM     10  C   LIG    1      -11.581   3.029   7.354  0.00  0.00    +0.040 A 
ATOM     11  C   LIG    1      -10.563   2.358   6.703  0.00  0.00    +0.020 A 
ATOM     12  C   LIG    1       -9.275   2.870   6.719  0.00  0.00    +0.120 A 
ATOM     13  C   LIG    1       -9.008   4.053   7.393  0.00  0.00    -0.040 A 
ATOM     14  C   LIG    1      -10.029   4.725   8.038  0.00  0.00    +0.030 A 
ENDBRANCH   7  12
ENDBRANCH   6   7
ENDBRANCH   1   6
BRANCH   4  15
ATOM     15  C   LIG    1       -4.150   0.785   2.522  0.00  0.00    +0.360 C 
BRANCH  15  16
ATOM     16  N   LIG    1       -2.913   1.569   2.399  0.00  0.00    -0.670 NA
ATOM     17  H   LIG    1       -3.098   2.555   2.506  0.00  0.00    +0.360 HD
BRANCH  16  18
ATOM     18  C   LIG    1       -2.241   1.295   1.122  0.00  0.00    +0.180 C 
ATOM     19  C   LIG    1       -0.743   1.587   1.261  0.00  0.00    +0.060 C 
ATOM     20  C   LIG    1       -0.013   1.086   0.008  0.00  0.00    +0.170 C 
ATOM     21  C   LIG    1       -0.754   1.592  -1.205  0.00  0.00    +0.280 A 
ATOM     22  N   LIG    1       -0.333   1.644  -2.437  0.00  0.00    -0.540 NA
ATOM     23  C   LIG    1       -1.286   2.158  -3.218  0.00  0.00    +0.420 A 
ATOM     24  N   LIG    1       -2.333   2.440  -2.484  0.00  0.00    -0.320 NA
ATOM     25  N   LIG    1       -2.010   2.079  -1.173  0.00  0.00    -0.380 N 
ATOM     26  C   LIG    1       -2.838   2.188   0.029  0.00  0.00    +0.290 C 
ENDBRANCH  16  18
ENDBRANCH  15  16
ENDBRANCH   4  15
TORSDOF 6
