REMARK  Name = ZINCpe00000MJKv2.0
REMARK                            x       y       z     vdW  Elec       q    Type
REMARK                         _______ _______ _______ _____ _____    ______ ____
ROOT
ATOM      1  C   LIG    1        3.558   0.618  -0.029  0.00  0.00    +0.640 C 
ATOM      2  N   LIG    1        4.204  -0.565  -0.043  0.00  0.00    -0.640 N 
ATOM      3  C   LIG    1        3.815  -1.983  -0.041  0.00  0.00    +0.250 C 
ATOM      4  C   LIG    1        5.152  -2.296   0.638  0.00  0.00    +0.160 C 
ATOM      5  C   LIG    1        5.606  -1.006  -0.059  0.00  0.00    +0.310 C 
ATOM      6  O   LIG    1        4.193   1.658  -0.029  0.00  0.00    -0.510 OA
ENDROOT
BRANCH   4   7
ATOM      7  N   LIG    1        5.815  -3.511   0.147  0.00  0.00    -0.510 NA
ATOM      8  C   LIG    1        5.532  -3.726  -1.280  0.00  0.00    +0.170 C 
ATOM      9  C   LIG    1        6.289  -4.966  -1.764  0.00  0.00    +0.240 C 
ATOM     10  O   LIG    1        5.913  -6.090  -0.963  0.00  0.00    -0.370 OA
ATOM     11  C   LIG    1        6.176  -5.915   0.432  0.00  0.00    +0.250 C 
ATOM     12  C   LIG    1        5.418  -4.685   0.938  0.00  0.00    +0.250 C 
BRANCH  12  13
ATOM     13  C   LIG    1        5.753  -4.450   2.389  0.00  0.00    +0.180 A 
ATOM     14  N   LIG    1        4.981  -4.700   3.419  0.00  0.00    -0.470 NA
ATOM     15  C   LIG    1        5.691  -4.334   4.501  0.00  0.00    +0.170 A 
ATOM     16  N   LIG    1        6.837  -3.888   4.082  0.00  0.00    -0.380 NA
ATOM     17  C   LIG    1        5.240  -4.425   5.936  0.00  0.00    +0.200 C 
ATOM     18  O   LIG    1        6.895  -3.952   2.872  0.00  0.00    +0.100 OA
ENDBRANCH  12  13
ENDBRANCH   4   7
BRANCH   1  22
ATOM     19  C   LIG    1        0.002  -0.004   0.002  0.00  0.00    +0.220 A 
ATOM     20  C   LIG    1       -0.016   1.357   0.009  0.00  0.00    -0.070 A 
ATOM     21  C   LIG    1        1.315   1.788  -0.001  0.00  0.00    +0.100 A 
ATOM     22  C   LIG    1        2.098   0.654  -0.015  0.00  0.00    -0.110 A 
ATOM     23  O   LIG    1        1.276  -0.420  -0.012  0.00  0.00    -0.190 OA
BRANCH  19  25
ATOM     24  C   LIG    1       -0.856  -2.216  -0.002  0.00  0.00    +0.250 C 
ATOM     25  O   LIG    1       -1.088  -0.807   0.008  0.00  0.00    -0.260 OA
ENDBRANCH  19  25
ENDBRANCH   1  22
TORSDOF 4
