REMARK  Name = ZINCpk00000xI3mr.0
REMARK                            x       y       z     vdW  Elec       q    Type
REMARK                         _______ _______ _______ _____ _____    ______ ____
ROOT
ATOM      1  C   LIG    1        2.514  -3.561   1.419  0.00  0.00    +0.170 C 
ATOM      2  C   LIG    1        1.512  -4.558   2.029  0.00  0.00    +0.270 C 
ATOM      3  N   LIG    1        2.661  -5.096   2.783  0.00  0.00    -0.650 N 
ATOM      4  C   LIG    1        2.947  -6.287   3.346  0.00  0.00    +0.540 C 
ATOM      5  O   LIG    1        4.002  -6.448   3.921  0.00  0.00    -0.520 OA
ATOM      6  C   LIG    1        3.370  -3.807   2.675  0.00  0.00    +0.310 C 
ENDROOT
BRANCH   1   7
ATOM      7  O   LIG    1        2.010  -2.228   1.318  0.00  0.00    -0.360 OA
BRANCH   7   8
ATOM      8  C   LIG    1        1.829  -1.775  -0.025  0.00  0.00    +0.360 C 
BRANCH   8  13
ATOM      9  C   LIG    1       -1.243   2.215   0.020  0.00  0.00    +0.250 C 
ATOM     10  C   LIG    1       -0.016   1.339   0.009  0.00  0.00    +0.180 A 
ATOM     11  N   LIG    1        1.221   1.747  -0.000  0.00  0.00    -0.290 NA
ATOM     12  N   LIG    1        2.006   0.727  -0.013  0.00  0.00    -0.260 NA
ATOM     13  C   LIG    1        1.296  -0.365  -0.012  0.00  0.00    +0.150 A 
ATOM     14  O   LIG    1        0.002  -0.004   0.002  0.00  0.00    -0.220 OA
ENDBRANCH   8  13
ENDBRANCH   7   8
ENDBRANCH   1   7
BRANCH   4  15
ATOM     15  C   LIG    1        1.956  -7.419   3.259  0.00  0.00    +0.090 C 
BRANCH  15  16
ATOM     16  C   LIG    1        2.522  -8.648   3.973  0.00  0.00    +0.270 C 
ATOM     17  O   LIG    1        2.632  -8.390   5.399  0.00  0.00    -0.300 OA
ATOM     18  C   LIG    1        1.864  -9.270   6.064  0.00  0.00    +0.520 C 
ATOM     19  C   LIG    1        1.190 -10.176   5.116  0.00  0.00    -0.190 A 
ATOM     20  C   LIG    1        0.305 -11.240   5.294  0.00  0.00    +0.110 A 
ATOM     21  C   LIG    1       -0.177 -11.923   4.196  0.00  0.00    +0.020 A 
ATOM     22  C   LIG    1        0.213 -11.557   2.920  0.00  0.00    +0.060 A 
ATOM     23  C   LIG    1        1.091 -10.502   2.735  0.00  0.00    +0.040 A 
ATOM     24  O   LIG    1        1.743  -9.313   7.272  0.00  0.00    -0.450 OA
ATOM     25  C   LIG    1        1.577  -9.814   3.822  0.00  0.00    -0.100 A 
ENDBRANCH  15  16
ENDBRANCH   4  15
TORSDOF 5
