REMARK  Name = ZINCpk00000xI2OB.2
REMARK                            x       y       z     vdW  Elec       q    Type
REMARK                         _______ _______ _______ _____ _____    ______ ____
ROOT
ATOM      1  C   LIG    1        1.665   3.839  -0.490  0.00  0.00    -0.010 C 
ATOM      2  C   LIG    1        1.148   4.567   0.754  0.00  0.00    +0.020 C 
ATOM      3  C   LIG    1       -0.289   4.120   1.036  0.00  0.00    +0.020 C 
ATOM      4  C   LIG    1       -0.319   2.601   1.219  0.00  0.00    +0.170 C 
ATOM      5  N   LIG    1        0.185   1.950   0.003  0.00  0.00    -0.510 NA
ATOM      6  C   LIG    1        1.579   2.328  -0.263  0.00  0.00    +0.230 C 
ENDROOT
BRANCH   6   7
ATOM      7  C   LIG    1        2.069   1.607  -1.492  0.00  0.00    +0.100 A 
ATOM      8  C   LIG    1        3.083   0.712  -1.541  0.00  0.00    -0.130 A 
ATOM      9  C   LIG    1        3.213   0.281  -2.865  0.00  0.00    +0.230 A 
ATOM     10  N   LIG    1        2.309   0.894  -3.585  0.00  0.00    -0.290 NA
ATOM     11  N   LIG    1        1.571   1.733  -2.740  0.00  0.00    -0.350 N 
ATOM     12  C   LIG    1        0.458   2.597  -3.140  0.00  0.00    +0.350 C 
ENDBRANCH   6   7
BRANCH   5  13
ATOM     13  C   LIG    1        0.042   0.491   0.089  0.00  0.00    +0.100 C 
ATOM     14  C   LIG    1       -0.777  -0.204  -1.001  0.00  0.00    +0.030 C 
ATOM     15  C   LIG    1       -1.346  -0.065   0.414  0.00  0.00    +0.030 C 
ENDBRANCH   5  13
BRANCH   1  16
ATOM     16  C   LIG    1        3.121   4.234  -0.746  0.00  0.00    +0.290 C 
BRANCH  16  18
ATOM     17  C   LIG    1        4.378   6.233  -1.347  0.00  0.00    +0.610 C 
ATOM     18  N   LIG    1        3.188   5.659  -1.080  0.00  0.00    -0.710 N 
ATOM     19  H   LIG    1        2.377   6.189  -1.110  0.00  0.00    +0.410 HD
ATOM     20  O   LIG    1        5.395   5.569  -1.310  0.00  0.00    -0.490 OA
BRANCH  17  24
ATOM     21  C   LIG    1        6.025  10.780  -2.579  0.00  0.00    +0.260 C 
ATOM     22  C   LIG    1        5.158   9.604  -2.210  0.00  0.00    +0.190 A 
ATOM     23  N   LIG    1        5.564   8.383  -1.970  0.00  0.00    -0.440 NA
ATOM     24  C   LIG    1        4.446   7.677  -1.686  0.00  0.00    +0.140 A 
ATOM     25  N   LIG    1        3.438   8.504  -1.762  0.00  0.00    -0.350 NA
ATOM     26  O   LIG    1        3.829   9.612  -2.061  0.00  0.00    +0.100 OA
ENDBRANCH  17  24
ENDBRANCH  16  18
ENDBRANCH   1  16
TORSDOF 5
