REMARK  Name = ZINCpk00000y6ubb.0
REMARK                            x       y       z     vdW  Elec       q    Type
REMARK                         _______ _______ _______ _____ _____    ______ ____
ROOT
ATOM      1  C   LIG    1       -1.429  -3.977  -4.128  0.00  0.00    +0.520 C 
ATOM      2  N   LIG    1       -2.597  -4.349  -4.688  0.00  0.00    -0.610 N 
ATOM      3  C   LIG    1       -3.876  -3.988  -4.062  0.00  0.00    +0.270 C 
ATOM      4  C   LIG    1       -4.747  -3.275  -5.107  0.00  0.00    +0.020 C 
ATOM      5  C   LIG    1       -4.883  -4.167  -6.343  0.00  0.00    +0.000 C 
ATOM      6  C   LIG    1       -3.501  -4.410  -6.953  0.00  0.00    +0.020 C 
ATOM      7  C   LIG    1       -2.615  -5.130  -5.932  0.00  0.00    +0.270 C 
ATOM      8  O   LIG    1       -0.380  -4.285  -4.652  0.00  0.00    -0.540 OA
ENDROOT
BRANCH   5   9
ATOM      9  C   LIG    1       -5.781  -3.478  -7.373  0.00  0.00    +0.180 C 
ATOM     10  O   LIG    1       -6.012  -4.349  -8.502  0.00  0.00    -0.360 OA
ATOM     11  C   LIG    1       -7.209  -3.844  -9.133  0.00  0.00    +0.210 C 
ATOM     12  C   LIG    1       -8.144  -3.470  -7.962  0.00  0.00    +0.020 C 
ATOM     13  C   LIG    1       -7.184  -3.223  -6.778  0.00  0.00    -0.040 C 
BRANCH  13  14
ATOM     14  C   LIG    1       -7.299  -1.803  -6.287  0.00  0.00    +0.530 C 
ATOM     15  O   LIG    1       -6.357  -1.046  -6.394  0.00  0.00    -0.530 OA
ATOM     16  N   LIG    1       -8.448  -1.373  -5.730  0.00  0.00    -0.850 N 
ATOM     17  H   LIG    1       -8.523  -0.459  -5.415  0.00  0.00    +0.400 HD
ATOM     18  H   LIG    1       -9.202  -1.978  -5.645  0.00  0.00    +0.400 HD
ENDBRANCH  13  14
ENDBRANCH   5   9
BRANCH   1  19
ATOM     19  C   LIG    1       -1.427  -3.175  -2.852  0.00  0.00    +0.060 C 
BRANCH  19  20
ATOM     20  C   LIG    1        0.016  -2.886  -2.433  0.00  0.00    +0.110 C 
BRANCH  20  26
ATOM     21  C   LIG    1       -0.018   1.503   0.010  0.00  0.00    +0.100 C 
ATOM     22  C   LIG    1        0.002  -0.004   0.002  0.00  0.00    -0.130 A 
ATOM     23  C   LIG    1        0.023  -0.710   1.190  0.00  0.00    +0.240 A 
ATOM     24  N   LIG    1        0.040  -2.029   1.190  0.00  0.00    -0.480 NA
ATOM     25  C   LIG    1        0.038  -2.723   0.069  0.00  0.00    +0.250 A 
ATOM     26  C   LIG    1        0.018  -2.085  -1.157  0.00  0.00    -0.130 A 
ATOM     27  C   LIG    1       -0.006  -0.700  -1.198  0.00  0.00    +0.060 A 
ENDBRANCH  20  26
ENDBRANCH  19  20
ENDBRANCH   1  19
TORSDOF 5
