REMARK  Name = ZINCqH0000008oIK.0
REMARK                            x       y       z     vdW  Elec       q    Type
REMARK                         _______ _______ _______ _____ _____    ______ ____
ROOT
ATOM      1  N   LIG    1        4.804  -2.679   0.145  0.00  0.00    -0.740 N 
ATOM      2  H   LIG    1        5.640  -2.187   0.140  0.00  0.00    +0.400 HD
ATOM      3  C   LIG    1        3.632  -2.019   0.058  0.00  0.00    +0.710 C 
ATOM      4  N   LIG    1        3.621  -0.675  -0.036  0.00  0.00    -0.690 N 
ATOM      5  H   LIG    1        4.457  -0.187  -0.109  0.00  0.00    +0.410 HD
ATOM      6  O   LIG    1        2.585  -2.637   0.065  0.00  0.00    -0.560 OA
ENDROOT
BRANCH   4   7
ATOM      7  C   LIG    1        2.405   0.017  -0.029  0.00  0.00    +0.160 A 
ATOM      8  C   LIG    1        2.317   1.262   0.582  0.00  0.00    +0.010 A 
ATOM      9  C   LIG    1        1.118   1.950   0.591  0.00  0.00    +0.030 A 
ATOM     10  C   LIG    1       -0.000   1.405  -0.005  0.00  0.00    +0.030 A 
ATOM     11  C   LIG    1        0.077   0.154  -0.621  0.00  0.00    -0.120 A 
ATOM     12  C   LIG    1        1.287  -0.539  -0.631  0.00  0.00    +0.100 A 
BRANCH  11  13
ATOM     13  C   LIG    1       -1.120  -0.433  -1.261  0.00  0.00    +0.560 C 
ATOM     14  N   LIG    1       -2.288   0.240  -1.250  0.00  0.00    -0.700 N 
ATOM     15  H   LIG    1       -2.343   1.109  -0.822  0.00  0.00    +0.400 HD
ATOM     16  O   LIG    1       -1.050  -1.521  -1.797  0.00  0.00    -0.530 OA
BRANCH  14  17
ATOM     17  C   LIG    1       -3.474  -0.342  -1.883  0.00  0.00    +0.220 C 
ATOM     18  C   LIG    1       -4.340   0.581  -2.743  0.00  0.00    +0.010 C 
ATOM     19  C   LIG    1       -4.842   0.115  -1.375  0.00  0.00    +0.020 C 
ENDBRANCH  14  17
ENDBRANCH  11  13
ENDBRANCH   4   7
BRANCH   1  21
ATOM     20  C   LIG    1        4.645  -4.550   1.712  0.00  0.00    +0.040 C 
ATOM     21  C   LIG    1        4.816  -4.141   0.248  0.00  0.00    +0.310 C 
BRANCH  21  22
ATOM     22  C   LIG    1        6.128  -4.670  -0.272  0.00  0.00    -0.080 A 
ATOM     23  C   LIG    1        6.153  -5.821  -1.037  0.00  0.00    +0.070 A 
ATOM     24  C   LIG    1        7.356  -6.309  -1.515  0.00  0.00    +0.030 A 
ATOM     25  C   LIG    1        8.535  -5.644  -1.228  0.00  0.00    +0.070 A 
ATOM     26  C   LIG    1        8.509  -4.489  -0.461  0.00  0.00    +0.070 A 
ATOM     27  F   LIG    1        9.659  -3.838  -0.179  0.00  0.00    -0.130 F 
ATOM     28  F   LIG    1        9.710  -6.120  -1.695  0.00  0.00    -0.130 F 
ATOM     29  C   LIG    1        7.304  -4.000   0.012  0.00  0.00    +0.020 A 
ENDBRANCH  21  22
ENDBRANCH   1  21
TORSDOF 5
