REMARK  Name = ZINCrH000004m8ru.0
REMARK                            x       y       z     vdW  Elec       q    Type
REMARK                         _______ _______ _______ _____ _____    ______ ____
ROOT
ATOM      1  N   LIG    1       -2.245   0.311   0.074  0.00  0.00    -0.650 N 
ATOM      2  H   LIG    1       -2.220   1.278  -0.002  0.00  0.00    +0.420 HD
ATOM      3  C   LIG    1       -1.097  -0.396   0.054  0.00  0.00    +0.590 C 
ATOM      4  O   LIG    1       -1.131  -1.611   0.044  0.00  0.00    -0.480 OA
ENDROOT
BRANCH   1  12
ATOM      5  C   LIG    1       -4.640   0.244  -0.268  0.00  0.00    +0.110 A 
ATOM      6  C   LIG    1       -5.851  -0.416  -0.141  0.00  0.00    -0.040 A 
ATOM      7  C   LIG    1       -5.900  -1.660   0.464  0.00  0.00    -0.020 A 
ATOM      8  C   LIG    1       -4.742  -2.249   0.938  0.00  0.00    -0.080 A 
ATOM      9  C   LIG    1       -3.529  -1.598   0.809  0.00  0.00    +0.070 A 
ATOM     10  C   LIG    1       -4.801  -3.603   1.596  0.00  0.00    +0.100 C 
ATOM     11 CL   LIG    1       -7.420  -2.483   0.628  0.00  0.00    -0.060 Cl
ATOM     12  C   LIG    1       -3.472  -0.351   0.205  0.00  0.00    +0.130 A 
BRANCH   5  14
ATOM     13  C   LIG    1       -5.827   2.018  -1.317  0.00  0.00    +0.250 C 
ATOM     14  O   LIG    1       -4.591   1.469  -0.857  0.00  0.00    -0.320 OA
ENDBRANCH   5  14
ENDBRANCH   1  12
BRANCH   3  15
ATOM     15  C   LIG    1        0.202   0.306   0.044  0.00  0.00    -0.040 A 
ATOM     16  N   LIG    1        0.253   1.622   0.055  0.00  0.00    -0.160 NA
ATOM     17  N   LIG    1        1.365   2.260   0.047  0.00  0.00    -0.260 N 
ATOM     18  C   LIG    1        2.575   1.648   0.028  0.00  0.00    +0.130 A 
ATOM     19  C   LIG    1        2.669   0.297   0.016  0.00  0.00    -0.080 A 
ATOM     20  C   LIG    1        3.830   2.481   0.020  0.00  0.00    +0.150 C 
ATOM     21  C   LIG    1        1.463  -0.451   0.023  0.00  0.00    +0.380 A 
ATOM     22  O   LIG    1        1.472  -1.672   0.013  0.00  0.00    -0.450 OA
BRANCH  17  23
ATOM     23  C   LIG    1        1.328   3.658   0.059  0.00  0.00    +0.110 A 
ATOM     24  C   LIG    1        1.996   4.364   1.052  0.00  0.00    +0.030 A 
ATOM     25  C   LIG    1        1.962   5.744   1.058  0.00  0.00    +0.040 A 
ATOM     26  C   LIG    1        1.255   6.424   0.083  0.00  0.00    +0.030 A 
ATOM     27  C   LIG    1        0.585   5.725  -0.904  0.00  0.00    +0.040 A 
ATOM     28  C   LIG    1        0.619   4.344  -0.919  0.00  0.00    +0.040 A 
ENDBRANCH  17  23
ENDBRANCH   3  15
TORSDOF 4
