REMARK  Name = ZINCrm00000VuODM.2
REMARK                            x       y       z     vdW  Elec       q    Type
REMARK                         _______ _______ _______ _____ _____    ______ ____
ROOT
ATOM      1  C   LIG    1       -1.282   7.177   7.318  0.00  0.00    +0.240 C 
ATOM      2  C   LIG    1       -2.210   7.650   8.443  0.00  0.00    +0.260 C 
ATOM      3  N   LIG    1       -1.555   8.728   9.194  0.00  0.00    -0.380 N 
ATOM      4  C   LIG    1       -0.256   8.262   9.696  0.00  0.00    +0.240 C 
ATOM      5  C   LIG    1        0.371   9.347  10.576  0.00  0.00    +0.070 C 
ATOM      6  C   LIG    1        0.580  10.609   9.734  0.00  0.00    +0.040 C 
ATOM      7  C   LIG    1       -0.763  11.045   9.141  0.00  0.00    +0.080 C 
ATOM      8  C   LIG    1       -1.350   9.892   8.322  0.00  0.00    +0.160 C 
ATOM      9  C   LIG    1       -0.372   9.520   7.202  0.00  0.00    +0.340 C 
ATOM     10  H   LIG    1       -2.138   8.994   9.974  0.00  0.00    +0.430 HD
ATOM     11  N   LIG    1       -0.904   8.342   6.505  0.00  0.00    -0.610 N 
ATOM     12  C   LIG    1       -1.024   8.319   5.162  0.00  0.00    +0.660 C 
ATOM     13  O   LIG    1       -1.542   7.365   4.615  0.00  0.00    -0.530 OA
ENDROOT
BRANCH   1  14
ATOM     14  C   LIG    1       -2.014   6.155   6.445  0.00  0.00    +0.340 C 
BRANCH  14  16
ATOM     15  C   LIG    1       -3.166   4.027   6.729  0.00  0.00    +0.540 C 
ATOM     16  N   LIG    1       -2.416   5.010   7.265  0.00  0.00    -0.740 N 
ATOM     17  H   LIG    1       -2.142   4.959   8.194  0.00  0.00    +0.400 HD
ATOM     18  O   LIG    1       -3.509   4.091   5.564  0.00  0.00    -0.510 OA
BRANCH  15  20
ATOM     19  C   LIG    1       -4.309   1.907   7.023  0.00  0.00    +0.010 C 
ATOM     20  C   LIG    1       -3.569   2.877   7.552  0.00  0.00    +0.000 C 
BRANCH  19  21
ATOM     21  C   LIG    1       -4.723   0.729   7.866  0.00  0.00    +0.310 C 
BRANCH  21  23
ATOM     22  C   LIG    1       -6.578  -0.630   8.550  0.00  0.00    +0.330 C 
ATOM     23  N   LIG    1       -6.184   0.587   7.827  0.00  0.00    -0.390 N 
ATOM     24  C   LIG    1       -6.807   1.756   8.461  0.00  0.00    +0.320 C 
ATOM     25  H   LIG    1       -6.490   0.522   6.868  0.00  0.00    +0.430 HD
ENDBRANCH  21  23
ENDBRANCH  19  21
ENDBRANCH  15  20
ENDBRANCH  14  16
ENDBRANCH   1  14
BRANCH  12  26
ATOM     26  O   LIG    1       -0.571   9.352   4.428  0.00  0.00    -0.360 OA
BRANCH  26  27
ATOM     27  C   LIG    1       -0.734   9.259   2.988  0.00  0.00    +0.140 C 
ATOM     28  C   LIG    1        0.011   8.027   2.469  0.00  0.00    +0.030 C 
ATOM     29  C   LIG    1       -0.164  10.515   2.328  0.00  0.00    +0.080 C 
ATOM     30  C   LIG    1       -2.221   9.135   2.650  0.00  0.00    +0.030 C 
ENDBRANCH  26  27
ENDBRANCH  12  26
TORSDOF 7
