REMARK  Name = ZINCrm00000VuODM.1
REMARK                            x       y       z     vdW  Elec       q    Type
REMARK                         _______ _______ _______ _____ _____    ______ ____
ROOT
ATOM      1  C   LIG    1       -1.055  -2.271   0.059  0.00  0.00    +0.250 C 
ATOM      2  C   LIG    1       -2.419  -2.957   0.162  0.00  0.00    +0.260 C 
ATOM      3  N   LIG    1       -2.241  -4.407   0.337  0.00  0.00    -0.380 N 
ATOM      4  C   LIG    1       -3.574  -5.028   0.331  0.00  0.00    +0.250 C 
ATOM      5  C   LIG    1       -3.451  -6.547   0.450  0.00  0.00    +0.060 C 
ATOM      6  C   LIG    1       -2.752  -6.882   1.772  0.00  0.00    +0.040 C 
ATOM      7  C   LIG    1       -1.387  -6.197   1.790  0.00  0.00    +0.070 C 
ATOM      8  C   LIG    1       -1.557  -4.686   1.603  0.00  0.00    +0.160 C 
ATOM      9  C   LIG    1       -0.158  -4.054   1.592  0.00  0.00    +0.340 C 
ATOM     10  H   LIG    1       -1.696  -4.774  -0.429  0.00  0.00    +0.420 HD
ATOM     11  N   LIG    1       -0.275  -2.629   1.255  0.00  0.00    -0.610 N 
ATOM     12  C   LIG    1        0.310  -1.683   2.015  0.00  0.00    +0.660 C 
ATOM     13  O   LIG    1        0.119  -0.507   1.776  0.00  0.00    -0.530 OA
ENDROOT
BRANCH   1  14
ATOM     14  C   LIG    1       -1.242  -0.754  -0.001  0.00  0.00    +0.340 C 
BRANCH  14  16
ATOM     15  C   LIG    1       -2.398   0.873  -1.400  0.00  0.00    +0.540 C 
ATOM     16  N   LIG    1       -2.022  -0.405  -1.192  0.00  0.00    -0.740 N 
ATOM     17  H   LIG    1       -2.267  -1.093  -1.830  0.00  0.00    +0.400 HD
ATOM     18  O   LIG    1       -2.095   1.734  -0.597  0.00  0.00    -0.510 OA
BRANCH  15  20
ATOM     19  C   LIG    1       -3.553   2.483  -2.800  0.00  0.00    +0.010 C 
ATOM     20  C   LIG    1       -3.181   1.223  -2.595  0.00  0.00    +0.000 C 
BRANCH  19  21
ATOM     21  C   LIG    1       -4.354   2.842  -4.025  0.00  0.00    +0.310 C 
BRANCH  21  23
ATOM     22  C   LIG    1       -6.311   3.985  -4.813  0.00  0.00    +0.330 C 
ATOM     23  N   LIG    1       -5.588   3.529  -3.619  0.00  0.00    -0.390 N 
ATOM     24  C   LIG    1       -6.436   2.603  -2.857  0.00  0.00    +0.320 C 
ATOM     25  H   LIG    1       -5.356   4.324  -3.042  0.00  0.00    +0.430 HD
ENDBRANCH  21  23
ENDBRANCH  19  21
ENDBRANCH  15  20
ENDBRANCH  14  16
ENDBRANCH   1  14
BRANCH  12  26
ATOM     26  O   LIG    1        1.108  -2.040   3.039  0.00  0.00    -0.360 OA
BRANCH  26  27
ATOM     27  C   LIG    1        1.705  -0.967   3.815  0.00  0.00    +0.140 C 
ATOM     28  C   LIG    1        2.573  -0.100   2.901  0.00  0.00    +0.030 C 
ATOM     29  C   LIG    1        2.571  -1.563   4.926  0.00  0.00    +0.080 C 
ATOM     30  C   LIG    1        0.600  -0.109   4.434  0.00  0.00    +0.030 C 
ENDBRANCH  26  27
ENDBRANCH  12  26
TORSDOF 7
