REMARK  Name = ZINCrH000004mTGm.0
REMARK                            x       y       z     vdW  Elec       q    Type
REMARK                         _______ _______ _______ _____ _____    ______ ____
ROOT
ATOM      1  N   LIG    1       -0.980   1.966  -1.254  0.00  0.00    -1.100 NA
ATOM      2  H   LIG    1       -1.310   1.336  -1.913  0.00  0.00    +0.420 HD
ENDROOT
BRANCH   1   3
ATOM      3  S   LIG    1        0.023   1.447  -0.043  0.00  0.00    +2.700 S 
ATOM      4  O   LIG    1        0.231   0.059  -0.261  0.00  0.00    -0.940 OA
ATOM      5  O   LIG    1       -0.504   1.973   1.168  0.00  0.00    -0.950 OA
BRANCH   3  10
ATOM      6  C   LIG    1        3.283   3.750   0.450  0.00  0.00    +0.080 A 
ATOM      7  C   LIG    1        4.037   3.456  -0.677  0.00  0.00    +0.030 A 
ATOM      8  C   LIG    1        3.565   2.550  -1.607  0.00  0.00    -0.040 A 
ATOM      9  C   LIG    1        2.337   1.934  -1.414  0.00  0.00    +0.200 A 
ATOM     10  C   LIG    1        1.583   2.229  -0.287  0.00  0.00    -0.670 A 
ATOM     11  C   LIG    1        2.053   3.138   0.640  0.00  0.00    +0.140 A 
BRANCH   6  13
ATOM     12  C   LIG    1        5.020   5.238   1.102  0.00  0.00    +0.250 C 
ATOM     13  O   LIG    1        3.748   4.642   1.365  0.00  0.00    -0.310 OA
ENDBRANCH   6  13
BRANCH   9  14
ATOM     14  O   LIG    1        1.873   1.042  -2.329  0.00  0.00    -0.310 OA
ATOM     15  C   LIG    1        2.701   0.787  -3.465  0.00  0.00    +0.260 C 
ENDBRANCH   9  14
ENDBRANCH   3  10
ENDBRANCH   1   3
BRANCH   1  16
ATOM     16  C   LIG    1       -1.370   3.376  -1.328  0.00  0.00    +0.350 C 
BRANCH  16  17
ATOM     17  C   LIG    1       -2.804   3.478  -1.779  0.00  0.00    -0.080 A 
ATOM     18  C   LIG    1       -3.279   2.639  -2.770  0.00  0.00    +0.010 A 
ATOM     19  C   LIG    1       -4.596   2.729  -3.179  0.00  0.00    +0.000 A 
ATOM     20  C   LIG    1       -5.436   3.665  -2.605  0.00  0.00    +0.000 A 
ATOM     21  C   LIG    1       -4.960   4.507  -1.618  0.00  0.00    +0.010 A 
ATOM     22  C   LIG    1       -3.644   4.414  -1.204  0.00  0.00    +0.020 A 
ENDBRANCH  16  17
BRANCH  16  23
ATOM     23  C   LIG    1       -0.482   4.091  -2.314  0.00  0.00    -0.100 A 
ATOM     24  C   LIG    1       -0.115   3.468  -3.492  0.00  0.00    +0.030 A 
ATOM     25  C   LIG    1        0.696   4.126  -4.398  0.00  0.00    +0.000 A 
ATOM     26  C   LIG    1        1.147   5.403  -4.122  0.00  0.00    +0.000 A 
ATOM     27  C   LIG    1        0.784   6.024  -2.942  0.00  0.00    +0.000 A 
ATOM     28  C   LIG    1       -0.030   5.368  -2.038  0.00  0.00    +0.020 A 
ENDBRANCH  16  23
ENDBRANCH   1  16
TORSDOF 7
