REMARK  Name = ZINCrH000004s9l8.0
REMARK                            x       y       z     vdW  Elec       q    Type
REMARK                         _______ _______ _______ _____ _____    ______ ____
ROOT
ATOM      1  N   LIG    1       -5.380  -4.687   2.321  0.00  0.00    -0.670 N 
ATOM      2  H   LIG    1       -5.207  -3.882   2.834  0.00  0.00    +0.420 HD
ATOM      3  C   LIG    1       -4.555  -5.036   1.314  0.00  0.00    +0.730 C 
ATOM      4  N   LIG    1       -3.556  -4.210   0.946  0.00  0.00    -0.660 N 
ATOM      5  C   LIG    1       -2.495  -4.263  -0.080  0.00  0.00    +0.320 C 
ATOM      6  C   LIG    1       -2.495  -2.725  -0.009  0.00  0.00    +0.000 C 
ATOM      7  C   LIG    1       -3.084  -2.886   1.405  0.00  0.00    +0.290 C 
ATOM      8  O   LIG    1       -4.713  -6.095   0.738  0.00  0.00    -0.570 OA
ENDROOT
BRANCH   1  14
ATOM      9  C   LIG    1       -7.024  -5.476   3.915  0.00  0.00    +0.110 A 
ATOM     10  C   LIG    1       -8.124  -6.268   4.210  0.00  0.00    +0.010 A 
ATOM     11  C   LIG    1       -8.679  -7.072   3.233  0.00  0.00    +0.020 A 
ATOM     12  C   LIG    1       -8.144  -7.087   1.958  0.00  0.00    +0.030 A 
ATOM     13  C   LIG    1       -7.051  -6.298   1.653  0.00  0.00    +0.050 A 
ATOM     14  C   LIG    1       -6.488  -5.487   2.628  0.00  0.00    +0.180 A 
BRANCH   9  18
ATOM     15  C   LIG    1       -4.113  -2.124   6.129  0.00  0.00    +0.150 C 
ATOM     16  C   LIG    1       -5.161  -3.177   5.875  0.00  0.00    +0.090 A 
ATOM     17  N   LIG    1       -5.415  -3.743   4.722  0.00  0.00    -0.320 NA
ATOM     18  N   LIG    1       -6.455  -4.663   4.907  0.00  0.00    -0.310 N 
ATOM     19  C   LIG    1       -6.819  -4.625   6.208  0.00  0.00    +0.240 A 
ATOM     20  C   LIG    1       -6.029  -3.717   6.829  0.00  0.00    -0.100 A 
ENDBRANCH   9  18
ENDBRANCH   1  14
BRANCH   6  21
ATOM     21  C   LIG    1       -1.096  -2.107  -0.026  0.00  0.00    +0.210 C 
BRANCH  21  22
ATOM     22  O   LIG    1       -1.204  -0.682  -0.029  0.00  0.00    -0.310 OA
BRANCH  22  23
ATOM     23  C   LIG    1       -0.043   0.024  -0.045  0.00  0.00    +0.130 A 
ATOM     24  C   LIG    1       -0.074   1.411  -0.049  0.00  0.00    -0.020 A 
ATOM     25  C   LIG    1        1.107   2.127  -0.064  0.00  0.00    +0.050 A 
ATOM     26  C   LIG    1        2.320   1.463  -0.074  0.00  0.00    -0.040 A 
ATOM     27  C   LIG    1        2.353   0.080  -0.071  0.00  0.00    +0.050 A 
ATOM     28  C   LIG    1        1.175  -0.640  -0.056  0.00  0.00    -0.080 A 
ENDBRANCH  22  23
ENDBRANCH  21  22
ENDBRANCH   6  21
TORSDOF 5
