REMARK  Name = ZINCqH0000002SUW.0
REMARK                            x       y       z     vdW  Elec       q    Type
REMARK                         _______ _______ _______ _____ _____    ______ ____
ROOT
ATOM      1  C   LIG    1       -5.300   4.135   0.044  0.00  0.00    +0.160 A 
ATOM      2  C   LIG    1       -4.320   5.108   0.220  0.00  0.00    +0.020 A 
ATOM      3  C   LIG    1       -2.991   4.769   0.209  0.00  0.00    +0.100 A 
ATOM      4  C   LIG    1       -2.595   3.429   0.018  0.00  0.00    +0.090 A 
ATOM      5  N   LIG    1       -1.349   2.915  -0.017  0.00  0.00    -0.460 NA
ATOM      6  C   LIG    1       -1.224   1.649  -0.210  0.00  0.00    +0.340 A 
ATOM      7  S   LIG    1       -2.804   0.895  -0.370  0.00  0.00    +0.090 S 
ATOM      8  C   LIG    1       -3.587   2.459  -0.158  0.00  0.00    -0.160 A 
ATOM      9  C   LIG    1       -4.933   2.814  -0.144  0.00  0.00    +0.080 A 
ENDROOT
BRANCH   1  11
ATOM     10  C   LIG    1       -7.572   3.635   0.552  0.00  0.00    +0.600 C 
ATOM     11  N   LIG    1       -6.655   4.491   0.058  0.00  0.00    -0.670 N 
ATOM     12  H   LIG    1       -6.933   5.354  -0.287  0.00  0.00    +0.410 HD
ATOM     13  O   LIG    1       -7.215   2.595   1.072  0.00  0.00    -0.510 OA
BRANCH  10  19
ATOM     14  C   LIG    1      -10.077   3.167   0.930  0.00  0.00    +0.140 A 
ATOM     15  N   LIG    1      -11.190   3.793   0.666  0.00  0.00    -0.290 NA
ATOM     16  N   LIG    1      -10.890   5.000   0.024  0.00  0.00    -0.460 N 
ATOM     17  H   LIG    1      -11.536   5.656  -0.280  0.00  0.00    +0.450 HD
ATOM     18  C   LIG    1       -9.556   5.099  -0.093  0.00  0.00    +0.300 A 
ATOM     19  C   LIG    1       -9.007   3.960   0.461  0.00  0.00    -0.290 A 
BRANCH  14  20
ATOM     20  C   LIG    1       -9.955   1.830   1.616  0.00  0.00    +0.130 C 
BRANCH  20  22
ATOM     21  C   LIG    1       -9.720   0.684   3.823  0.00  0.00    +0.020 C 
ATOM     22  C   LIG    1       -9.844   2.041   3.127  0.00  0.00    +0.020 C 
ENDBRANCH  20  22
ENDBRANCH  14  20
ENDBRANCH  10  19
ENDBRANCH   1  11
BRANCH   6  23
ATOM     23  N   LIG    1       -0.015   0.974  -0.276  0.00  0.00    -0.610 N 
ATOM     24  H   LIG    1       -0.002   0.015  -0.420  0.00  0.00    +0.430 HD
ATOM     25  C   LIG    1        1.143   1.651  -0.145  0.00  0.00    +0.650 C 
ATOM     26  O   LIG    1        1.127   2.853   0.035  0.00  0.00    -0.500 OA
BRANCH  25  27
ATOM     27  O   LIG    1        2.317   0.997  -0.215  0.00  0.00    -0.370 OA
BRANCH  27  28
ATOM     28  C   LIG    1        3.524   1.790  -0.065  0.00  0.00    +0.220 C 
ATOM     29  C   LIG    1        4.749   0.880  -0.172  0.00  0.00    +0.080 C 
ENDBRANCH  27  28
ENDBRANCH  25  27
ENDBRANCH   6  23
TORSDOF 7
