REMARK  Name = ZINCqH0000002SUW.1
REMARK                            x       y       z     vdW  Elec       q    Type
REMARK                         _______ _______ _______ _____ _____    ______ ____
ROOT
ATOM      1  C   LIG    1       -5.301   4.133   0.056  0.00  0.00    +0.160 A 
ATOM      2  C   LIG    1       -4.317   5.119   0.054  0.00  0.00    +0.020 A 
ATOM      3  C   LIG    1       -2.989   4.778   0.053  0.00  0.00    +0.090 A 
ATOM      4  C   LIG    1       -2.597   3.423   0.053  0.00  0.00    +0.090 A 
ATOM      5  N   LIG    1       -1.351   2.906   0.057  0.00  0.00    -0.460 NA
ATOM      6  C   LIG    1       -1.230   1.624   0.052  0.00  0.00    +0.340 A 
ATOM      7  S   LIG    1       -2.813   0.860   0.055  0.00  0.00    +0.090 S 
ATOM      8  C   LIG    1       -3.592   2.440   0.055  0.00  0.00    -0.160 A 
ATOM      9  C   LIG    1       -4.937   2.798   0.057  0.00  0.00    +0.080 A 
ENDROOT
BRANCH   1  11
ATOM     10  C   LIG    1       -7.551   3.740  -0.613  0.00  0.00    +0.600 C 
ATOM     11  N   LIG    1       -6.655   4.491   0.057  0.00  0.00    -0.670 N 
ATOM     12  H   LIG    1       -6.947   5.280   0.539  0.00  0.00    +0.410 HD
ATOM     13  O   LIG    1       -7.199   2.706  -1.148  0.00  0.00    -0.520 OA
BRANCH  10  15
ATOM     14  C   LIG    1       -9.980   3.512  -1.350  0.00  0.00    +0.180 A 
ATOM     15  C   LIG    1       -8.958   4.172  -0.698  0.00  0.00    -0.300 A 
ATOM     16  C   LIG    1       -9.511   5.342  -0.131  0.00  0.00    +0.280 A 
ATOM     17  N   LIG    1      -10.782   5.370  -0.425  0.00  0.00    -0.290 NA
ATOM     18  N   LIG    1      -11.098   4.237  -1.182  0.00  0.00    -0.460 N 
ATOM     19  H   LIG    1      -11.976   4.014  -1.530  0.00  0.00    +0.450 HD
BRANCH  14  20
ATOM     20  C   LIG    1       -9.863   2.215  -2.109  0.00  0.00    +0.120 C 
BRANCH  20  22
ATOM     21  C   LIG    1       -9.878  -0.275  -1.907  0.00  0.00    +0.020 C 
ATOM     22  C   LIG    1       -9.997   1.042  -1.137  0.00  0.00    +0.020 C 
ENDBRANCH  20  22
ENDBRANCH  14  20
ENDBRANCH  10  15
ENDBRANCH   1  11
BRANCH   6  23
ATOM     23  N   LIG    1       -0.023   0.944   0.051  0.00  0.00    -0.610 N 
ATOM     24  H   LIG    1       -0.013  -0.026   0.051  0.00  0.00    +0.430 HD
ATOM     25  C   LIG    1        1.137   1.629   0.043  0.00  0.00    +0.650 C 
ATOM     26  O   LIG    1        1.125   2.844   0.042  0.00  0.00    -0.500 OA
BRANCH  25  27
ATOM     27  O   LIG    1        2.310   0.968   0.036  0.00  0.00    -0.370 OA
BRANCH  27  28
ATOM     28  C   LIG    1        3.520   1.772   0.028  0.00  0.00    +0.220 C 
ATOM     29  C   LIG    1        4.743   0.852   0.021  0.00  0.00    +0.080 C 
ENDBRANCH  27  28
ENDBRANCH  25  27
ENDBRANCH   6  23
TORSDOF 7
