REMARK  Name = ZINCrH000004sObM.0
REMARK                            x       y       z     vdW  Elec       q    Type
REMARK                         _______ _______ _______ _____ _____    ______ ____
ROOT
ATOM      1  C   LIG    1       -2.669  -2.131  -1.442  0.00  0.00    +0.170 C 
ATOM      2  C   LIG    1       -2.187  -3.597  -1.535  0.00  0.00    +0.000 C 
ATOM      3  C   LIG    1       -3.115  -4.261  -2.570  0.00  0.00    +0.180 C 
ATOM      4  N   LIG    1       -4.082  -3.231  -3.009  0.00  0.00    -0.490 NA
ATOM      5  C   LIG    1       -3.411  -1.925  -2.787  0.00  0.00    +0.190 C 
ENDROOT
BRANCH   1   6
ATOM      6  O   LIG    1       -1.558  -1.239  -1.336  0.00  0.00    -0.370 OA
BRANCH   6   7
ATOM      7  C   LIG    1       -1.173  -0.948   0.009  0.00  0.00    +0.280 C 
BRANCH   7  14
ATOM      8  C   LIG    1       -1.236   2.296   0.021  0.00  0.00    +0.160 C 
ATOM      9  C   LIG    1       -0.017   1.410   0.010  0.00  0.00    +0.040 A 
ATOM     10  N   LIG    1        1.227   1.794   0.000  0.00  0.00    -0.360 NA
ATOM     11  O   LIG    1        1.984   0.851  -0.012  0.00  0.00    +0.100 OA
ATOM     12  C   LIG    1        1.321  -0.314  -0.012  0.00  0.00    -0.000 A 
ATOM     13  C   LIG    1        1.923  -1.695  -0.026  0.00  0.00    +0.190 C 
ATOM     14  C   LIG    1        0.002  -0.004   0.002  0.00  0.00    -0.210 A 
ENDBRANCH   7  14
ENDBRANCH   6   7
ENDBRANCH   1   6
BRANCH   4  15
ATOM     15  C   LIG    1       -4.433  -3.409  -4.424  0.00  0.00    +0.390 C 
BRANCH  15  16
ATOM     16  C   LIG    1       -3.246  -3.058  -5.285  0.00  0.00    +0.150 A 
ATOM     17  N   LIG    1       -2.303  -3.876  -5.680  0.00  0.00    -0.460 NA
ATOM     18  C   LIG    1       -1.461  -3.126  -6.426  0.00  0.00    +0.210 A 
ATOM     19  N   LIG    1       -1.933  -1.906  -6.432  0.00  0.00    -0.370 NA
ATOM     20  O   LIG    1       -2.955  -1.852  -5.782  0.00  0.00    +0.090 OA
BRANCH  18  21
ATOM     21  C   LIG    1       -0.229  -3.597  -7.105  0.00  0.00    -0.020 A 
ATOM     22  C   LIG    1        0.157  -4.932  -7.006  0.00  0.00    +0.080 A 
ATOM     23  C   LIG    1        1.301  -5.367  -7.645  0.00  0.00    +0.030 A 
ATOM     24  C   LIG    1        2.071  -4.476  -8.373  0.00  0.00    -0.020 A 
ATOM     25  C   LIG    1        1.695  -3.147  -8.469  0.00  0.00    +0.030 A 
ATOM     26 CL   LIG    1        3.512  -5.027  -9.167  0.00  0.00    -0.060 Cl
ATOM     27  C   LIG    1        0.550  -2.704  -7.840  0.00  0.00    +0.070 A 
ENDBRANCH  18  21
ENDBRANCH  15  16
ENDBRANCH   4  15
TORSDOF 6
