REMARK  Name = ZINCrH000004r3ir.0
REMARK                            x       y       z     vdW  Elec       q    Type
REMARK                         _______ _______ _______ _____ _____    ______ ____
ROOT
ATOM      1  C   LIG    1       -5.010  -0.535   0.508  0.00  0.00    +0.520 C 
ATOM      2  N   LIG    1       -6.010  -1.422   0.336  0.00  0.00    -0.710 N 
ATOM      3  H   LIG    1       -5.829  -2.373   0.388  0.00  0.00    +0.410 HD
ATOM      4  O   LIG    1       -5.236   0.655   0.442  0.00  0.00    -0.540 OA
ENDROOT
BRANCH   1   5
ATOM      5  C   LIG    1       -3.610  -1.022   0.782  0.00  0.00    +0.080 C 
BRANCH   5   6
ATOM      6  C   LIG    1       -2.674   0.178   0.936  0.00  0.00    +0.070 C 
BRANCH   6   7
ATOM      7  C   LIG    1       -1.274  -0.308   1.211  0.00  0.00    +0.430 C 
ATOM      8  O   LIG    1       -1.048  -1.500   1.276  0.00  0.00    -0.450 OA
BRANCH   7  13
ATOM      9  C   LIG    1        1.956   3.925   1.741  0.00  0.00    +0.140 C 
ATOM     10  C   LIG    1        1.273   2.585   1.637  0.00  0.00    -0.180 A 
ATOM     11  C   LIG    1        1.892   1.405   1.778  0.00  0.00    -0.020 A 
ATOM     12  C   LIG    1        1.084   0.304   1.646  0.00  0.00    +0.120 A 
ATOM     13  C   LIG    1       -0.226   0.621   1.391  0.00  0.00    -0.320 A 
ATOM     14  S   LIG    1       -0.391   2.370   1.326  0.00  0.00    +0.230 S 
ENDBRANCH   7  13
ENDBRANCH   6   7
ENDBRANCH   5   6
ENDBRANCH   1   5
BRANCH   2  15
ATOM     15  C   LIG    1       -7.371  -0.949   0.069  0.00  0.00    +0.390 C 
BRANCH  15  16
ATOM     16  C   LIG    1       -8.363  -1.971   0.559  0.00  0.00    -0.130 A 
ATOM     17  C   LIG    1       -8.011  -3.306   0.611  0.00  0.00    +0.060 A 
ATOM     18  C   LIG    1       -8.921  -4.245   1.061  0.00  0.00    +0.020 A 
ATOM     19  C   LIG    1      -10.185  -3.849   1.458  0.00  0.00    +0.060 A 
ATOM     20  C   LIG    1      -10.540  -2.514   1.406  0.00  0.00    -0.010 A 
ATOM     21  C   LIG    1       -9.627  -1.573   0.962  0.00  0.00    +0.110 A 
ATOM     22  F   LIG    1       -9.970  -0.267   0.916  0.00  0.00    -0.140 F 
ENDBRANCH  15  16
BRANCH  15  23
ATOM     23  C   LIG    1       -7.550  -0.744  -1.413  0.00  0.00    +0.190 A 
ATOM     24  N   LIG    1       -7.162  -1.569  -2.347  0.00  0.00    -0.470 NA
ATOM     25  C   LIG    1       -7.488  -1.064  -3.546  0.00  0.00    +0.140 A 
ATOM     26  C   LIG    1       -8.095   0.122  -3.349  0.00  0.00    +0.130 A 
ATOM     27  N   LIG    1       -8.134   0.325  -1.996  0.00  0.00    -0.450 N 
ATOM     28  C   LIG    1       -8.704   1.486  -1.308  0.00  0.00    +0.320 C 
ENDBRANCH  15  23
ENDBRANCH   2  15
TORSDOF 7
