REMARK  Name = ZINCpk000000mR1R.0
REMARK                            x       y       z     vdW  Elec       q    Type
REMARK                         _______ _______ _______ _____ _____    ______ ____
ROOT
ATOM      1  N   LIG    1        4.499   3.125  -2.233  0.00  0.00    -0.740 N 
ATOM      2  H   LIG    1        4.540   2.548  -3.011  0.00  0.00    +0.400 HD
ATOM      3  C   LIG    1        5.270   4.229  -2.172  0.00  0.00    +0.710 C 
ATOM      4  N   LIG    1        6.097   4.531  -3.192  0.00  0.00    -0.740 N 
ATOM      5  H   LIG    1        6.137   3.954  -3.971  0.00  0.00    +0.400 HD
ATOM      6  O   LIG    1        5.220   4.952  -1.196  0.00  0.00    -0.590 OA
ENDROOT
BRANCH   1  12
ATOM      7  C   LIG    1       -0.150  -0.292   0.014  0.00  0.00    +0.080 C 
ATOM      8  C   LIG    1       -0.014   1.209   0.009  0.00  0.00    +0.510 C 
ATOM      9  N   LIG    1        1.208   1.775  -0.013  0.00  0.00    -0.620 N 
ATOM     10  C   LIG    1        1.356   3.233  -0.123  0.00  0.00    +0.280 C 
ATOM     11  C   LIG    1        2.281   3.552  -1.297  0.00  0.00    +0.010 C 
ATOM     12  C   LIG    1        3.601   2.797  -1.123  0.00  0.00    +0.250 C 
ATOM     13  C   LIG    1        3.331   1.290  -1.114  0.00  0.00    +0.020 C 
ATOM     14  C   LIG    1        2.419   0.946   0.067  0.00  0.00    +0.290 C 
ATOM     15  O   LIG    1       -1.006   1.907   0.029  0.00  0.00    -0.540 OA
ENDBRANCH   1  12
BRANCH   4  16
ATOM     16  C   LIG    1        6.935   5.731  -3.126  0.00  0.00    +0.350 C 
BRANCH  16  17
ATOM     17  C   LIG    1        7.760   5.838  -4.383  0.00  0.00    -0.190 A 
ATOM     18  C   LIG    1        7.271   6.526  -5.485  0.00  0.00    +0.110 A 
ATOM     19  C   LIG    1        8.060   6.600  -6.619  0.00  0.00    -0.040 A 
ATOM     20  C   LIG    1        9.309   5.988  -6.616  0.00  0.00    +0.310 A 
ATOM     21  N   LIG    1        9.739   5.340  -5.544  0.00  0.00    -0.520 NA
ATOM     22  C   LIG    1        9.011   5.258  -4.447  0.00  0.00    +0.310 A 
BRANCH  20  23
ATOM     23  N   LIG    1       10.111   6.055  -7.749  0.00  0.00    -0.460 N 
ATOM     24  C   LIG    1       10.479   7.460  -8.059  0.00  0.00    +0.190 C 
ATOM     25  C   LIG    1       11.733   7.310  -8.955  0.00  0.00    +0.040 C 
ATOM     26  C   LIG    1       12.471   6.110  -8.318  0.00  0.00    +0.020 C 
ATOM     27  C   LIG    1       11.390   5.342  -7.536  0.00  0.00    +0.190 C 
ENDBRANCH  20  23
ENDBRANCH  16  17
ENDBRANCH   4  16
TORSDOF 4
