REMARK  Name = ZINCpe00000gMVxG.2
REMARK                            x       y       z     vdW  Elec       q    Type
REMARK                         _______ _______ _______ _____ _____    ______ ____
ROOT
ATOM      1  C   LIG    1        2.394   4.367  -2.475  0.00  0.00    +0.100 C 
ATOM      2  C   LIG    1        3.139   4.516  -1.174  0.00  0.00    +0.190 A 
ATOM      3  C   LIG    1        2.534   4.179   0.000  0.00  0.00    -0.340 A 
ATOM      4  C   LIG    1        3.254   4.321   1.204  0.00  0.00    +0.500 A 
ATOM      5  N   LIG    1        4.519   4.793   1.149  0.00  0.00    -0.610 NA
ATOM      6  C   LIG    1        5.068   5.118  -0.055  0.00  0.00    +0.380 A 
ATOM      7  O   LIG    1        2.746   4.025   2.272  0.00  0.00    -0.620 OA
ATOM      8  N   LIG    1        4.387   4.981  -1.172  0.00  0.00    -0.610 NA
ENDROOT
BRANCH   6   9
ATOM      9  C   LIG    1        6.453   5.634  -0.106  0.00  0.00    +0.200 A 
ATOM     10  C   LIG    1        7.024   5.963  -1.334  0.00  0.00    +0.020 A 
ATOM     11  C   LIG    1        8.320   6.450  -1.365  0.00  0.00    +0.040 A 
ATOM     12  C   LIG    1        9.007   6.581  -0.168  0.00  0.00    -0.050 A 
ATOM     13  C   LIG    1        8.380   6.229   1.017  0.00  0.00    +0.240 A 
ATOM     14  N   LIG    1        7.146   5.774   1.019  0.00  0.00    -0.440 NA
ENDBRANCH   6   9
BRANCH   3  15
ATOM     15  C   LIG    1        1.120   3.657   0.011  0.00  0.00    +0.130 C 
BRANCH  15  16
ATOM     16  C   LIG    1        1.140   2.151   0.003  0.00  0.00    +0.520 C 
ATOM     17  N   LIG    1       -0.018   1.461   0.010  0.00  0.00    -0.750 N 
ATOM     18  H   LIG    1       -0.864   1.934   0.017  0.00  0.00    +0.400 HD
ATOM     19  O   LIG    1        2.199   1.558  -0.011  0.00  0.00    -0.510 OA
BRANCH  17  20
ATOM     20  C   LIG    1        0.002  -0.004   0.002  0.00  0.00    +0.260 C 
BRANCH  20  21
ATOM     21  C   LIG    1       -1.433  -0.534   0.013  0.00  0.00    +0.250 C 
BRANCH  21  22
ATOM     22  N   LIG    1       -1.413  -2.002   0.005  0.00  0.00    -0.350 N 
ATOM     23  C   LIG    1       -0.809  -2.491   1.252  0.00  0.00    +0.330 C 
ATOM     24  H   LIG    1       -0.871  -2.327  -0.781  0.00  0.00    +0.420 HD
BRANCH  22  25
ATOM     25  C   LIG    1       -2.787  -2.510  -0.105  0.00  0.00    +0.100 C 
ATOM     26  C   LIG    1       -3.074  -3.542  -1.198  0.00  0.00    +0.100 C 
ATOM     27  C   LIG    1       -3.591  -2.110  -1.344  0.00  0.00    +0.090 C 
ENDBRANCH  22  25
ENDBRANCH  21  22
ENDBRANCH  20  21
ENDBRANCH  17  20
ENDBRANCH  15  16
ENDBRANCH   3  15
TORSDOF 7
