REMARK  Name = ZINCpe00000gMVxG.1
REMARK                            x       y       z     vdW  Elec       q    Type
REMARK                         _______ _______ _______ _____ _____    ______ ____
ROOT
ATOM      1  C   LIG    1        7.362   5.232   4.951  0.00  0.00    +0.100 C 
ATOM      2  C   LIG    1        6.553   5.248   6.223  0.00  0.00    +0.190 A 
ATOM      3  C   LIG    1        5.191   5.250   6.163  0.00  0.00    -0.340 A 
ATOM      4  C   LIG    1        4.457   5.259   7.367  0.00  0.00    +0.500 A 
ATOM      5  N   LIG    1        5.132   5.271   8.537  0.00  0.00    -0.610 NA
ATOM      6  C   LIG    1        6.494   5.274   8.531  0.00  0.00    +0.380 A 
ATOM      7  O   LIG    1        3.237   5.257   7.352  0.00  0.00    -0.620 OA
ATOM      8  N   LIG    1        7.171   5.266   7.403  0.00  0.00    -0.610 NA
ENDROOT
BRANCH   6   9
ATOM      9  C   LIG    1        7.226   5.288   9.817  0.00  0.00    +0.200 A 
ATOM     10  C   LIG    1        8.620   5.285   9.819  0.00  0.00    +0.020 A 
ATOM     11  C   LIG    1        9.291   5.304  11.031  0.00  0.00    +0.040 A 
ATOM     12  C   LIG    1        8.545   5.313  12.200  0.00  0.00    -0.050 A 
ATOM     13  C   LIG    1        7.162   5.309  12.124  0.00  0.00    +0.240 A 
ATOM     14  N   LIG    1        6.549   5.297  10.960  0.00  0.00    -0.440 NA
ENDBRANCH   6   9
BRANCH   3  15
ATOM     15  C   LIG    1        4.482   5.237   4.833  0.00  0.00    +0.130 C 
BRANCH  15  16
ATOM     16  C   LIG    1        4.140   3.817   4.461  0.00  0.00    +0.520 C 
ATOM     17  N   LIG    1        3.498   3.560   3.304  0.00  0.00    -0.750 N 
ATOM     18  H   LIG    1        3.256   4.289   2.711  0.00  0.00    +0.400 HD
ATOM     19  O   LIG    1        4.441   2.906   5.202  0.00  0.00    -0.510 OA
BRANCH  17  20
ATOM     20  C   LIG    1        3.165   2.180   2.942  0.00  0.00    +0.260 C 
BRANCH  20  21
ATOM     21  C   LIG    1        2.445   2.167   1.592  0.00  0.00    +0.250 C 
BRANCH  21  22
ATOM     22  N   LIG    1        2.111   0.783   1.229  0.00  0.00    -0.350 N 
ATOM     23  C   LIG    1        3.349   0.020   1.017  0.00  0.00    +0.330 C 
ATOM     24  H   LIG    1        1.578   0.359   1.973  0.00  0.00    +0.420 HD
BRANCH  22  25
ATOM     25  C   LIG    1        1.317   0.779  -0.006  0.00  0.00    +0.100 C 
ATOM     26  C   LIG    1       -0.019   1.526   0.010  0.00  0.00    +0.090 C 
ATOM     27  C   LIG    1        0.002  -0.004   0.002  0.00  0.00    +0.100 C 
ENDBRANCH  22  25
ENDBRANCH  21  22
ENDBRANCH  20  21
ENDBRANCH  17  20
ENDBRANCH  15  16
ENDBRANCH   3  15
TORSDOF 7
