REMARK  Name = ZINCvU0000000GUI.0
REMARK                            x       y       z     vdW  Elec       q    Type
REMARK                         _______ _______ _______ _____ _____    ______ ____
ROOT
ATOM      1  C   LIG    1       -2.624   0.972   0.028  0.00  0.00    +0.220 C 
ATOM      2  C   LIG    1       -3.038   1.356   1.450  0.00  0.00    +0.010 C 
ENDROOT
BRANCH   1   3
ATOM      3  C   LIG    1       -1.249   1.515  -0.260  0.00  0.00    -0.070 A 
ATOM      4  C   LIG    1       -0.358   1.725   0.776  0.00  0.00    -0.010 A 
ATOM      5  C   LIG    1        0.903   2.229   0.517  0.00  0.00    +0.030 A 
ATOM      6  C   LIG    1        1.279   2.521  -0.779  0.00  0.00    +0.020 A 
ATOM      7  C   LIG    1        0.388   2.306  -1.824  0.00  0.00    +0.140 A 
ATOM      8  C   LIG    1       -0.877   1.799  -1.560  0.00  0.00    +0.030 A 
BRANCH   7   9
ATOM      9  N   LIG    1        0.766   2.600  -3.138  0.00  0.00    -0.670 N 
ATOM     10  H   LIG    1        0.454   2.042  -3.868  0.00  0.00    +0.410 HD
ATOM     11  C   LIG    1        1.562   3.657  -3.390  0.00  0.00    +0.560 C 
ATOM     12  O   LIG    1        2.024   4.304  -2.470  0.00  0.00    -0.520 OA
BRANCH  11  13
ATOM     13  C   LIG    1        1.875   4.032  -4.785  0.00  0.00    -0.140 A 
ATOM     14  C   LIG    1        1.351   3.288  -5.844  0.00  0.00    +0.040 A 
ATOM     15  C   LIG    1        1.642   3.646  -7.145  0.00  0.00    +0.000 A 
ATOM     16  C   LIG    1        2.460   4.732  -7.400  0.00  0.00    +0.040 A 
ATOM     17  C   LIG    1        2.987   5.470  -6.355  0.00  0.00    +0.000 A 
ATOM     18  C   LIG    1        2.699   5.126  -5.050  0.00  0.00    +0.080 A 
ENDBRANCH  11  13
ENDBRANCH   7   9
ENDBRANCH   1   3
BRANCH   1  19
ATOM     19  N   LIG    1       -3.584   1.535  -0.931  0.00  0.00    -0.510 NA
ATOM     20  C   LIG    1       -3.705   2.990  -0.762  0.00  0.00    +0.200 C 
BRANCH  19  21
ATOM     21  C   LIG    1       -4.894   0.881  -0.811  0.00  0.00    +0.220 C 
BRANCH  21  24
ATOM     22  N   LIG    1       -7.030   0.826  -2.057  0.00  0.00    -0.670 N 
ATOM     23  H   LIG    1       -7.393   0.267  -1.352  0.00  0.00    +0.410 HD
ATOM     24  C   LIG    1       -5.774   1.304  -1.959  0.00  0.00    +0.510 C 
ATOM     25  O   LIG    1       -5.351   2.075  -2.795  0.00  0.00    -0.490 OA
BRANCH  22  33
ATOM     26  C   LIG    1       -9.035  -1.030  -2.853  0.00  0.00    +0.100 C 
ATOM     27  C   LIG    1       -8.802   0.259  -3.598  0.00  0.00    -0.110 A 
ATOM     28  C   LIG    1       -9.575   0.570  -4.699  0.00  0.00    +0.070 A 
ATOM     29  C   LIG    1       -9.357   1.751  -5.387  0.00  0.00    -0.100 A 
ATOM     30  C   LIG    1       -8.370   2.625  -4.971  0.00  0.00    +0.060 A 
ATOM     31  C   LIG    1       -7.597   2.321  -3.867  0.00  0.00    +0.040 A 
ATOM     32 BR   LIG    1      -10.414   2.171  -6.898  0.00  0.00    -0.050 Br
ATOM     33  C   LIG    1       -7.812   1.137  -3.175  0.00  0.00    +0.160 A 
ENDBRANCH  22  33
ENDBRANCH  21  24
ENDBRANCH  19  21
ENDBRANCH   1  19
TORSDOF 7
