REMARK  Name = ZINCkj00000y7EJJ.1
REMARK                            x       y       z     vdW  Elec       q    Type
REMARK                         _______ _______ _______ _____ _____    ______ ____
ROOT
ATOM      1  C   LIG    1       -0.814   3.107   1.226  0.00  0.00    +0.110 C 
ATOM      2  C   LIG    1       -0.898   1.579   1.166  0.00  0.00    +0.060 C 
ATOM      3  C   LIG    1       -0.179   1.087  -0.094  0.00  0.00    +0.080 C 
ATOM      4  C   LIG    1       -0.803   1.752  -1.323  0.00  0.00    +0.260 C 
ATOM      5  N   LIG    1       -0.666   3.209  -1.218  0.00  0.00    -0.370 N 
ATOM      6  H   LIG    1        0.308   3.449  -1.115  0.00  0.00    +0.430 HD
ATOM      7  C   LIG    1       -1.414   3.696  -0.052  0.00  0.00    +0.300 C 
ENDROOT
BRANCH   1   9
ATOM      8  O   LIG    1       -2.454   2.918   2.913  0.00  0.00    -0.510 OA
ATOM      9  C   LIG    1       -1.585   3.606   2.421  0.00  0.00    +0.500 C 
ATOM     10  N   LIG    1       -1.308   4.818   2.943  0.00  0.00    -0.600 N 
ATOM     11  C   LIG    1       -0.355   5.791   2.390  0.00  0.00    +0.250 C 
ATOM     12  C   LIG    1       -0.353   7.015   3.331  0.00  0.00    +0.030 C 
ATOM     13  C   LIG    1       -0.874   6.423   4.668  0.00  0.00    +0.030 C 
ATOM     14  C   LIG    1       -1.906   5.383   4.166  0.00  0.00    +0.260 C 
ENDBRANCH   1   9
BRANCH   1  15
ATOM     15  O   LIG    1        0.553   3.505   1.340  0.00  0.00    -0.550 OA
ATOM     16  H   LIG    1        1.020   3.104   2.086  0.00  0.00    +0.410 HD
ENDBRANCH   1  15
BRANCH   5  17
ATOM     17  C   LIG    1       -1.196   3.839  -2.435  0.00  0.00    +0.290 C 
BRANCH  17  18
ATOM     18  C   LIG    1       -0.334   3.437  -3.633  0.00  0.00    +0.080 C 
BRANCH  18  19
ATOM     19  C   LIG    1       -0.885   4.092  -4.901  0.00  0.00    +0.470 C 
ATOM     20  F   LIG    1       -2.202   3.668  -5.111  0.00  0.00    -0.170 F 
ATOM     21  F   LIG    1       -0.097   3.724  -5.997  0.00  0.00    -0.170 F 
ATOM     22  F   LIG    1       -0.861   5.483  -4.755  0.00  0.00    -0.170 F 
ENDBRANCH  18  19
ENDBRANCH  17  18
ENDBRANCH   5  17
TORSDOF 5
