REMARK  Name = ZINCkj00000y7EJJ.0
REMARK                            x       y       z     vdW  Elec       q    Type
REMARK                         _______ _______ _______ _____ _____    ______ ____
ROOT
ATOM      1  C   LIG    1       -1.621   3.953   2.385  0.00  0.00    +0.110 C 
ATOM      2  C   LIG    1       -0.795   3.352   3.526  0.00  0.00    +0.050 C 
ATOM      3  C   LIG    1       -0.615   1.851   3.277  0.00  0.00    +0.090 C 
ATOM      4  C   LIG    1        0.045   1.643   1.912  0.00  0.00    +0.260 C 
ATOM      5  N   LIG    1       -0.805   2.216   0.861  0.00  0.00    -0.380 N 
ATOM      6  H   LIG    1       -1.722   1.796   0.905  0.00  0.00    +0.430 HD
ATOM      7  C   LIG    1       -0.923   3.666   1.054  0.00  0.00    +0.300 C 
ENDROOT
BRANCH   1   9
ATOM      8  O   LIG    1       -3.185   2.273   2.933  0.00  0.00    -0.520 OA
ATOM      9  C   LIG    1       -2.995   3.334   2.377  0.00  0.00    +0.480 C 
ATOM     10  N   LIG    1       -4.013   3.960   1.753  0.00  0.00    -0.600 N 
ATOM     11  C   LIG    1       -3.903   5.193   0.961  0.00  0.00    +0.260 C 
ATOM     12  C   LIG    1       -5.320   5.547   0.464  0.00  0.00    +0.030 C 
ATOM     13  C   LIG    1       -6.235   4.813   1.480  0.00  0.00    +0.030 C 
ATOM     14  C   LIG    1       -5.421   3.525   1.758  0.00  0.00    +0.270 C 
ENDBRANCH   1   9
BRANCH   1  15
ATOM     15  O   LIG    1       -1.734   5.365   2.571  0.00  0.00    -0.530 OA
ATOM     16  H   LIG    1       -2.092   5.621   3.432  0.00  0.00    +0.410 HD
ENDBRANCH   1  15
BRANCH   5  17
ATOM     17  C   LIG    1       -0.207   1.944  -0.453  0.00  0.00    +0.290 C 
BRANCH  17  18
ATOM     18  C   LIG    1       -0.201   0.436  -0.709  0.00  0.00    +0.080 C 
BRANCH  18  19
ATOM     19  C   LIG    1        0.422   0.153  -2.077  0.00  0.00    +0.470 C 
ATOM     20  F   LIG    1       -0.327   0.792  -3.071  0.00  0.00    -0.170 F 
ATOM     21  F   LIG    1        0.427  -1.226  -2.312  0.00  0.00    -0.160 F 
ATOM     22  F   LIG    1        1.735   0.635  -2.100  0.00  0.00    -0.170 F 
ENDBRANCH  18  19
ENDBRANCH  17  18
ENDBRANCH   5  17
TORSDOF 5
