REMARK  Name = ZINCkj000005ixWF.0
REMARK                            x       y       z     vdW  Elec       q    Type
REMARK                         _______ _______ _______ _____ _____    ______ ____
ROOT
ATOM      1  N   LIG    1        5.075   0.643  -2.690  0.00  0.00    -0.640 N 
ATOM      2  C   LIG    1        4.446   1.103  -1.590  0.00  0.00    +0.510 C 
ATOM      3  O   LIG    1        5.021   1.116  -0.523  0.00  0.00    -0.510 OA
ATOM      4  C   LIG    1        4.380   0.626  -3.979  0.00  0.00    +0.290 C 
ENDROOT
BRANCH   1   5
ATOM      5  C   LIG    1        6.455   0.160  -2.596  0.00  0.00    +0.340 C 
BRANCH   5   8
ATOM      6  C   LIG    1        7.703  -3.309  -2.652  0.00  0.00    +0.180 C 
ATOM      7  C   LIG    1        7.894  -1.855  -2.147  0.00  0.00    +0.100 C 
ATOM      8  C   LIG    1        6.454  -1.299  -2.134  0.00  0.00    +0.160 C 
ATOM      9  N   LIG    1        5.661  -2.120  -3.068  0.00  0.00    -0.390 N 
ATOM     10  C   LIG    1        4.572  -2.784  -2.340  0.00  0.00    +0.320 C 
ATOM     11  H   LIG    1        5.277  -1.534  -3.794  0.00  0.00    +0.420 HD
ATOM     12  C   LIG    1        6.549  -3.137  -3.671  0.00  0.00    +0.240 C 
BRANCH   6  14
ATOM     13  C   LIG    1        9.006  -5.211  -3.307  0.00  0.00    +0.230 C 
ATOM     14  O   LIG    1        8.886  -3.787  -3.295  0.00  0.00    -0.360 OA
ENDBRANCH   6  14
ENDBRANCH   5   8
ENDBRANCH   1   5
BRANCH   2  15
ATOM     15  C   LIG    1        3.026   1.600  -1.687  0.00  0.00    +0.070 C 
BRANCH  15  16
ATOM     16  C   LIG    1        2.553   2.062  -0.308  0.00  0.00    +0.130 C 
BRANCH  16  17
ATOM     17  C   LIG    1        1.133   2.559  -0.405  0.00  0.00    -0.190 A 
ATOM     18  C   LIG    1        0.741   3.819  -0.664  0.00  0.00    +0.170 A 
ATOM     19  O   LIG    1       -0.601   3.854  -0.665  0.00  0.00    -0.170 OA
ATOM     20  C   LIG    1       -1.082   2.626  -0.413  0.00  0.00    +0.170 A 
ATOM     21  C   LIG    1       -0.042   1.790  -0.239  0.00  0.00    -0.070 A 
ENDBRANCH  16  17
ENDBRANCH  15  16
ENDBRANCH   2  15
TORSDOF 6
