REMARK  Name = ZINCkj000005ixWF.1
REMARK                            x       y       z     vdW  Elec       q    Type
REMARK                         _______ _______ _______ _____ _____    ______ ____
ROOT
ATOM      1  N   LIG    1       -3.196   6.601  -2.798  0.00  0.00    -0.620 N 
ATOM      2  C   LIG    1       -2.692   5.925  -1.747  0.00  0.00    +0.520 C 
ATOM      3  O   LIG    1       -2.910   6.309  -0.618  0.00  0.00    -0.520 OA
ATOM      4  C   LIG    1       -2.934   6.137  -4.162  0.00  0.00    +0.300 C 
ENDROOT
BRANCH   1   5
ATOM      5  C   LIG    1       -4.008   7.801  -2.576  0.00  0.00    +0.310 C 
BRANCH   5   8
ATOM      6  C   LIG    1       -2.007  10.550  -1.150  0.00  0.00    +0.170 C 
ATOM      7  C   LIG    1       -2.085   9.051  -1.542  0.00  0.00    +0.100 C 
ATOM      8  C   LIG    1       -3.121   9.043  -2.685  0.00  0.00    +0.140 C 
ATOM      9  N   LIG    1       -3.942  10.259  -2.538  0.00  0.00    -0.380 N 
ATOM     10  C   LIG    1       -5.353   9.886  -2.368  0.00  0.00    +0.330 C 
ATOM     11  H   LIG    1       -3.842  10.838  -3.359  0.00  0.00    +0.430 HD
ATOM     12  C   LIG    1       -3.476  11.001  -1.347  0.00  0.00    +0.240 C 
BRANCH   6  14
ATOM     13  C   LIG    1       -0.876  11.905   0.471  0.00  0.00    +0.220 C 
ATOM     14  O   LIG    1       -1.604  10.703   0.212  0.00  0.00    -0.360 OA
ENDBRANCH   6  14
ENDBRANCH   5   8
ENDBRANCH   1   5
BRANCH   2  15
ATOM     15  C   LIG    1       -1.858   4.691  -1.976  0.00  0.00    +0.070 C 
BRANCH  15  16
ATOM     16  C   LIG    1       -1.413   4.119  -0.628  0.00  0.00    +0.130 C 
BRANCH  16  17
ATOM     17  C   LIG    1       -0.579   2.885  -0.856  0.00  0.00    -0.190 A 
ATOM     18  C   LIG    1        0.756   2.838  -1.013  0.00  0.00    +0.160 A 
ATOM     19  O   LIG    1        1.118   1.557  -1.192  0.00  0.00    -0.170 OA
ATOM     20  C   LIG    1        0.027   0.774  -1.153  0.00  0.00    +0.170 A 
ATOM     21  C   LIG    1       -1.050   1.556  -0.952  0.00  0.00    -0.060 A 
ENDBRANCH  16  17
ENDBRANCH  15  16
ENDBRANCH   2  15
TORSDOF 6
