REMARK  Name = ZINCtV000002GKl9.0
REMARK                            x       y       z     vdW  Elec       q    Type
REMARK                         _______ _______ _______ _____ _____    ______ ____
ROOT
ATOM      1  C   LIG    1        3.711  -0.707  -0.037  0.00  0.00    +0.240 C 
ENDROOT
BRANCH   1   5
ATOM      2  C   LIG    1        1.155   3.595   0.010  0.00  0.00    +0.100 C 
ATOM      3  C   LIG    1        1.174   2.088   0.002  0.00  0.00    -0.120 A 
ATOM      4  C   LIG    1        2.379   1.412  -0.013  0.00  0.00    +0.050 A 
ATOM      5  C   LIG    1        2.396   0.029  -0.020  0.00  0.00    -0.100 A 
ATOM      6  C   LIG    1        1.209  -0.678  -0.013  0.00  0.00    +0.070 A 
ATOM      7  C   LIG    1        0.002  -0.004   0.002  0.00  0.00    -0.010 A 
ATOM      8  C   LIG    1       -0.017   1.380   0.010  0.00  0.00    +0.100 A 
ATOM      9  F   LIG    1       -1.195   2.040   0.019  0.00  0.00    -0.140 F 
ENDBRANCH   1   5
BRANCH   1  10
ATOM     10  C   LIG    1        4.016  -1.160  -1.442  0.00  0.00    -0.070 A 
ATOM     11  C   LIG    1        3.673  -2.436  -1.846  0.00  0.00    +0.060 A 
ATOM     12  C   LIG    1        3.952  -2.852  -3.135  0.00  0.00    +0.010 A 
ATOM     13  C   LIG    1        4.575  -1.991  -4.019  0.00  0.00    +0.020 A 
ATOM     14  C   LIG    1        4.919  -0.714  -3.615  0.00  0.00    +0.020 A 
ATOM     15  C   LIG    1        4.634  -0.296  -2.328  0.00  0.00    -0.030 A 
ATOM     16 CL   LIG    1        5.058   1.310  -1.823  0.00  0.00    -0.070 Cl
ENDBRANCH   1  10
BRANCH   1  17
ATOM     17  N   LIG    1        3.628  -1.877   0.848  0.00  0.00    -0.680 NA
ATOM     18  H   LIG    1        3.001  -1.704   1.619  0.00  0.00    +0.360 HD
BRANCH  17  19
ATOM     19  C   LIG    1        4.960  -2.268   1.330  0.00  0.00    +0.280 C 
BRANCH  19  20
ATOM     20  C   LIG    1        4.835  -3.469   2.232  0.00  0.00    +0.070 A 
ATOM     21  C   LIG    1        4.996  -4.718   1.779  0.00  0.00    -0.040 A 
ATOM     22  S   LIG    1        4.773  -5.827   3.131  0.00  0.00    +0.110 S 
ATOM     23  C   LIG    1        4.476  -4.457   4.199  0.00  0.00    +0.110 A 
ATOM     24  N   LIG    1        4.566  -3.354   3.511  0.00  0.00    -0.420 NA
BRANCH  23  25
ATOM     25  C   LIG    1        4.180  -4.544   5.644  0.00  0.00    +0.190 A 
ATOM     26  C   LIG    1        4.112  -5.793   6.263  0.00  0.00    -0.010 A 
ATOM     27  C   LIG    1        3.838  -5.857   7.617  0.00  0.00    +0.070 A 
ATOM     28  C   LIG    1        3.630  -4.672   8.309  0.00  0.00    -0.020 A 
ATOM     29  C   LIG    1        3.707  -3.469   7.632  0.00  0.00    +0.270 A 
ATOM     30  N   LIG    1        3.975  -3.433   6.343  0.00  0.00    -0.450 NA
ENDBRANCH  23  25
ENDBRANCH  19  20
ENDBRANCH  17  19
ENDBRANCH   1  17
TORSDOF 6
