REMARK  Name = ZINCpe000000UFBr.0
REMARK                            x       y       z     vdW  Elec       q    Type
REMARK                         _______ _______ _______ _____ _____    ______ ____
ROOT
ATOM      1  C   LIG    1        0.104   0.014   2.481  0.00  0.00    +0.190 C 
ATOM      2  C   LIG    1       -1.258   0.678   2.698  0.00  0.00    +0.260 C 
ATOM      3  O   LIG    1       -1.314   1.180   4.039  0.00  0.00    -0.360 OA
ATOM      4  C   LIG    1       -1.347   0.143   5.022  0.00  0.00    +0.290 C 
ATOM      5  C   LIG    1       -0.252  -0.852   4.751  0.00  0.00    +0.490 C 
ATOM      6  O   LIG    1        0.061  -1.629   5.627  0.00  0.00    -0.530 OA
ATOM      7  N   LIG    1        0.386  -0.909   3.577  0.00  0.00    -0.580 N 
ENDROOT
BRANCH   1   9
ATOM      8  N   LIG    1        0.469  -0.135   0.039  0.00  0.00    -0.610 N 
ATOM      9  C   LIG    1        0.088  -0.745   1.179  0.00  0.00    +0.510 C 
ATOM     10  O   LIG    1       -0.267  -1.904   1.157  0.00  0.00    -0.490 OA
ATOM     11  C   LIG    1        1.001   1.230   0.080  0.00  0.00    +0.290 C 
BRANCH   8  12
ATOM     12  C   LIG    1        0.351  -0.836  -1.242  0.00  0.00    +0.420 C 
BRANCH  12  18
ATOM     13  C   LIG    1        2.832   0.224  -2.766  0.00  0.00    +0.330 C 
ATOM     14  N   LIG    1        2.696  -1.115  -2.186  0.00  0.00    -0.460 N 
ATOM     15  C   LIG    1        3.634  -2.111  -2.215  0.00  0.00    +0.130 A 
ATOM     16  C   LIG    1        3.100  -3.168  -1.573  0.00  0.00    +0.140 A 
ATOM     17  N   LIG    1        1.871  -2.824  -1.158  0.00  0.00    -0.460 NA
ATOM     18  C   LIG    1        1.624  -1.594  -1.518  0.00  0.00    +0.180 A 
ENDBRANCH  12  18
ENDBRANCH   8  12
ENDBRANCH   1   9
BRANCH   7  19
ATOM     19  C   LIG    1        1.411  -1.938   3.385  0.00  0.00    +0.340 C 
BRANCH  19  20
ATOM     20  C   LIG    1        2.764  -1.369   3.723  0.00  0.00    -0.110 A 
ATOM     21  C   LIG    1        3.525  -0.764   2.739  0.00  0.00    +0.010 A 
ATOM     22  C   LIG    1        4.765  -0.239   3.050  0.00  0.00    +0.000 A 
ATOM     23  C   LIG    1        5.248  -0.325   4.342  0.00  0.00    +0.010 A 
ATOM     24  C   LIG    1        4.490  -0.935   5.324  0.00  0.00    +0.000 A 
ATOM     25  C   LIG    1        3.248  -1.457   5.014  0.00  0.00    +0.040 A 
ENDBRANCH  19  20
ENDBRANCH   7  19
TORSDOF 5
