REMARK  Name = ZINCpk00000eayzt.0
REMARK                            x       y       z     vdW  Elec       q    Type
REMARK                         _______ _______ _______ _____ _____    ______ ____
ROOT
ATOM      1  N   LIG    1        5.540   2.891  -0.957  0.00  0.00    -0.480 NA
ATOM      2  C   LIG    1        6.949   2.889  -0.488  0.00  0.00    +0.180 C 
ATOM      3  C   LIG    1        6.847   2.866   1.052  0.00  0.00    +0.160 C 
ATOM      4  C   LIG    1        5.463   2.254   1.353  0.00  0.00    +0.070 C 
ATOM      5  C   LIG    1        4.846   1.959  -0.031  0.00  0.00    +0.230 C 
ENDROOT
BRANCH   5   6
ATOM      6  C   LIG    1        3.365   2.237  -0.017  0.00  0.00    +0.170 A 
ATOM      7  N   LIG    1        2.801   3.420  -0.005  0.00  0.00    -0.210 NA
ATOM      8  N   LIG    1        1.518   3.301   0.006  0.00  0.00    -0.250 NA
ATOM      9  C   LIG    1        1.199   2.019   0.002  0.00  0.00    +0.120 A 
ATOM     10  C   LIG    1       -0.016   1.307   0.009  0.00  0.00    +0.410 A 
ATOM     11  N   LIG    1        0.002  -0.004   0.002  0.00  0.00    -0.450 NA
ATOM     12  C   LIG    1        1.151  -0.685  -0.013  0.00  0.00    +0.240 A 
ATOM     13  C   LIG    1        2.343  -0.050  -0.020  0.00  0.00    +0.190 A 
ATOM     14  N   LIG    1        2.382   1.315  -0.013  0.00  0.00    -0.370 N 
ENDBRANCH   5   6
BRANCH   3  15
ATOM     15  O   LIG    1        7.881   2.051   1.606  0.00  0.00    -0.380 OA
ATOM     16  C   LIG    1        9.051   2.777   1.990  0.00  0.00    +0.200 C 
ENDBRANCH   3  15
BRANCH   1  17
ATOM     17  C   LIG    1        5.446   2.420  -2.346  0.00  0.00    +0.240 C 
BRANCH  17  23
ATOM     18  C   LIG    1        7.301   3.690  -3.473  0.00  0.00    +0.330 A 
ATOM     19  N   LIG    1        7.737   4.634  -4.290  0.00  0.00    -0.540 NA
ATOM     20  C   LIG    1        6.905   5.424  -4.942  0.00  0.00    +0.300 A 
ATOM     21  C   LIG    1        5.539   5.291  -4.793  0.00  0.00    -0.070 A 
ATOM     22  C   LIG    1        5.041   4.307  -3.950  0.00  0.00    +0.120 A 
ATOM     23  C   LIG    1        5.939   3.498  -3.276  0.00  0.00    -0.150 A 
BRANCH  18  25
ATOM     24  C   LIG    1        9.577   3.147  -3.068  0.00  0.00    +0.260 C 
ATOM     25  O   LIG    1        8.191   2.900  -2.823  0.00  0.00    -0.310 OA
ENDBRANCH  18  25
ENDBRANCH  17  23
ENDBRANCH   1  17
TORSDOF 5
