REMARK  Name = ZINCvU00000009sk.0
REMARK                            x       y       z     vdW  Elec       q    Type
REMARK                         _______ _______ _______ _____ _____    ______ ____
ROOT
ATOM      1  N   LIG    1       -0.288   1.272  -2.443  0.00  0.00    -0.620 N 
ATOM      2  H   LIG    1        0.507   0.726  -2.543  0.00  0.00    +0.420 HD
ATOM      3  C   LIG    1       -0.742   1.585  -1.213  0.00  0.00    +0.530 C 
ATOM      4  O   LIG    1       -1.736   2.268  -1.088  0.00  0.00    -0.480 OA
ENDROOT
BRANCH   1   6
ATOM      5  C   LIG    1       -0.584   1.472  -4.853  0.00  0.00    -0.170 A 
ATOM      6  C   LIG    1       -0.959   1.732  -3.566  0.00  0.00    +0.040 A 
ATOM      7  S   LIG    1       -2.365   2.688  -3.528  0.00  0.00    +0.340 S 
ATOM      8  C   LIG    1       -2.464   2.761  -5.287  0.00  0.00    -0.260 A 
ATOM      9  C   LIG    1       -3.357   3.373  -6.360  0.00  0.00    +0.120 C 
ATOM     10  C   LIG    1       -3.017   2.596  -7.648  0.00  0.00    +0.040 C 
ATOM     11  C   LIG    1       -1.569   2.146  -7.366  0.00  0.00    +0.100 C 
ATOM     12  C   LIG    1       -1.469   2.078  -5.845  0.00  0.00    -0.070 A 
BRANCH   5  13
ATOM     13  C   LIG    1        0.588   0.668  -5.204  0.00  0.00    +0.530 C 
ATOM     14  O   LIG    1        0.479  -0.535  -5.349  0.00  0.00    -0.490 OA
BRANCH  13  15
ATOM     15  O   LIG    1        1.789   1.260  -5.366  0.00  0.00    -0.350 OA
BRANCH  15  17
ATOM     16  C   LIG    1        4.174   1.246  -5.855  0.00  0.00    +0.070 C 
ATOM     17  C   LIG    1        2.906   0.401  -5.714  0.00  0.00    +0.200 C 
ENDBRANCH  15  17
ENDBRANCH  13  15
ENDBRANCH   5  13
ENDBRANCH   1   6
BRANCH   3  18
ATOM     18  C   LIG    1       -0.013   1.086   0.008  0.00  0.00    +0.100 C 
BRANCH  18  19
ATOM     19  S   LIG    1       -0.860   1.669   1.497  0.00  0.00    +0.080 S 
BRANCH  19  20
ATOM     20  C   LIG    1        0.174   0.961   2.735  0.00  0.00    +0.190 A 
ATOM     21  C   LIG    1       -0.109   1.157   4.113  0.00  0.00    -0.150 A 
ATOM     22  C   LIG    1        0.748   0.569   5.040  0.00  0.00    +0.100 A 
ATOM     23  S   LIG    1        0.204   0.944   6.666  0.00  0.00    +0.180 S 
ATOM     24  C   LIG    1       -1.159   1.880   6.076  0.00  0.00    -0.160 A 
ATOM     25  C   LIG    1       -2.171   2.575   6.970  0.00  0.00    +0.120 C 
ATOM     26  C   LIG    1       -2.937   3.607   6.139  0.00  0.00    +0.030 C 
ATOM     27  C   LIG    1       -3.447   2.936   4.860  0.00  0.00    +0.030 C 
ATOM     28  C   LIG    1       -2.260   2.639   3.943  0.00  0.00    +0.110 C 
ATOM     29  N   LIG    1        1.792  -0.148   4.600  0.00  0.00    -0.490 NA
ATOM     30  C   LIG    1        2.013  -0.302   3.315  0.00  0.00    +0.540 A 
ATOM     31  C   LIG    1       -1.192   1.903   4.742  0.00  0.00    -0.070 A 
ATOM     32  N   LIG    1        1.227   0.230   2.397  0.00  0.00    -0.530 NA
ENDBRANCH  19  20
ENDBRANCH  18  19
ENDBRANCH   3  18
TORSDOF 7
