REMARK  Name = ZINCrD00000hQ4CX.0
REMARK                            x       y       z     vdW  Elec       q    Type
REMARK                         _______ _______ _______ _____ _____    ______ ____
ROOT
ATOM      1  C   LIG    1        1.212  -0.682  -0.008  0.00  0.00    +0.100 A 
ATOM      2  C   LIG    1        0.013  -0.008   0.187  0.00  0.00    +0.060 A 
ATOM      3  C   LIG    1       -0.008   1.373   0.200  0.00  0.00    +0.010 A 
ATOM      4  C   LIG    1        1.168   2.087   0.018  0.00  0.00    +0.130 A 
ATOM      5  C   LIG    1        2.365   1.414  -0.176  0.00  0.00    -0.060 A 
ATOM      6  C   LIG    1        2.388   0.034  -0.190  0.00  0.00    +0.030 A 
ENDROOT
BRANCH   1   9
ATOM      7  O   LIG    1       -0.746  -2.174  -1.022  0.00  0.00    -0.500 OA
ATOM      8  C   LIG    1        0.181  -2.768  -0.507  0.00  0.00    +0.560 C 
ATOM      9  N   LIG    1        1.234  -2.082  -0.020  0.00  0.00    -0.660 N 
ATOM     10  H   LIG    1        2.007  -2.558   0.321  0.00  0.00    +0.410 HD
BRANCH   8  11
ATOM     11  C   LIG    1        0.153  -4.243  -0.414  0.00  0.00    -0.130 A 
ATOM     12  C   LIG    1        1.216  -4.928   0.177  0.00  0.00    +0.110 A 
ATOM     13  C   LIG    1        1.184  -6.305   0.261  0.00  0.00    +0.040 A 
ATOM     14  C   LIG    1        0.101  -7.006  -0.239  0.00  0.00    +0.130 A 
ATOM     15  C   LIG    1       -0.956  -6.333  -0.826  0.00  0.00    -0.050 A 
ATOM     16  C   LIG    1       -0.938  -4.957  -0.912  0.00  0.00    +0.170 A 
BRANCH  15  17
ATOM     17  N   LIG    1       -2.110  -7.092  -1.359  0.00  0.00    +0.020 N 
ATOM     18  O   LIG    1       -3.041  -6.501  -1.876  0.00  0.00    -0.150 OA
ATOM     19  O   LIG    1       -2.128  -8.307  -1.279  0.00  0.00    -0.150 OA
ENDBRANCH  15  17
ENDBRANCH   8  11
ENDBRANCH   1   9
BRANCH   4  20
ATOM     20  O   LIG    1        1.146   3.446   0.031  0.00  0.00    -0.310 OA
BRANCH  20  21
ATOM     21  C   LIG    1        2.393   4.117  -0.163  0.00  0.00    +0.240 C 
BRANCH  21  22
ATOM     22  C   LIG    1        2.171   5.630  -0.117  0.00  0.00    +0.070 C 
ATOM     23  C   LIG    1        0.733   6.132   0.028  0.00  0.00    +0.180 C 
ATOM     24  N   LIG    1        1.687   6.210   1.142  0.00  0.00    -0.440 NA
BRANCH  24  25
ATOM     25  C   LIG    1        2.183   7.582   1.315  0.00  0.00    +0.190 C 
BRANCH  25  26
ATOM     26  C   LIG    1        1.872   8.062   2.734  0.00  0.00    -0.030 C 
ATOM     27  C   LIG    1        0.916   9.247   2.885  0.00  0.00    +0.010 C 
ATOM     28  C   LIG    1        2.412   9.431   3.151  0.00  0.00    +0.010 C 
ENDBRANCH  25  26
ENDBRANCH  24  25
ENDBRANCH  21  22
ENDBRANCH  20  21
ENDBRANCH   4  20
TORSDOF 8
