REMARK  Name = ZINCpe00000bGtAV.0
REMARK                            x       y       z     vdW  Elec       q    Type
REMARK                         _______ _______ _______ _____ _____    ______ ____
ROOT
ATOM      1  C   LIG    1       -5.783   3.894   7.712  0.00  0.00    -0.150 A 
ATOM      2  C   LIG    1       -5.418   2.568   7.963  0.00  0.00    +0.090 A 
ATOM      3  C   LIG    1       -4.520   1.935   7.134  0.00  0.00    -0.010 A 
ATOM      4  C   LIG    1       -3.975   2.612   6.047  0.00  0.00    +0.180 A 
ATOM      5  C   LIG    1       -4.331   3.933   5.797  0.00  0.00    +0.020 A 
ATOM      6  C   LIG    1       -5.234   4.572   6.619  0.00  0.00    +0.040 A 
ATOM      7 CL   LIG    1       -5.684   6.219   6.303  0.00  0.00    -0.020 Cl
ENDROOT
BRANCH   1  10
ATOM      8  N   LIG    1       -7.274   3.920   9.651  0.00  0.00    -0.720 N 
ATOM      9  H   LIG    1       -7.021   3.000   9.826  0.00  0.00    +0.400 HD
ATOM     10  C   LIG    1       -6.746   4.575   8.598  0.00  0.00    +0.550 C 
ATOM     11  O   LIG    1       -7.062   5.729   8.379  0.00  0.00    -0.510 OA
BRANCH   8  12
ATOM     12  C   LIG    1       -8.230   4.597  10.531  0.00  0.00    +0.290 C 
BRANCH  12  13
ATOM     13  C   LIG    1       -8.672   3.638  11.638  0.00  0.00    +0.180 C 
BRANCH  13  15
ATOM     14  C   LIG    1       -7.859   2.425  13.539  0.00  0.00    +0.200 C 
ATOM     15  O   LIG    1       -7.553   3.320  12.468  0.00  0.00    -0.390 OA
ENDBRANCH  13  15
ENDBRANCH  12  13
ENDBRANCH   8  12
ENDBRANCH   1  10
BRANCH   4  16
ATOM     16  N   LIG    1       -3.066   1.967   5.210  0.00  0.00    -0.670 N 
ATOM     17  H   LIG    1       -2.454   1.308   5.575  0.00  0.00    +0.420 HD
ATOM     18  C   LIG    1       -3.037   2.258   3.894  0.00  0.00    +0.530 C 
ATOM     19  O   LIG    1       -3.863   3.009   3.421  0.00  0.00    -0.500 OA
BRANCH  18  20
ATOM     20  C   LIG    1       -1.977   1.650   3.011  0.00  0.00    -0.010 C 
ATOM     21  C   LIG    1       -2.068   2.071   1.538  0.00  0.00    +0.360 C 
ATOM     22  N   LIG    1       -1.738   0.685   1.175  0.00  0.00    -1.050 NA
ATOM     23  C   LIG    1       -2.340   0.266   2.450  0.00  0.00    +0.340 C 
BRANCH  22  24
ATOM     24  S   LIG    1       -1.014  -0.072  -0.107  0.00  0.00    +2.780 S 
ATOM     25  F   LIG    1       -2.188  -0.588  -1.081  0.00  0.00    -0.480 F 
ATOM     26  O   LIG    1       -0.313   0.935  -0.823  0.00  0.00    -0.940 OA
ATOM     27  O   LIG    1       -0.386  -1.234   0.415  0.00  0.00    -0.940 OA
ENDBRANCH  22  24
ENDBRANCH  18  20
ENDBRANCH   4  16
TORSDOF 7
