REMARK  Name = ZINCqH0000004Elo.0
REMARK                            x       y       z     vdW  Elec       q    Type
REMARK                         _______ _______ _______ _____ _____    ______ ____
ROOT
ATOM      1  C   LIG    1       -1.194  -2.006  -0.071  0.00  0.00    +0.180 C 
ATOM      2  C   LIG    1       -0.348  -2.734   0.975  0.00  0.00    +0.030 C 
ENDROOT
BRANCH   1   3
ATOM      3  N   LIG    1       -2.566  -2.531  -0.043  0.00  0.00    -0.520 NA
ATOM      4  C   LIG    1       -3.306  -2.010   1.115  0.00  0.00    +0.190 C 
ATOM      5  C   LIG    1       -4.749  -2.517   1.064  0.00  0.00    +0.200 C 
ATOM      6  N   LIG    1       -4.750  -3.986   1.060  0.00  0.00    -0.490 N 
ATOM      7  C   LIG    1       -4.010  -4.507  -0.097  0.00  0.00    +0.210 C 
ATOM      8  C   LIG    1       -2.567  -4.001  -0.047  0.00  0.00    +0.200 C 
BRANCH   6   9
ATOM      9  C   LIG    1       -6.054  -4.486   1.087  0.00  0.00    +0.120 A 
ATOM     10  C   LIG    1       -6.487  -5.356   0.095  0.00  0.00    -0.050 A 
ATOM     11  C   LIG    1       -7.777  -5.849   0.125  0.00  0.00    +0.030 A 
ATOM     12  C   LIG    1       -8.638  -5.476   1.141  0.00  0.00    -0.030 A 
ATOM     13  C   LIG    1       -8.210  -4.609   2.130  0.00  0.00    -0.060 A 
ATOM     14  C   LIG    1       -9.152  -4.205   3.235  0.00  0.00    +0.090 C 
ATOM     15  C   LIG    1       -6.920  -4.117   2.110  0.00  0.00    -0.020 A 
ENDBRANCH   6   9
ENDBRANCH   1   3
BRANCH   1  18
ATOM     16  N   LIG    1        0.528  -1.580  -1.794  0.00  0.00    -0.680 N 
ATOM     17  H   LIG    1        1.001  -1.035  -1.146  0.00  0.00    +0.410 HD
ATOM     18  C   LIG    1       -0.600  -2.225  -1.439  0.00  0.00    +0.520 C 
ATOM     19  O   LIG    1       -1.138  -2.982  -2.219  0.00  0.00    -0.500 OA
BRANCH  16  23
ATOM     20  C   LIG    1        1.988  -1.926  -5.681  0.00  0.00    -0.100 A 
ATOM     21  C   LIG    1        0.625  -1.947  -5.452  0.00  0.00    +0.020 A 
ATOM     22  C   LIG    1        0.138  -1.833  -4.165  0.00  0.00    +0.010 A 
ATOM     23  C   LIG    1        1.019  -1.696  -3.100  0.00  0.00    +0.140 A 
ATOM     24  C   LIG    1        2.387  -1.670  -3.334  0.00  0.00    -0.020 A 
ATOM     25  C   LIG    1        2.868  -1.790  -4.623  0.00  0.00    +0.030 A 
BRANCH  20  27
ATOM     26  C   LIG    1        2.648  -0.658  -7.707  0.00  0.00    +0.030 C 
ATOM     27  C   LIG    1        2.516  -2.051  -7.087  0.00  0.00    +0.050 C 
ENDBRANCH  20  27
ENDBRANCH  16  23
ENDBRANCH   1  18
TORSDOF 5
