REMARK  Name = ZINCtV00000s2kOD.0
REMARK                            x       y       z     vdW  Elec       q    Type
REMARK                         _______ _______ _______ _____ _____    ______ ____
ROOT
ATOM      1  C   LIG    1        1.377  -0.729  -0.005  0.00  0.00    +0.290 C 
ENDROOT
BRANCH   1   2
ATOM      2  C   LIG    1        1.166  -2.099   0.588  0.00  0.00    -0.090 A 
ATOM      3  C   LIG    1       -0.012  -2.782   0.346  0.00  0.00    +0.040 A 
ATOM      4  C   LIG    1       -0.205  -4.039   0.884  0.00  0.00    +0.010 A 
ATOM      5  C   LIG    1        0.780  -4.613   1.676  0.00  0.00    +0.090 A 
ATOM      6  C   LIG    1        1.959  -3.923   1.921  0.00  0.00    +0.000 A 
ATOM      7  C   LIG    1        2.149  -2.668   1.376  0.00  0.00    +0.040 A 
BRANCH   5   8
ATOM      8  O   LIG    1        0.590  -5.848   2.210  0.00  0.00    -0.260 OA
BRANCH   8   9
ATOM      9  C   LIG    1        0.460  -5.947   3.559  0.00  0.00    +0.120 A 
ATOM     10  C   LIG    1        0.401  -4.800   4.337  0.00  0.00    -0.060 A 
ATOM     11  C   LIG    1        0.265  -4.903   5.708  0.00  0.00    +0.050 A 
ATOM     12  C   LIG    1        0.198  -6.148   6.305  0.00  0.00    -0.020 A 
ATOM     13  C   LIG    1        0.261  -7.293   5.532  0.00  0.00    +0.050 A 
ATOM     14  C   LIG    1        0.393  -7.195   4.161  0.00  0.00    -0.020 A 
ENDBRANCH   8   9
ENDBRANCH   5   8
ENDBRANCH   1   2
BRANCH   1  15
ATOM     15  N   LIG    1        0.127   0.031   0.067  0.00  0.00    -0.740 N 
ATOM     16  H   LIG    1       -0.723  -0.435   0.102  0.00  0.00    +0.390 HD
BRANCH  15  20
ATOM     17  N   LIG    1       -0.457   3.541   0.145  0.00  0.00    -0.370 N 
ATOM     18  N   LIG    1        0.941   3.494   0.075  0.00  0.00    -0.270 NA
ATOM     19  C   LIG    1        1.310   2.239   0.039  0.00  0.00    +0.190 A 
ATOM     20  C   LIG    1        0.159   1.439   0.085  0.00  0.00    +0.070 A 
ATOM     21  C   LIG    1       -0.918   2.262   0.144  0.00  0.00    +0.010 A 
BRANCH  21  22
ATOM     22  C   LIG    1       -2.362   1.836   0.201  0.00  0.00    +0.100 C 
ATOM     23  C   LIG    1       -2.914   1.712  -1.221  0.00  0.00    +0.030 C 
ENDBRANCH  21  22
BRANCH  17  24
ATOM     24  C   LIG    1       -1.277   4.754   0.202  0.00  0.00    +0.320 C 
BRANCH  24  25
ATOM     25  C   LIG    1       -1.635   5.195  -1.218  0.00  0.00    +0.000 C 
BRANCH  25  27
ATOM     26  C   LIG    1       -2.849   6.904  -2.579  0.00  0.00    +0.010 C 
ATOM     27  C   LIG    1       -2.491   6.462  -1.159  0.00  0.00    +0.010 C 
ENDBRANCH  25  27
ENDBRANCH  24  25
ENDBRANCH  17  24
ENDBRANCH  15  20
ENDBRANCH   1  15
BRANCH   1  28
ATOM     28  C   LIG    1        1.807  -0.867  -1.467  0.00  0.00    +0.010 C 
BRANCH  28  29
ATOM     29  C   LIG    1        2.141   0.515  -2.032  0.00  0.00    +0.000 C 
ATOM     30  C   LIG    1        2.571   0.378  -3.494  0.00  0.00    +0.000 C 
ENDBRANCH  28  29
ENDBRANCH   1  28
TORSDOF 11
