REMARK  Name = ZINCnE000001DTN7.0
REMARK                            x       y       z     vdW  Elec       q    Type
REMARK                         _______ _______ _______ _____ _____    ______ ____
ROOT
ATOM      1  C   LIG    1        0.177   1.210   2.453  0.00  0.00    +0.240 C 
ATOM      2  N   LIG    1        0.027  -0.195   2.886  0.00  0.00    -0.640 N 
ATOM      3  C   LIG    1        0.042   0.210   4.307  0.00  0.00    +0.260 C 
ATOM      4  C   LIG    1       -0.079  -1.374   2.242  0.00  0.00    +0.690 C 
ATOM      5  O   LIG    1       -0.165  -1.399   1.027  0.00  0.00    -0.630 OA
ATOM      6  C   LIG    1       -0.436   1.576   3.807  0.00  0.00    -0.100 C 
ATOM      7  C   LIG    1       -1.957   1.777   3.804  0.00  0.00    +0.040 C 
ATOM      8  C   LIG    1       -2.208   2.752   4.984  0.00  0.00    +0.000 C 
ATOM      9  C   LIG    1       -0.989   3.705   4.909  0.00  0.00    +0.000 C 
ATOM     10  C   LIG    1        0.187   2.787   4.506  0.00  0.00    +0.020 C 
ENDROOT
BRANCH   4  11
ATOM     11  N   LIG    1       -0.092  -2.518   2.938  0.00  0.00    -0.710 NA
ATOM     12  C   LIG    1       -0.197  -3.680   2.304  0.00  0.00    +0.490 A 
ATOM     13  N   LIG    1       -0.297  -3.850   0.976  0.00  0.00    -0.560 NA
ATOM     14  C   LIG    1       -0.384  -5.123   0.691  0.00  0.00    +0.390 A 
ATOM     15  N   LIG    1       -0.343  -5.842   1.834  0.00  0.00    -0.400 N 
ATOM     16  N   LIG    1       -0.216  -4.922   2.888  0.00  0.00    -0.420 NA
BRANCH  15  17
ATOM     17  C   LIG    1       -0.411  -7.301   1.952  0.00  0.00    +0.190 C 
ATOM     18  C   LIG    1       -1.732  -7.798   1.361  0.00  0.00    +0.040 C 
ATOM     19  C   LIG    1       -0.331  -7.698   3.427  0.00  0.00    +0.050 C 
ATOM     20  C   LIG    1        0.757  -7.929   1.190  0.00  0.00    +0.040 C 
ENDBRANCH  15  17
ENDBRANCH   4  11
BRANCH   1  22
ATOM     21  C   LIG    1       -0.931   3.097   1.247  0.00  0.00    +0.010 C 
ATOM     22  C   LIG    1       -0.700   1.584   1.256  0.00  0.00    -0.020 C 
ATOM     23  C   LIG    1       -0.000   1.167  -0.039  0.00  0.00    -0.000 C 
ENDBRANCH   1  22
TORSDOF 3
