REMARK  Name = ZINCpe00000bfoj1.0
REMARK                            x       y       z     vdW  Elec       q    Type
REMARK                         _______ _______ _______ _____ _____    ______ ____
ROOT
ATOM      1  C   LIG    1       -1.071   1.802  -1.327  0.00  0.00    +0.520 C 
ATOM      2  N   LIG    1       -0.827   1.161  -2.486  0.00  0.00    -0.610 N 
ATOM      3  C   LIG    1        0.128   0.044  -2.545  0.00  0.00    +0.280 C 
ATOM      4  C   LIG    1       -0.562  -1.146  -3.231  0.00  0.00    +0.170 C 
ATOM      5  N   LIG    1       -1.092  -0.714  -4.531  0.00  0.00    -0.530 NA
ATOM      6  C   LIG    1       -2.126   0.317  -4.369  0.00  0.00    +0.180 C 
ATOM      7  C   LIG    1       -1.504   1.562  -3.729  0.00  0.00    +0.280 C 
ATOM      8  O   LIG    1       -1.859   2.724  -1.298  0.00  0.00    -0.530 OA
ENDROOT
BRANCH   1  15
ATOM      9  C   LIG    1       -2.957   2.198   2.692  0.00  0.00    +0.100 C 
ATOM     10  C   LIG    1       -2.349   1.592   1.454  0.00  0.00    +0.530 C 
ATOM     11  N   LIG    1       -1.080   1.891   1.111  0.00  0.00    -0.600 N 
ATOM     12  C   LIG    1       -0.179   2.791   1.853  0.00  0.00    +0.250 C 
ATOM     13  C   LIG    1        1.248   2.334   1.461  0.00  0.00    +0.040 C 
ATOM     14  C   LIG    1        1.058   1.966  -0.034  0.00  0.00    +0.050 C 
ATOM     15  C   LIG    1       -0.366   1.373  -0.066  0.00  0.00    +0.220 C 
ATOM     16  O   LIG    1       -3.001   0.836   0.765  0.00  0.00    -0.540 OA
ENDBRANCH   1  15
BRANCH   5  17
ATOM     17  C   LIG    1       -1.605  -1.858  -5.296  0.00  0.00    +0.200 C 
BRANCH  17  18
ATOM     18  C   LIG    1       -2.518  -2.702  -4.403  0.00  0.00    +0.220 C 
BRANCH  18  19
ATOM     19  C   LIG    1       -2.924  -3.952  -5.139  0.00  0.00    -0.120 A 
ATOM     20  C   LIG    1       -3.945  -3.906  -6.069  0.00  0.00    +0.010 A 
ATOM     21  C   LIG    1       -4.315  -5.052  -6.748  0.00  0.00    +0.000 A 
ATOM     22  C   LIG    1       -3.671  -6.247  -6.488  0.00  0.00    +0.000 A 
ATOM     23  C   LIG    1       -2.653  -6.295  -5.553  0.00  0.00    +0.000 A 
ATOM     24  C   LIG    1       -2.280  -5.147  -4.879  0.00  0.00    +0.010 A 
ENDBRANCH  18  19
BRANCH  18  25
ATOM     25  O   LIG    1       -3.683  -1.947  -4.066  0.00  0.00    -0.550 OA
ATOM     26  H   LIG    1       -4.208  -1.671  -4.830  0.00  0.00    +0.370 HD
ENDBRANCH  18  25
ENDBRANCH  17  18
ENDBRANCH   5  17
TORSDOF 5
