REMARK  Name = ZINCrD00000l5OLy.0
REMARK                            x       y       z     vdW  Elec       q    Type
REMARK                         _______ _______ _______ _____ _____    ______ ____
ROOT
ATOM      1  C   LIG    1       -2.596   4.184   0.037  0.00  0.00    +0.250 C 
ATOM      2  C   LIG    1       -3.525   3.931  -1.152  0.00  0.00    +0.110 C 
ENDROOT
BRANCH   1   3
ATOM      3  C   LIG    1       -2.338   5.663   0.168  0.00  0.00    -0.110 A 
ATOM      4  C   LIG    1       -2.666   6.321   1.338  0.00  0.00    +0.030 A 
ATOM      5  C   LIG    1       -2.430   7.680   1.458  0.00  0.00    +0.100 A 
ATOM      6  C   LIG    1       -1.866   8.380   0.405  0.00  0.00    +0.050 A 
ATOM      7  C   LIG    1       -1.537   7.722  -0.765  0.00  0.00    +0.040 A 
ATOM      8  F   LIG    1       -2.752   8.323   2.602  0.00  0.00    -0.130 F 
ATOM      9  C   LIG    1       -1.768   6.362  -0.883  0.00  0.00    +0.110 A 
ATOM     10  F   LIG    1       -1.442   5.718  -2.025  0.00  0.00    -0.120 F 
ENDBRANCH   1   3
BRANCH   1  11
ATOM     11  N   LIG    1       -1.327   3.485  -0.178  0.00  0.00    -0.710 N 
ATOM     12  H   LIG    1       -0.503   3.990  -0.263  0.00  0.00    +0.410 HD
ATOM     13  C   LIG    1       -1.303   2.140  -0.257  0.00  0.00    +0.560 C 
ATOM     14  O   LIG    1       -2.335   1.507  -0.150  0.00  0.00    -0.490 OA
BRANCH  13  15
ATOM     15  C   LIG    1       -0.023   1.435  -0.474  0.00  0.00    -0.080 A 
ATOM     16  C   LIG    1        1.163   2.159  -0.603  0.00  0.00    +0.090 A 
ATOM     17  C   LIG    1        2.354   1.494  -0.811  0.00  0.00    +0.110 A 
ATOM     18  C   LIG    1        2.376   0.113  -0.891  0.00  0.00    -0.010 A 
ATOM     19  C   LIG    1        1.205  -0.612  -0.764  0.00  0.00    +0.110 A 
ATOM     20  C   LIG    1        0.005   0.040  -0.556  0.00  0.00    +0.010 A 
ATOM     21 CL   LIG    1       -1.464  -0.871  -0.398  0.00  0.00    +0.010 Cl
BRANCH  18  22
ATOM     22  N   LIG    1        3.658  -0.592  -1.115  0.00  0.00    +0.020 N 
ATOM     23  O   LIG    1        4.691   0.044  -1.227  0.00  0.00    -0.140 OA
ATOM     24  O   LIG    1        3.680  -1.808  -1.186  0.00  0.00    -0.140 OA
ENDBRANCH  18  22
ENDBRANCH  13  15
ENDBRANCH   1  11
BRANCH   1  25
ATOM     25  C   LIG    1       -3.243   3.674   1.298  0.00  0.00    +0.470 C 
ATOM     26  O   LIG    1       -4.446   3.584   1.366  0.00  0.00    -0.480 OA
BRANCH  25  28
ATOM     27  C   LIG    1       -3.175   2.835   3.528  0.00  0.00    +0.270 C 
ATOM     28  O   LIG    1       -2.484   3.318   2.346  0.00  0.00    -0.350 OA
ENDBRANCH  25  28
ENDBRANCH   1  25
TORSDOF 6
