REMARK  Name = ZINCqH0000002LKt.0
REMARK                            x       y       z     vdW  Elec       q    Type
REMARK                         _______ _______ _______ _____ _____    ______ ____
ROOT
ATOM      1  C   LIG    1        5.847   3.984   0.283  0.00  0.00    +0.200 A 
ATOM      2  C   LIG    1        4.959   2.926   0.107  0.00  0.00    -0.020 A 
ATOM      3  C   LIG    1        3.610   3.173  -0.006  0.00  0.00    +0.180 A 
ATOM      4  C   LIG    1        3.137   4.489   0.046  0.00  0.00    -0.170 A 
ATOM      5  C   LIG    1        4.037   5.546   0.224  0.00  0.00    +0.170 A 
ATOM      6  C   LIG    1        5.373   5.293   0.341  0.00  0.00    -0.050 A 
ENDROOT
BRANCH   1  12
ATOM      7  C   LIG    1        7.476   2.792   1.498  0.00  0.00    +0.140 C 
ATOM      8  C   LIG    1        8.987   2.652   1.695  0.00  0.00    +0.040 C 
ATOM      9  C   LIG    1        9.622   2.148   0.396  0.00  0.00    +0.010 C 
ATOM     10  C   LIG    1        9.288   3.122  -0.738  0.00  0.00    +0.030 C 
ATOM     11  C   LIG    1        7.768   3.248  -0.864  0.00  0.00    +0.190 C 
ATOM     12  N   LIG    1        7.209   3.734   0.404  0.00  0.00    -0.500 N 
BRANCH   7  13
ATOM     13  C   LIG    1        6.840   3.314   2.787  0.00  0.00    +0.010 C 
BRANCH  13  15
ATOM     14  C   LIG    1        6.254   2.736   5.146  0.00  0.00    +0.010 C 
ATOM     15  C   LIG    1        7.001   2.270   3.894  0.00  0.00    +0.010 C 
ENDBRANCH  13  15
ENDBRANCH   7  13
ENDBRANCH   1  12
BRANCH   6  16
ATOM     16  N   LIG    1        6.322   6.413   0.529  0.00  0.00    +0.030 N 
ATOM     17  O   LIG    1        7.515   6.190   0.634  0.00  0.00    -0.090 OA
ATOM     18  O   LIG    1        5.910   7.558   0.580  0.00  0.00    -0.200 OA
ENDBRANCH   6  16
BRANCH   4  19
ATOM     19  C   LIG    1        1.693   4.761  -0.080  0.00  0.00    +0.490 C 
ATOM     20  O   LIG    1        1.293   5.909  -0.140  0.00  0.00    -0.440 OA
BRANCH  19  21
ATOM     21  C   LIG    1        0.735   3.644  -0.131  0.00  0.00    +0.110 A 
ATOM     22  N   LIG    1        1.044   2.364  -0.178  0.00  0.00    -0.440 NA
ATOM     23  C   LIG    1       -0.077   1.647  -0.215  0.00  0.00    +0.160 A 
ATOM     24  C   LIG    1       -1.131   2.501  -0.197  0.00  0.00    +0.170 A 
ATOM     25  N   LIG    1       -0.627   3.756  -0.138  0.00  0.00    -0.410 N 
ATOM     26  C   LIG    1       -1.398   5.002  -0.097  0.00  0.00    +0.340 C 
ENDBRANCH  19  21
ENDBRANCH   4  19
TORSDOF 6
