REMARK  Name = ZINCAx0000000jDp.0
REMARK                            x       y       z     vdW  Elec       q    Type
REMARK                         _______ _______ _______ _____ _____    ______ ____
ROOT
ATOM      1  C   LIG    1        0.184  -0.038   0.928  0.00  0.00    +0.110 C 
ATOM      2  C   LIG    1        0.126   1.461   0.620  0.00  0.00    +0.170 C 
ATOM      3  N   LIG    1        1.494   1.997   0.566  0.00  0.00    -0.510 NA
ATOM      4  C   LIG    1        2.286   1.302  -0.459  0.00  0.00    +0.150 C 
ATOM      5  C   LIG    1        2.322  -0.195  -0.141  0.00  0.00    +0.230 C 
ATOM      6  C   LIG    1        0.804  -0.253   2.310  0.00  0.00    +0.040 C 
ATOM      7  O   LIG    1        0.983  -0.692  -0.061  0.00  0.00    -0.370 OA
ENDROOT
BRANCH   1   8
ATOM      8  C   LIG    1       -1.232  -0.619   0.906  0.00  0.00    +0.310 C 
BRANCH   8  10
ATOM      9  C   LIG    1       -2.327  -2.744   1.372  0.00  0.00    +0.490 C 
ATOM     10  N   LIG    1       -1.190  -2.024   1.317  0.00  0.00    -0.720 N 
ATOM     11  H   LIG    1       -0.343  -2.437   1.548  0.00  0.00    +0.410 HD
ATOM     12  O   LIG    1       -3.386  -2.229   1.083  0.00  0.00    -0.520 OA
BRANCH   9  13
ATOM     13  C   LIG    1       -2.284  -4.191   1.795  0.00  0.00    +0.340 C 
BRANCH  13  23
ATOM     14  C   LIG    1       -3.617  -5.562  -0.635  0.00  0.00    +0.190 C 
ATOM     15  C   LIG    1       -4.246  -5.353   0.718  0.00  0.00    +0.290 A 
ATOM     16  N   LIG    1       -5.447  -5.728   1.048  0.00  0.00    -0.490 NA
ATOM     17  C   LIG    1       -5.694  -5.386   2.338  0.00  0.00    +0.050 A 
ATOM     18  C   LIG    1       -6.796  -5.544   3.183  0.00  0.00    +0.070 A 
ATOM     19  C   LIG    1       -6.736  -5.094   4.472  0.00  0.00    +0.000 A 
ATOM     20  C   LIG    1       -5.593  -4.469   4.951  0.00  0.00    +0.030 A 
ATOM     21  C   LIG    1       -4.495  -4.299   4.134  0.00  0.00    +0.010 A 
ATOM     22  C   LIG    1       -4.536  -4.756   2.824  0.00  0.00    +0.060 A 
ATOM     23  N   LIG    1       -3.639  -4.746   1.774  0.00  0.00    -0.480 N 
ENDBRANCH  13  23
ENDBRANCH   9  13
ENDBRANCH   8  10
ENDBRANCH   1   8
BRANCH   3  24
ATOM     24  C   LIG    1        1.482   3.447   0.329  0.00  0.00    +0.210 C 
BRANCH  24  25
ATOM     25  C   LIG    1        2.870   3.999   0.523  0.00  0.00    +0.520 C 
ATOM     26  N   LIG    1        3.130   5.288   0.229  0.00  0.00    -0.580 N 
ATOM     27  O   LIG    1        3.755   3.284   0.944  0.00  0.00    -0.510 OA
BRANCH  26  28
ATOM     28  C   LIG    1        4.511   5.779   0.239  0.00  0.00    +0.200 C 
ATOM     29  C   LIG    1        5.630   4.737   0.214  0.00  0.00    +0.030 C 
ATOM     30  C   LIG    1        5.342   5.519   1.497  0.00  0.00    +0.010 C 
ENDBRANCH  26  28
BRANCH  26  31
ATOM     31  C   LIG    1        2.032   6.200  -0.102  0.00  0.00    +0.330 C 
BRANCH  31  32
ATOM     32  C   LIG    1        1.641   6.983   1.125  0.00  0.00    -0.110 A 
ATOM     33  C   LIG    1        0.714   6.464   2.010  0.00  0.00    +0.010 A 
ATOM     34  C   LIG    1        0.359   7.181   3.137  0.00  0.00    +0.000 A 
ATOM     35  C   LIG    1        0.925   8.419   3.376  0.00  0.00    +0.010 A 
ATOM     36  C   LIG    1        1.849   8.940   2.489  0.00  0.00    +0.000 A 
ATOM     37  C   LIG    1        2.207   8.222   1.363  0.00  0.00    +0.020 A 
ENDBRANCH  31  32
ENDBRANCH  26  31
ENDBRANCH  24  25
ENDBRANCH   3  24
TORSDOF 9
