REMARK  Name = ZINCrg00000IYG25.0
REMARK                            x       y       z     vdW  Elec       q    Type
REMARK                         _______ _______ _______ _____ _____    ______ ____
ROOT
ATOM      1  N   LIG    1        5.435  -0.524   4.638  0.00  0.00    -1.010 NA
ATOM      2  C   LIG    1        6.154  -0.689   3.366  0.00  0.00    +0.280 C 
ATOM      3  C   LIG    1        6.186   0.691   2.676  0.00  0.00    +0.060 C 
ATOM      4  C   LIG    1        4.992   1.434   3.330  0.00  0.00    +0.220 C 
ATOM      5  C   LIG    1        5.044   0.890   4.780  0.00  0.00    +0.330 C 
ENDROOT
BRANCH   4   6
ATOM      6  C   LIG    1        3.694   1.066   2.661  0.00  0.00    +0.160 A 
ATOM      7  N   LIG    1        3.378   1.269   1.404  0.00  0.00    -0.470 NA
ATOM      8  C   LIG    1        2.132   0.783   1.261  0.00  0.00    +0.200 A 
ATOM      9  N   LIG    1        1.759   0.323   2.417  0.00  0.00    -0.370 NA
ATOM     10  O   LIG    1        2.643   0.471   3.234  0.00  0.00    +0.090 OA
BRANCH   8  11
ATOM     11  C   LIG    1        1.317   0.779  -0.006  0.00  0.00    +0.060 C 
ATOM     12  C   LIG    1       -0.019   1.526   0.010  0.00  0.00    +0.060 C 
ATOM     13  C   LIG    1        0.002  -0.004   0.002  0.00  0.00    +0.050 C 
ENDBRANCH   8  11
ENDBRANCH   4   6
BRANCH   1  15
ATOM     14  O   LIG    1        3.988  -1.301   6.480  0.00  0.00    -0.940 OA
ATOM     15  S   LIG    1        5.116  -1.728   5.729  0.00  0.00    +2.720 S 
ATOM     16  O   LIG    1        5.148  -2.949   5.002  0.00  0.00    -0.930 OA
BRANCH  15  17
ATOM     17  C   LIG    1        6.470  -1.784   6.855  0.00  0.00    -0.680 A 
ATOM     18  C   LIG    1        6.275  -1.471   8.187  0.00  0.00    +0.130 A 
ATOM     19  C   LIG    1        7.335  -1.514   9.072  0.00  0.00    +0.020 A 
ATOM     20  C   LIG    1        8.595  -1.870   8.629  0.00  0.00    +0.080 A 
ATOM     21  C   LIG    1        8.798  -2.185   7.294  0.00  0.00    +0.030 A 
ATOM     22  O   LIG    1       10.046  -2.527   6.871  0.00  0.00    -0.300 OA
ATOM     23  C   LIG    1       10.133  -3.208   5.611  0.00  0.00    +0.230 C 
ATOM     24  C   LIG    1        9.252  -2.458   4.604  0.00  0.00    +0.240 C 
ATOM     25  O   LIG    1        7.906  -2.464   5.093  0.00  0.00    -0.300 OA
ATOM     26  C   LIG    1        7.731  -2.148   6.405  0.00  0.00    +0.150 A 
ENDBRANCH  15  17
ENDBRANCH   1  15
BRANCH   4  27
ATOM     27  O   LIG    1        5.195   2.849   3.306  0.00  0.00    -0.520 OA
ATOM     28  H   LIG    1        5.220   3.228   2.417  0.00  0.00    +0.400 HD
ENDBRANCH   4  27
TORSDOF 5
