REMARK  Name = ZINCrH000004mVUA.0
REMARK                            x       y       z     vdW  Elec       q    Type
REMARK                         _______ _______ _______ _____ _____    ______ ____
ROOT
ATOM      1  C   LIG    1       -4.300  -2.081   2.395  0.00  0.00    +0.160 A 
ATOM      2  C   LIG    1       -4.020  -1.821   1.064  0.00  0.00    -0.070 A 
ATOM      3  C   LIG    1       -3.414  -0.631   0.704  0.00  0.00    +0.160 A 
ATOM      4  C   LIG    1       -3.076   0.297   1.671  0.00  0.00    -0.690 A 
ATOM      5  C   LIG    1       -3.352   0.045   3.002  0.00  0.00    +0.170 A 
ATOM      6  C   LIG    1       -3.965  -1.143   3.370  0.00  0.00    +0.100 A 
ENDROOT
BRANCH   6   7
ATOM      7  N   LIG    1       -4.245  -1.401   4.718  0.00  0.00    -0.660 N 
ATOM      8  H   LIG    1       -4.327  -2.316   5.031  0.00  0.00    +0.420 HD
ATOM      9  C   LIG    1       -4.402  -0.378   5.582  0.00  0.00    +0.520 C 
ATOM     10  O   LIG    1       -4.400   0.765   5.175  0.00  0.00    -0.510 OA
BRANCH   9  11
ATOM     11  C   LIG    1       -4.579  -0.653   7.053  0.00  0.00    +0.100 C 
BRANCH  11  12
ATOM     12  C   LIG    1       -4.734   0.670   7.804  0.00  0.00    +0.100 C 
BRANCH  12  13
ATOM     13  S   LIG    1       -4.948   0.338   9.575  0.00  0.00    -0.100 S 
BRANCH  13  14
ATOM     14  C   LIG    1       -5.108   1.952  10.264  0.00  0.00    -0.080 A 
ATOM     15  C   LIG    1       -5.046   3.070   9.441  0.00  0.00    +0.020 A 
ATOM     16  C   LIG    1       -5.176   4.333   9.983  0.00  0.00    +0.050 A 
ATOM     17  C   LIG    1       -5.358   4.487  11.347  0.00  0.00    -0.040 A 
ATOM     18  C   LIG    1       -5.416   3.376  12.169  0.00  0.00    +0.050 A 
ATOM     19 CL   LIG    1       -5.514   6.077  12.026  0.00  0.00    -0.070 Cl
ATOM     20  C   LIG    1       -5.292   2.110  11.632  0.00  0.00    +0.050 A 
ENDBRANCH  13  14
ENDBRANCH  12  13
ENDBRANCH  11  12
ENDBRANCH   9  11
ENDBRANCH   6   7
BRANCH   4  21
ATOM     21  S   LIG    1       -2.299   1.808   1.205  0.00  0.00    +2.700 S 
ATOM     22  O   LIG    1       -2.640   2.032  -0.156  0.00  0.00    -0.950 OA
ATOM     23  O   LIG    1       -2.581   2.740   2.240  0.00  0.00    -0.950 OA
BRANCH  21  24
ATOM     24  N   LIG    1       -0.664   1.550   1.242  0.00  0.00    -1.010 NA
ATOM     25  C   LIG    1        0.089   1.795   2.474  0.00  0.00    +0.300 C 
ATOM     26  C   LIG    1        0.030   1.076   0.042  0.00  0.00    +0.300 C 
ENDBRANCH  21  24
ENDBRANCH   4  21
BRANCH   1  28
ATOM     27  C   LIG    1       -5.215  -4.162   1.697  0.00  0.00    +0.250 C 
ATOM     28  O   LIG    1       -4.901  -3.248   2.750  0.00  0.00    -0.310 OA
ENDBRANCH   1  28
TORSDOF 8
