REMARK  Name = ZINCpe00000RetPk.0
REMARK                            x       y       z     vdW  Elec       q    Type
REMARK                         _______ _______ _______ _____ _____    ______ ____
ROOT
ATOM      1  C   LIG    1        5.259  -2.518   0.137  0.00  0.00    +0.370 C 
ATOM      2  C   LIG    1        5.124  -3.883   0.765  0.00  0.00    -0.260 A 
ATOM      3  C   LIG    1        3.895  -4.002   1.312  0.00  0.00    +0.060 A 
ATOM      4  N   LIG    1        3.807  -5.232   1.865  0.00  0.00    -0.340 N 
ATOM      5  N   LIG    1        5.025  -5.889   1.649  0.00  0.00    -0.270 NA
ATOM      6  C   LIG    1        2.644  -5.782   2.566  0.00  0.00    +0.360 C 
ATOM      7  C   LIG    1        3.124  -2.725   1.094  0.00  0.00    +0.370 C 
ATOM      8  C   LIG    1        5.814  -5.081   0.990  0.00  0.00    +0.300 A 
ATOM      9  N   LIG    1        3.994  -1.807   0.350  0.00  0.00    -0.600 N 
ATOM     10  C   LIG    1        3.692  -0.556  -0.053  0.00  0.00    +0.560 C 
ATOM     11  O   LIG    1        4.478   0.067  -0.735  0.00  0.00    -0.480 OA
ENDROOT
BRANCH  10  12
ATOM     12  C   LIG    1        2.379   0.067   0.344  0.00  0.00    +0.150 C 
ATOM     13  C   LIG    1        1.232  -0.615  -0.414  0.00  0.00    +0.250 C 
ATOM     14  O   LIG    1        0.004   0.009  -0.024  0.00  0.00    -0.300 OA
ATOM     15  C   LIG    1       -0.010   1.369   0.004  0.00  0.00    +0.040 A 
ATOM     16  C   LIG    1       -1.225   2.038   0.024  0.00  0.00    +0.030 A 
ATOM     17  C   LIG    1       -1.255   3.419   0.051  0.00  0.00    +0.030 A 
ATOM     18  C   LIG    1       -0.074   4.138   0.068  0.00  0.00    +0.030 A 
ATOM     19  C   LIG    1        1.140   3.478   0.052  0.00  0.00    +0.030 A 
ATOM     20  C   LIG    1        1.177   2.093   0.018  0.00  0.00    +0.050 A 
ATOM     21  O   LIG    1        2.380   1.457  -0.001  0.00  0.00    -0.280 OA
ENDBRANCH  10  12
BRANCH   1  22
ATOM     22  C   LIG    1        6.388  -1.762   0.789  0.00  0.00    +0.460 C 
ATOM     23  O   LIG    1        6.164  -0.730   1.376  0.00  0.00    -0.490 OA
BRANCH  22  25
ATOM     24  C   LIG    1        8.679  -1.455   1.370  0.00  0.00    +0.270 C 
ATOM     25  O   LIG    1        7.642  -2.236   0.719  0.00  0.00    -0.350 OA
ENDBRANCH  22  25
ENDBRANCH   1  22
TORSDOF 3
