REMARK  Name = ZINCqH00000059tV.0
REMARK                            x       y       z     vdW  Elec       q    Type
REMARK                         _______ _______ _______ _____ _____    ______ ____
ROOT
ATOM      1  C   LIG    1        0.920   0.453  -2.591  0.00  0.00    +0.300 C 
ATOM      2  N   LIG    1       -0.287   1.271  -2.445  0.00  0.00    -0.600 N 
ATOM      3  C   LIG    1       -0.747   1.579  -1.216  0.00  0.00    +0.530 C 
ATOM      4  O   LIG    1       -1.746   2.256  -1.095  0.00  0.00    -0.530 OA
ENDROOT
BRANCH   3   5
ATOM      5  C   LIG    1       -0.021   1.081   0.007  0.00  0.00    +0.040 C 
BRANCH   5   6
ATOM      6  C   LIG    1       -0.746   1.568   1.264  0.00  0.00    +0.320 C 
BRANCH   6   7
ATOM      7  N   LIG    1       -0.040   1.084   2.453  0.00  0.00    -0.490 N 
ATOM      8  C   LIG    1       -0.357  -0.051   3.147  0.00  0.00    +0.220 A 
ATOM      9  C   LIG    1        0.488  -0.207   4.179  0.00  0.00    -0.050 A 
ATOM     10  C   LIG    1        1.416   0.926   4.148  0.00  0.00    -0.110 A 
ATOM     11  C   LIG    1        2.494   1.319   4.943  0.00  0.00    +0.050 A 
ATOM     12  C   LIG    1        3.177   2.464   4.642  0.00  0.00    -0.030 A 
ATOM     13  C   LIG    1        2.808   3.238   3.551  0.00  0.00    +0.020 A 
ATOM     14  C   LIG    1        1.748   2.868   2.752  0.00  0.00    -0.010 A 
ATOM     15  C   LIG    1        1.038   1.707   3.041  0.00  0.00    +0.100 A 
ENDBRANCH   6   7
ENDBRANCH   5   6
ENDBRANCH   3   5
BRANCH   2  16
ATOM     16  C   LIG    1       -0.993   1.754  -3.634  0.00  0.00    +0.340 C 
BRANCH  16  17
ATOM     17  C   LIG    1       -0.437   3.096  -4.037  0.00  0.00    +0.500 C 
ATOM     18  N   LIG    1       -0.937   3.737  -5.112  0.00  0.00    -0.670 N 
ATOM     19  H   LIG    1       -1.607   3.307  -5.665  0.00  0.00    +0.410 HD
ATOM     20  O   LIG    1        0.461   3.598  -3.395  0.00  0.00    -0.510 OA
BRANCH  18  21
ATOM     21  C   LIG    1       -0.489   5.024  -5.430  0.00  0.00    +0.150 A 
ATOM     22  C   LIG    1       -1.367   5.951  -5.976  0.00  0.00    +0.010 A 
ATOM     23  C   LIG    1       -0.923   7.222  -6.285  0.00  0.00    +0.050 A 
ATOM     24  C   LIG    1        0.397   7.569  -6.060  0.00  0.00    -0.050 A 
ATOM     25  C   LIG    1        1.276   6.646  -5.520  0.00  0.00    +0.050 A 
ATOM     26 CL   LIG    1        0.953   9.166  -6.455  0.00  0.00    -0.070 Cl
ATOM     27  C   LIG    1        0.836   5.375  -5.205  0.00  0.00    +0.040 A 
ENDBRANCH  18  21
ENDBRANCH  16  17
ENDBRANCH   2  16
TORSDOF 6
