REMARK  Name = ZINCrg000000paeV.0
REMARK                            x       y       z     vdW  Elec       q    Type
REMARK                         _______ _______ _______ _____ _____    ______ ____
ROOT
ATOM      1  N   LIG    1       -4.296   2.308  -1.574  0.00  0.00    -0.730 N 
ATOM      2  H   LIG    1       -4.522   2.308  -0.631  0.00  0.00    +0.400 HD
ATOM      3  C   LIG    1       -3.045   1.996  -1.968  0.00  0.00    +0.720 C 
ATOM      4  N   LIG    1       -2.108   1.686  -1.050  0.00  0.00    -0.630 N 
ATOM      5  C   LIG    1       -2.313   1.649   0.409  0.00  0.00    +0.250 C 
ATOM      6  C   LIG    1       -0.899   1.868   1.016  0.00  0.00    +0.080 C 
ATOM      7  C   LIG    1       -0.012   1.083   0.014  0.00  0.00    +0.160 C 
ATOM      8  C   LIG    1       -0.711   1.328  -1.339  0.00  0.00    +0.260 C 
ATOM      9  O   LIG    1       -2.763   1.995  -3.150  0.00  0.00    -0.560 OA
ENDROOT
BRANCH   1  14
ATOM     10  C   LIG    1       -8.176   0.205  -2.712  0.00  0.00    +0.290 C 
ATOM     11  N   LIG    1       -7.227   1.293  -2.465  0.00  0.00    -0.620 N 
ATOM     12  C   LIG    1       -7.470   2.412  -1.546  0.00  0.00    +0.260 C 
ATOM     13  C   LIG    1       -6.436   3.497  -1.933  0.00  0.00    +0.060 C 
ATOM     14  C   LIG    1       -5.315   2.645  -2.571  0.00  0.00    +0.250 C 
ATOM     15  C   LIG    1       -6.021   1.396  -3.050  0.00  0.00    +0.500 C 
ATOM     16  O   LIG    1       -5.566   0.602  -3.846  0.00  0.00    -0.510 OA
ENDBRANCH   1  14
BRANCH   7  17
ATOM     17  O   LIG    1        1.317   1.608  -0.002  0.00  0.00    -0.280 OA
BRANCH  17  18
ATOM     18  C   LIG    1        2.291   0.808  -0.514  0.00  0.00    +0.070 A 
ATOM     19  C   LIG    1        1.968  -0.410  -1.093  0.00  0.00    -0.010 A 
ATOM     20  C   LIG    1        2.996  -1.194  -1.603  0.00  0.00    -0.020 A 
ATOM     21  C   LIG    1        4.297  -0.741  -1.520  0.00  0.00    +0.250 A 
ATOM     22  N   LIG    1        4.577   0.423  -0.963  0.00  0.00    -0.480 NA
ATOM     23  C   LIG    1        3.629   1.203  -0.470  0.00  0.00    +0.290 A 
BRANCH  23  24
ATOM     24  N   LIG    1        3.969   2.426   0.102  0.00  0.00    -0.450 N 
ATOM     25  C   LIG    1        3.610   2.458   1.543  0.00  0.00    +0.200 C 
ATOM     26  C   LIG    1        4.498   3.597   2.104  0.00  0.00    +0.040 C 
ATOM     27  C   LIG    1        5.818   3.426   1.318  0.00  0.00    +0.010 C 
ATOM     28  C   LIG    1        5.430   2.650   0.045  0.00  0.00    +0.190 C 
ENDBRANCH  23  24
ENDBRANCH  17  18
ENDBRANCH   7  17
TORSDOF 4
