REMARK  Name = ZINCqH0000036LmE.0
REMARK                            x       y       z     vdW  Elec       q    Type
REMARK                         _______ _______ _______ _____ _____    ______ ____
ROOT
ATOM      1  N   LIG    1       -4.226  -4.610   0.903  0.00  0.00    -0.740 N 
ATOM      2  H   LIG    1       -3.312  -4.884   1.078  0.00  0.00    +0.400 HD
ENDROOT
BRANCH   1   3
ATOM      3  C   LIG    1       -5.290  -5.305   1.490  0.00  0.00    +0.140 A 
ATOM      4  C   LIG    1       -5.046  -6.396   2.322  0.00  0.00    +0.030 A 
ATOM      5  C   LIG    1       -6.128  -7.049   2.885  0.00  0.00    +0.020 A 
ATOM      6  C   LIG    1       -7.412  -6.608   2.595  0.00  0.00    +0.260 A 
ATOM      7  N   LIG    1       -7.607  -5.573   1.796  0.00  0.00    -0.500 NA
ATOM      8  C   LIG    1       -6.600  -4.921   1.245  0.00  0.00    +0.220 A 
BRANCH   6   9
ATOM      9  O   LIG    1       -8.480  -7.246   3.138  0.00  0.00    -0.300 OA
BRANCH   9  10
ATOM     10  C   LIG    1       -9.775  -6.745   2.803  0.00  0.00    +0.250 C 
BRANCH  10  11
ATOM     11  C   LIG    1      -10.845  -7.585   3.503  0.00  0.00    +0.460 C 
ATOM     12  F   LIG    1      -10.738  -8.917   3.088  0.00  0.00    -0.170 F 
ATOM     13  F   LIG    1      -12.113  -7.095   3.175  0.00  0.00    -0.170 F 
ATOM     14  F   LIG    1      -10.662  -7.512   4.888  0.00  0.00    -0.170 F 
ENDBRANCH  10  11
ENDBRANCH   9  10
ENDBRANCH   6   9
ENDBRANCH   1   3
BRANCH   1  16
ATOM     15  C   LIG    1       -4.758  -3.970  -1.397  0.00  0.00    +0.030 C 
ATOM     16  C   LIG    1       -4.494  -3.469   0.024  0.00  0.00    +0.280 C 
BRANCH  16  17
ATOM     17  C   LIG    1       -3.300  -2.549   0.018  0.00  0.00    -0.090 A 
ATOM     18  C   LIG    1       -3.485  -1.179   0.027  0.00  0.00    +0.060 A 
ATOM     19  C   LIG    1       -2.393  -0.333   0.022  0.00  0.00    +0.030 A 
ATOM     20  C   LIG    1       -1.108  -0.860   0.007  0.00  0.00    +0.150 A 
ATOM     21  C   LIG    1       -0.926  -2.236  -0.008  0.00  0.00    +0.010 A 
ATOM     22  C   LIG    1       -2.022  -3.077   0.003  0.00  0.00    +0.040 A 
BRANCH  20  23
ATOM     23  N   LIG    1        0.002  -0.004   0.002  0.00  0.00    -0.330 N 
ATOM     24  C   LIG    1        1.300  -0.365  -0.012  0.00  0.00    +0.480 A 
ATOM     25  N   LIG    1        2.024   0.725  -0.013  0.00  0.00    -0.530 NA
ATOM     26  C   LIG    1        1.229   1.795   0.000  0.00  0.00    +0.440 A 
ATOM     27  N   LIG    1       -0.017   1.400   0.010  0.00  0.00    -0.310 NA
ENDBRANCH  20  23
ENDBRANCH  16  17
ENDBRANCH   1  16
TORSDOF 7
