REMARK  Name = ZINCvU0000000El5.0
REMARK                            x       y       z     vdW  Elec       q    Type
REMARK                         _______ _______ _______ _____ _____    ______ ____
ROOT
ATOM      1  C   LIG    1        5.623   2.375 -11.054  0.00  0.00    +0.350 C 
ATOM      2  N   LIG    1        5.464   0.948 -10.764  0.00  0.00    -0.460 N 
ATOM      3  C   LIG    1        4.795   0.389  -9.713  0.00  0.00    +0.140 A 
ATOM      4  N   LIG    1        4.893  -0.915  -9.838  0.00  0.00    -0.290 NA
ATOM      5  N   LIG    1        5.578  -1.208 -10.885  0.00  0.00    -0.270 NA
ATOM      6  C   LIG    1        5.959  -0.109 -11.493  0.00  0.00    +0.230 A 
ENDROOT
BRANCH   6   7
ATOM      7  C   LIG    1        6.762  -0.022 -12.731  0.00  0.00    -0.030 A 
ATOM      8  C   LIG    1        6.895  -1.138 -13.559  0.00  0.00    +0.070 A 
ATOM      9  C   LIG    1        7.642  -1.049 -14.716  0.00  0.00    +0.020 A 
ATOM     10  C   LIG    1        8.268   0.139 -15.049  0.00  0.00    -0.050 A 
ATOM     11  C   LIG    1        8.145   1.247 -14.229  0.00  0.00    +0.020 A 
ATOM     12  C   LIG    1        7.396   1.173 -13.073  0.00  0.00    +0.020 A 
BRANCH  10  13
ATOM     13  C   LIG    1        9.088   0.227 -16.311  0.00  0.00    -0.030 C 
ATOM     14  C   LIG    1        8.500   1.303 -17.226  0.00  0.00    +0.040 C 
ATOM     15  C   LIG    1        9.063  -1.123 -17.030  0.00  0.00    +0.030 C 
ATOM     16  C   LIG    1       10.531   0.590 -15.957  0.00  0.00    +0.040 C 
ENDBRANCH  10  13
ENDBRANCH   6   7
BRANCH   3  17
ATOM     17  S   LIG    1        3.951   1.256  -8.432  0.00  0.00    +0.090 S 
BRANCH  17  18
ATOM     18  C   LIG    1        3.337  -0.141  -7.458  0.00  0.00    +0.110 C 
BRANCH  18  19
ATOM     19  C   LIG    1        2.561   0.374  -6.274  0.00  0.00    +0.540 C 
ATOM     20  N   LIG    1        2.006  -0.492  -5.403  0.00  0.00    -0.670 N 
ATOM     21  H   LIG    1        2.169  -1.444  -5.496  0.00  0.00    +0.420 HD
ATOM     22  O   LIG    1        2.434   1.568  -6.105  0.00  0.00    -0.500 OA
BRANCH  20  23
ATOM     23  C   LIG    1        1.196  -0.018  -4.363  0.00  0.00    +0.150 A 
ATOM     24  C   LIG    1        1.199  -0.661  -3.132  0.00  0.00    +0.020 A 
ATOM     25  C   LIG    1        0.400  -0.195  -2.108  0.00  0.00    +0.070 A 
ATOM     26  C   LIG    1       -0.408   0.918  -2.308  0.00  0.00    -0.110 A 
ATOM     27  C   LIG    1       -0.415   1.558  -3.542  0.00  0.00    +0.030 A 
ATOM     28  C   LIG    1        0.389   1.094  -4.564  0.00  0.00    +0.040 A 
BRANCH  26  29
ATOM     29  S   LIG    1       -1.429   1.513  -1.001  0.00  0.00    -0.090 S 
BRANCH  29  30
ATOM     30  C   LIG    1       -2.260   2.941  -1.750  0.00  0.00    +0.430 C 
ATOM     31  F   LIG    1       -2.999   2.520  -2.861  0.00  0.00    -0.180 F 
ATOM     32  F   LIG    1       -1.303   3.878  -2.155  0.00  0.00    -0.180 F 
ENDBRANCH  29  30
ENDBRANCH  26  29
ENDBRANCH  20  23
ENDBRANCH  18  19
ENDBRANCH  17  18
ENDBRANCH   3  17
TORSDOF 8
