REMARK  Name = ZINCrH000004q9Ys.0
REMARK                            x       y       z     vdW  Elec       q    Type
REMARK                         _______ _______ _______ _____ _____    ______ ____
ROOT
ATOM      1  C   LIG    1        1.771  -1.840  -0.061  0.00  0.00    +0.600 C 
ATOM      2  N   LIG    1        0.884  -2.759  -0.491  0.00  0.00    -0.670 N 
ATOM      3  H   LIG    1       -0.046  -2.514  -0.617  0.00  0.00    +0.410 HD
ATOM      4  O   LIG    1        2.916  -2.169   0.185  0.00  0.00    -0.520 OA
ENDROOT
BRANCH   2   5
ATOM      5  C   LIG    1        1.305  -4.068  -0.758  0.00  0.00    +0.160 A 
ATOM      6  C   LIG    1        0.454  -5.135  -0.505  0.00  0.00    +0.000 A 
ATOM      7  C   LIG    1        0.864  -6.429  -0.773  0.00  0.00    +0.050 A 
ATOM      8  C   LIG    1        2.130  -6.657  -1.284  0.00  0.00    +0.050 A 
ATOM      9  O   LIG    1        2.546  -7.932  -1.546  0.00  0.00    -0.320 OA
ATOM     10  C   LIG    1        2.724  -8.259  -2.925  0.00  0.00    +0.220 C 
ATOM     11  C   LIG    1        4.101  -7.830  -3.407  0.00  0.00    -0.020 C 
ATOM     12  C   LIG    1        4.282  -6.321  -3.376  0.00  0.00    +0.230 C 
ATOM     13  O   LIG    1        4.231  -5.832  -2.034  0.00  0.00    -0.320 OA
ATOM     14  C   LIG    1        2.985  -5.593  -1.532  0.00  0.00    +0.090 A 
ATOM     15  C   LIG    1        2.576  -4.297  -1.271  0.00  0.00    +0.030 A 
ENDBRANCH   2   5
BRANCH   1  18
ATOM     16  C   LIG    1        3.603   0.522   0.926  0.00  0.00    +0.180 C 
ATOM     17  C   LIG    1        2.148   0.607   0.544  0.00  0.00    +0.180 A 
ATOM     18  C   LIG    1        1.354  -0.437   0.113  0.00  0.00    -0.300 A 
ATOM     19  C   LIG    1        0.066   0.091  -0.132  0.00  0.00    +0.290 A 
ATOM     20  N   LIG    1        0.095   1.368   0.138  0.00  0.00    -0.280 NA
ATOM     21  N   LIG    1        1.383   1.713   0.561  0.00  0.00    -0.310 N 
BRANCH  21  22
ATOM     22  C   LIG    1        1.805   2.995   0.940  0.00  0.00    +0.100 A 
ATOM     23  C   LIG    1        2.999   3.507   0.451  0.00  0.00    +0.050 A 
ATOM     24  C   LIG    1        3.410   4.773   0.821  0.00  0.00    +0.030 A 
ATOM     25  C   LIG    1        2.639   5.528   1.685  0.00  0.00    +0.060 A 
ATOM     26  C   LIG    1        1.451   5.021   2.180  0.00  0.00    +0.010 A 
ATOM     27  C   LIG    1        1.031   3.756   1.809  0.00  0.00    +0.120 A 
ATOM     28  F   LIG    1       -0.129   3.260   2.292  0.00  0.00    -0.120 F 
ENDBRANCH  21  22
ENDBRANCH   1  18
TORSDOF 3
