REMARK  Name = ZINCpe000000XpLg.0
REMARK                            x       y       z     vdW  Elec       q    Type
REMARK                         _______ _______ _______ _____ _____    ______ ____
ROOT
ATOM      1  C   LIG    1       -0.013   1.086   0.008  0.00  0.00    +0.030 C 
ATOM      2  C   LIG    1       -0.729   1.579   1.267  0.00  0.00    +0.000 C 
ATOM      3  C   LIG    1        0.040   1.139   2.527  0.00  0.00    +0.260 C 
ATOM      4  N   LIG    1        0.474   2.367   3.220  0.00  0.00    -0.620 N 
ATOM      5  C   LIG    1       -0.483   3.422   2.816  0.00  0.00    +0.280 C 
ATOM      6  C   LIG    1        1.527   2.501   4.050  0.00  0.00    +0.510 C 
ATOM      7  O   LIG    1        1.770   3.577   4.554  0.00  0.00    -0.520 OA
ATOM      8  C   LIG    1       -0.730   3.125   1.313  0.00  0.00    +0.130 C 
ENDROOT
BRANCH   8   9
ATOM      9  N   LIG    1       -2.029   3.658   0.882  0.00  0.00    -0.520 NA
ATOM     10  C   LIG    1       -2.377   3.173  -0.462  0.00  0.00    +0.140 C 
ATOM     11  C   LIG    1       -3.761   3.703  -0.847  0.00  0.00    +0.220 C 
ATOM     12  O   LIG    1       -3.757   5.131  -0.770  0.00  0.00    -0.380 OA
ATOM     13  C   LIG    1       -3.423   5.637   0.525  0.00  0.00    +0.220 C 
ATOM     14  C   LIG    1       -2.036   5.127   0.924  0.00  0.00    +0.150 C 
ENDBRANCH   8   9
BRANCH   6  15
ATOM     15  C   LIG    1        2.403   1.312   4.354  0.00  0.00    +0.370 C 
BRANCH  15  16
ATOM     16  N   LIG    1        3.470   1.714   5.274  0.00  0.00    -0.600 N 
ATOM     17  C   LIG    1        3.395   1.672   6.739  0.00  0.00    +0.340 C 
ATOM     18  C   LIG    1        4.723   2.179   7.244  0.00  0.00    -0.080 A 
ATOM     19  C   LIG    1        5.242   2.367   8.504  0.00  0.00    +0.030 A 
ATOM     20  C   LIG    1        6.528   2.859   8.655  0.00  0.00    +0.040 A 
ATOM     21  C   LIG    1        7.292   3.164   7.543  0.00  0.00    +0.000 A 
ATOM     22  C   LIG    1        6.780   2.980   6.275  0.00  0.00    +0.090 A 
ATOM     23  C   LIG    1        5.485   2.483   6.114  0.00  0.00    -0.160 A 
ATOM     24  C   LIG    1        4.680   2.178   4.916  0.00  0.00    +0.570 C 
ATOM     25  O   LIG    1        5.055   2.326   3.770  0.00  0.00    -0.520 OA
ENDBRANCH  15  16
ENDBRANCH   6  15
TORSDOF 3
