REMARK  Name = ZINCpe000000XQiu.0
REMARK                            x       y       z     vdW  Elec       q    Type
REMARK                         _______ _______ _______ _____ _____    ______ ____
ROOT
ATOM      1  C   LIG    1        2.837   3.888   0.210  0.00  0.00    +0.300 C 
ENDROOT
BRANCH   1   6
ATOM      2  C   LIG    1        2.319   9.495  -1.087  0.00  0.00    +0.090 C 
ATOM      3  C   LIG    1        2.455   8.033  -0.749  0.00  0.00    -0.080 A 
ATOM      4  C   LIG    1        2.531   7.633   0.572  0.00  0.00    +0.000 A 
ATOM      5  C   LIG    1        2.655   6.292   0.882  0.00  0.00    +0.020 A 
ATOM      6  C   LIG    1        2.702   5.350  -0.128  0.00  0.00    -0.090 A 
ATOM      7  C   LIG    1        2.631   5.750  -1.450  0.00  0.00    +0.040 A 
ATOM      8  C   LIG    1        2.502   7.091  -1.760  0.00  0.00    +0.000 A 
ENDBRANCH   1   6
BRANCH   1   9
ATOM      9  N   LIG    1        3.617   3.215  -0.832  0.00  0.00    -0.700 N 
ATOM     10  H   LIG    1        3.894   3.705  -1.623  0.00  0.00    +0.410 HD
ATOM     11  C   LIG    1        3.949   1.917  -0.693  0.00  0.00    +0.590 C 
ATOM     12  O   LIG    1        3.522   1.278   0.248  0.00  0.00    -0.510 OA
BRANCH  11  13
ATOM     13  C   LIG    1        4.832   1.269  -1.687  0.00  0.00    +0.020 A 
ATOM     14  N   LIG    1        5.288   1.960  -2.707  0.00  0.00    -0.180 NA
ATOM     15  N   LIG    1        6.061   1.445  -3.593  0.00  0.00    -0.430 N 
ATOM     16  H   LIG    1        6.374   1.999  -4.326  0.00  0.00    +0.450 HD
ATOM     17  C   LIG    1        6.446   0.156  -3.537  0.00  0.00    +0.480 A 
ATOM     18  C   LIG    1        5.996  -0.659  -2.474  0.00  0.00    -0.010 A 
ATOM     19  O   LIG    1        7.178  -0.304  -4.397  0.00  0.00    -0.520 OA
ATOM     20  C   LIG    1        5.180  -0.096  -1.538  0.00  0.00    +0.140 A 
ENDBRANCH  11  13
ENDBRANCH   1   9
BRANCH   1  21
ATOM     21  C   LIG    1        1.448   3.254   0.296  0.00  0.00    +0.200 C 
BRANCH  21  22
ATOM     22  N   LIG    1        0.784   3.349  -1.011  0.00  0.00    -0.520 NA
ATOM     23  C   LIG    1       -0.667   3.154  -0.880  0.00  0.00    +0.150 C 
ATOM     24  C   LIG    1       -1.325   3.320  -2.253  0.00  0.00    +0.220 C 
ATOM     25  O   LIG    1       -0.735   2.397  -3.173  0.00  0.00    -0.380 OA
ATOM     26  C   LIG    1        0.678   2.559  -3.325  0.00  0.00    +0.210 C 
ATOM     27  C   LIG    1        1.355   2.385  -1.963  0.00  0.00    +0.130 C 
ENDBRANCH  21  22
ENDBRANCH   1  21
TORSDOF 5
