REMARK  Name = ZINCqH0000050DhT.0
REMARK                            x       y       z     vdW  Elec       q    Type
REMARK                         _______ _______ _______ _____ _____    ______ ____
ROOT
ATOM      1  C   LIG    1        0.676   3.738   0.009  0.00  0.00    -0.690 A 
ATOM      2  C   LIG    1        0.509   2.368  -0.083  0.00  0.00    +0.160 A 
ATOM      3  C   LIG    1       -0.744   1.805   0.088  0.00  0.00    +0.000 A 
ATOM      4  C   LIG    1       -1.835   2.608   0.347  0.00  0.00    +0.020 A 
ATOM      5  C   LIG    1       -1.672   3.991   0.447  0.00  0.00    -0.150 A 
ATOM      6  C   LIG    1       -3.199   1.993   0.528  0.00  0.00    +0.110 C 
ATOM      7  C   LIG    1       -0.406   4.553   0.272  0.00  0.00    +0.170 A 
ENDROOT
BRANCH   5   8
ATOM      8  C   LIG    1       -2.836   4.857   0.729  0.00  0.00    +0.560 C 
ATOM      9  N   LIG    1       -3.115   5.897  -0.082  0.00  0.00    -0.600 N 
ATOM     10  C   LIG    1       -2.340   6.116  -1.311  0.00  0.00    +0.270 C 
ATOM     11  C   LIG    1       -3.317   6.219  -2.492  0.00  0.00    +0.020 C 
ATOM     12  C   LIG    1       -4.351   7.309  -2.198  0.00  0.00    +0.020 C 
ATOM     13  C   LIG    1       -5.147   6.934  -0.946  0.00  0.00    +0.020 C 
ATOM     14  C   LIG    1       -4.195   6.836   0.250  0.00  0.00    +0.270 C 
ATOM     15  O   LIG    1       -3.542   4.631   1.693  0.00  0.00    -0.530 OA
ENDBRANCH   5   8
BRANCH   1  16
ATOM     16  S   LIG    1        2.275   4.446  -0.212  0.00  0.00    +2.690 S 
ATOM     17  O   LIG    1        3.210   3.461   0.206  0.00  0.00    -0.940 OA
ATOM     18  O   LIG    1        2.217   5.750   0.348  0.00  0.00    -0.940 OA
BRANCH  16  19
ATOM     19  N   LIG    1        2.502   4.645  -1.840  0.00  0.00    -1.050 N 
ATOM     20  H   LIG    1        3.228   4.184  -2.289  0.00  0.00    +0.430 HD
BRANCH  19  27
ATOM     21  C   LIG    1        1.833   3.886  -4.500  0.00  0.00    +0.080 C 
ATOM     22  C   LIG    1        1.295   5.146  -3.870  0.00  0.00    -0.100 A 
ATOM     23  C   LIG    1        0.451   5.970  -4.586  0.00  0.00    +0.030 A 
ATOM     24  C   LIG    1       -0.044   7.125  -4.008  0.00  0.00    +0.000 A 
ATOM     25  C   LIG    1        0.305   7.459  -2.713  0.00  0.00    +0.030 A 
ATOM     26  C   LIG    1        1.146   6.636  -1.989  0.00  0.00    -0.010 A 
ATOM     27  C   LIG    1        1.648   5.477  -2.568  0.00  0.00    +0.150 A 
ENDBRANCH  19  27
ENDBRANCH  16  19
ENDBRANCH   1  16
TORSDOF 4
