REMARK  Name = ZINCqH0000006HIq.0
REMARK                            x       y       z     vdW  Elec       q    Type
REMARK                         _______ _______ _______ _____ _____    ______ ____
ROOT
ATOM      1  C   LIG    1        0.113   6.477  -0.011  0.00  0.00    +0.560 C 
ATOM      2  N   LIG    1        1.395   6.484  -0.427  0.00  0.00    -0.660 N 
ATOM      3  H   LIG    1        1.983   5.747  -0.199  0.00  0.00    +0.410 HD
ATOM      4  O   LIG    1       -0.646   7.358  -0.364  0.00  0.00    -0.470 OA
ENDROOT
BRANCH   2   5
ATOM      5  C   LIG    1        1.877   7.554  -1.190  0.00  0.00    +0.160 A 
ATOM      6  C   LIG    1        3.178   8.017  -1.000  0.00  0.00    +0.020 A 
ATOM      7  C   LIG    1        3.660   9.056  -1.734  0.00  0.00    +0.100 A 
ATOM      8  C   LIG    1        2.851   9.688  -2.703  0.00  0.00    +0.070 A 
ATOM      9  N   LIG    1        3.156  10.720  -3.514  0.00  0.00    -0.460 NA
ATOM     10  C   LIG    1        2.257  11.136  -4.326  0.00  0.00    +0.120 A 
ATOM     11  S   LIG    1        0.785  10.191  -4.149  0.00  0.00    +0.050 S 
ATOM     12  C   LIG    1        2.437  12.274  -5.296  0.00  0.00    +0.190 C 
ATOM     13  C   LIG    1        1.546   9.221  -2.890  0.00  0.00    -0.150 A 
ATOM     14  C   LIG    1        1.065   8.152  -2.136  0.00  0.00    +0.070 A 
ENDBRANCH   2   5
BRANCH   1  17
ATOM     15  C   LIG    1       -0.701   3.058   1.314  0.00  0.00    +0.150 A 
ATOM     16  C   LIG    1       -0.248   4.063   0.482  0.00  0.00    +0.020 A 
ATOM     17  C   LIG    1       -0.368   5.399   0.875  0.00  0.00    -0.060 A 
ATOM     18  C   LIG    1       -0.947   5.712   2.107  0.00  0.00    +0.000 A 
ATOM     19  C   LIG    1       -1.396   4.704   2.933  0.00  0.00    +0.050 A 
ATOM     20  C   LIG    1       -1.282   3.377   2.540  0.00  0.00    +0.130 A 
BRANCH  18  21
ATOM     21  N   LIG    1       -1.077   7.125   2.526  0.00  0.00    +0.020 N 
ATOM     22  O   LIG    1       -0.577   8.008   1.853  0.00  0.00    -0.120 OA
ATOM     23  O   LIG    1       -1.683   7.405   3.545  0.00  0.00    -0.160 OA
ENDBRANCH  18  21
BRANCH  15  25
ATOM     24  C   LIG    1        0.016   1.503  -0.337  0.00  0.00    +0.250 C 
ATOM     25  O   LIG    1       -0.584   1.757   0.935  0.00  0.00    -0.290 OA
ENDBRANCH  15  25
BRANCH  20  26
ATOM     26  O   LIG    1       -1.732   2.389   3.355  0.00  0.00    -0.290 OA
ATOM     27  C   LIG    1       -2.317   2.786   4.596  0.00  0.00    +0.260 C 
ENDBRANCH  20  26
ENDBRANCH   1  17
TORSDOF 5
