REMARK  Name = ZINCtV00000L6kQG.0
REMARK                            x       y       z     vdW  Elec       q    Type
REMARK                         _______ _______ _______ _____ _____    ______ ____
ROOT
ATOM      1  C   LIG    1       -0.617   6.244   0.793  0.00  0.00    +0.160 C 
ATOM      2  C   LIG    1       -1.290   6.057   2.128  0.00  0.00    +0.130 A 
ATOM      3  N   LIG    1       -1.599   4.905   2.672  0.00  0.00    -0.300 NA
ATOM      4  N   LIG    1       -2.206   5.130   3.912  0.00  0.00    -0.320 N 
ATOM      5  C   LIG    1       -2.268   6.483   4.114  0.00  0.00    +0.300 A 
ATOM      6  N   LIG    1       -2.808   6.984   5.229  0.00  0.00    -0.470 NA
ATOM      7  C   LIG    1       -3.302   6.199   6.166  0.00  0.00    +0.210 A 
ATOM      8  C   LIG    1       -3.952   6.536   7.491  0.00  0.00    +0.130 C 
ATOM      9  C   LIG    1       -4.701   5.255   7.914  0.00  0.00    +0.050 C 
ATOM     10  C   LIG    1       -3.893   4.145   7.208  0.00  0.00    +0.110 C 
ATOM     11  C   LIG    1       -3.269   4.814   6.005  0.00  0.00    -0.220 A 
ATOM     12  C   LIG    1       -2.714   4.281   4.860  0.00  0.00    +0.440 A 
ATOM     13  C   LIG    1       -1.688   7.085   2.990  0.00  0.00    -0.210 A 
ENDROOT
BRANCH  13  14
ATOM     14  C   LIG    1       -1.527   8.539   2.758  0.00  0.00    +0.010 A 
ATOM     15  C   LIG    1       -2.649   9.353   2.603  0.00  0.00    +0.020 A 
ATOM     16  C   LIG    1       -2.492  10.707   2.392  0.00  0.00    +0.000 A 
ATOM     17  C   LIG    1       -1.225  11.257   2.323  0.00  0.00    +0.000 A 
ATOM     18  C   LIG    1       -0.107  10.454   2.470  0.00  0.00    +0.000 A 
ATOM     19  C   LIG    1       -0.251   9.100   2.687  0.00  0.00    +0.010 A 
ENDBRANCH  13  14
BRANCH  12  20
ATOM     20  N   LIG    1       -2.667   2.915   4.675  0.00  0.00    -0.670 N 
ATOM     21  H   LIG    1       -2.210   2.354   5.321  0.00  0.00    +0.420 HD
BRANCH  20  22
ATOM     22  C   LIG    1       -3.276   2.340   3.556  0.00  0.00    +0.190 A 
ATOM     23  C   LIG    1       -3.107   0.987   3.291  0.00  0.00    -0.040 A 
ATOM     24  C   LIG    1       -3.711   0.421   2.184  0.00  0.00    +0.050 A 
ATOM     25  C   LIG    1       -4.482   1.200   1.342  0.00  0.00    -0.110 A 
ATOM     26  C   LIG    1       -4.648   2.549   1.601  0.00  0.00    +0.050 A 
ATOM     27  C   LIG    1       -4.052   3.119   2.708  0.00  0.00    -0.040 A 
BRANCH  25  28
ATOM     28  C   LIG    1       -5.139   0.580   0.136  0.00  0.00    +0.030 C 
ATOM     29  C   LIG    1       -6.657   0.749   0.238  0.00  0.00    +0.030 C 
ATOM     30  C   LIG    1       -4.634   1.271  -1.132  0.00  0.00    +0.040 C 
ENDBRANCH  25  28
ENDBRANCH  20  22
ENDBRANCH  12  20
TORSDOF 4
