REMARK  Name = ZINCpk00000xIh2x.0
REMARK                            x       y       z     vdW  Elec       q    Type
REMARK                         _______ _______ _______ _____ _____    ______ ____
ROOT
ATOM      1  N   LIG    1        3.620   2.825   0.774  0.00  0.00    -0.460 NA
ATOM      2  C   LIG    1        2.461   2.915  -0.143  0.00  0.00    +0.210 C 
ATOM      3  C   LIG    1        2.164   1.465   0.259  0.00  0.00    +0.080 C 
ATOM      4  C   LIG    1        0.680   1.189   0.503  0.00  0.00    +0.280 C 
ATOM      5  N   LIG    1        0.535  -0.228   0.878  0.00  0.00    -0.610 N 
ATOM      6  C   LIG    1        1.210  -1.234   0.043  0.00  0.00    +0.260 C 
ATOM      7  C   LIG    1        2.685  -0.845  -0.099  0.00  0.00    +0.100 C 
ATOM      8  C   LIG    1        3.371  -1.796  -1.083  0.00  0.00    +0.080 C 
ATOM      9  C   LIG    1        3.372  -0.940   1.264  0.00  0.00    +0.040 C 
ATOM     10  C   LIG    1       -0.193  -0.592   1.952  0.00  0.00    +0.550 C 
ATOM     11  O   LIG    1       -0.742   0.254   2.628  0.00  0.00    -0.540 OA
ATOM     12  O   LIG    1        2.777   0.496  -0.589  0.00  0.00    -0.330 OA
ATOM     13  C   LIG    1        2.954   1.749   1.544  0.00  0.00    +0.160 C 
ENDROOT
BRANCH  10  14
ATOM     14  C   LIG    1       -0.326  -2.048   2.315  0.00  0.00    -0.080 C 
ATOM     15  C   LIG    1       -1.701  -2.697   2.141  0.00  0.00    +0.060 C 
ATOM     16  C   LIG    1       -1.168  -2.397   3.544  0.00  0.00    +0.070 C 
ENDBRANCH  10  14
BRANCH   1  17
ATOM     17  C   LIG    1        3.750   4.046   1.580  0.00  0.00    +0.190 C 
BRANCH  17  18
ATOM     18  C   LIG    1        5.135   4.083   2.229  0.00  0.00    -0.100 C 
ATOM     19  C   LIG    1        5.220   3.793   3.729  0.00  0.00    +0.030 C 
ATOM     20  C   LIG    1        5.424   5.219   3.213  0.00  0.00    +0.030 C 
BRANCH  18  21
ATOM     21  C   LIG    1        6.289   3.600   1.349  0.00  0.00    +0.150 C 
BRANCH  21  22
ATOM     22  C   LIG    1        6.462   4.541   0.185  0.00  0.00    +0.470 C 
ATOM     23  O   LIG    1        5.815   5.560   0.131  0.00  0.00    -0.500 OA
BRANCH  22  25
ATOM     24  C   LIG    1        7.449   5.201  -1.881  0.00  0.00    +0.260 C 
ATOM     25  O   LIG    1        7.335   4.248  -0.791  0.00  0.00    -0.360 OA
ENDBRANCH  22  25
ENDBRANCH  21  22
ENDBRANCH  18  21
ENDBRANCH  17  18
ENDBRANCH   1  17
TORSDOF 6
