REMARK  Name = ZINCvU00000009jY.0
REMARK                            x       y       z     vdW  Elec       q    Type
REMARK                         _______ _______ _______ _____ _____    ______ ____
ROOT
ATOM      1  C   LIG    1       -2.559   3.813  -0.256  0.00  0.00    +0.520 C 
ATOM      2  O   LIG    1       -2.623   5.027  -0.281  0.00  0.00    -0.500 OA
ENDROOT
BRANCH   1   3
ATOM      3  C   LIG    1       -1.248   3.146  -0.179  0.00  0.00    -0.130 A 
ATOM      4  C   LIG    1       -0.094   3.914  -0.136  0.00  0.00    +0.190 A 
ATOM      5  C   LIG    1        1.144   3.278  -0.062  0.00  0.00    -0.190 A 
ATOM      6  C   LIG    1        2.491   3.645  -0.002  0.00  0.00    +0.070 A 
ATOM      7  O   LIG    1        3.180   2.494   0.053  0.00  0.00    +0.150 OA
ATOM      8  N   LIG    1        2.478   1.509   0.037  0.00  0.00    -0.360 NA
ATOM      9  C   LIG    1        1.201   1.800  -0.032  0.00  0.00    +0.060 A 
ATOM     10  C   LIG    1       -0.011   1.075  -0.079  0.00  0.00    +0.060 A 
ATOM     11  C   LIG    1       -1.188   1.736  -0.156  0.00  0.00    +0.100 A 
BRANCH   6  12
ATOM     12  C   LIG    1        3.040   5.012  -0.000  0.00  0.00    -0.040 A 
ATOM     13  C   LIG    1        2.577   5.957  -0.921  0.00  0.00    +0.050 A 
ATOM     14  C   LIG    1        3.093   7.236  -0.910  0.00  0.00    +0.010 A 
ATOM     15  C   LIG    1        4.074   7.582   0.002  0.00  0.00    +0.040 A 
ATOM     16  C   LIG    1        4.542   6.651   0.913  0.00  0.00    +0.010 A 
ATOM     17  C   LIG    1        4.032   5.370   0.918  0.00  0.00    +0.050 A 
ENDBRANCH   6  12
ENDBRANCH   1   3
BRANCH   1  18
ATOM     18  O   LIG    1       -3.688   3.078  -0.299  0.00  0.00    -0.330 OA
BRANCH  18  19
ATOM     19  C   LIG    1       -4.944   3.803  -0.374  0.00  0.00    +0.270 C 
BRANCH  19  22
ATOM     20  N   LIG    1       -7.357   3.270  -0.484  0.00  0.00    -0.660 N 
ATOM     21  H   LIG    1       -7.534   4.223  -0.510  0.00  0.00    +0.420 HD
ATOM     22  C   LIG    1       -6.088   2.822  -0.413  0.00  0.00    +0.510 C 
ATOM     23  O   LIG    1       -5.866   1.630  -0.381  0.00  0.00    -0.440 OA
BRANCH  20  29
ATOM     24  C   LIG    1      -12.196   2.387  -0.707  0.00  0.00    +0.130 C 
ATOM     25  C   LIG    1      -10.765   1.920  -0.628  0.00  0.00    +0.010 A 
ATOM     26  C   LIG    1      -10.461   0.565  -0.589  0.00  0.00    -0.120 A 
ATOM     27  C   LIG    1       -9.138   0.171  -0.516  0.00  0.00    +0.340 A 
ATOM     28  N   LIG    1       -8.167   1.063  -0.484  0.00  0.00    -0.450 NA
ATOM     29  C   LIG    1       -8.416   2.362  -0.520  0.00  0.00    +0.390 A 
ATOM     30 CL   LIG    1      -11.729  -0.620  -0.629  0.00  0.00    -0.040 Cl
ATOM     31  C   LIG    1       -9.724   2.832  -0.588  0.00  0.00    -0.120 A 
ATOM     32 CL   LIG    1      -10.045   4.537  -0.627  0.00  0.00    -0.040 Cl
ENDBRANCH  20  29
ENDBRANCH  19  22
ENDBRANCH  18  19
ENDBRANCH   1  18
TORSDOF 6
