REMARK  Name = ZINCqH0000038gg2.0
REMARK                            x       y       z     vdW  Elec       q    Type
REMARK                         _______ _______ _______ _____ _____    ______ ____
ROOT
ATOM      1  C   LIG    1        8.553  -1.014  -0.610  0.00  0.00    +0.090 C 
ATOM      2  C   LIG    1        7.247  -0.272  -0.480  0.00  0.00    -0.100 A 
ATOM      3  C   LIG    1        6.105  -0.948  -0.095  0.00  0.00    +0.020 A 
ATOM      4  C   LIG    1        4.909  -0.268   0.023  0.00  0.00    +0.020 A 
ATOM      5  C   LIG    1        4.855   1.095  -0.240  0.00  0.00    +0.150 A 
ATOM      6  C   LIG    1        6.001   1.773  -0.630  0.00  0.00    -0.110 A 
ATOM      7  C   LIG    1        5.981   3.249  -0.925  0.00  0.00    +0.080 C 
ATOM      8  C   LIG    1        4.558   3.713  -1.238  0.00  0.00    +0.020 C 
ATOM      9  C   LIG    1        3.624   3.235  -0.118  0.00  0.00    +0.270 C 
ATOM     10  N   LIG    1        3.631   1.766  -0.125  0.00  0.00    -0.540 N 
ATOM     11  C   LIG    1        2.478   1.075  -0.016  0.00  0.00    +0.560 C 
ATOM     12  O   LIG    1        2.499  -0.140   0.014  0.00  0.00    -0.510 OA
ATOM     13  C   LIG    1        7.196   1.083  -0.747  0.00  0.00    +0.020 A 
ENDROOT
BRANCH  11  14
ATOM     14  C   LIG    1        1.190   1.795   0.068  0.00  0.00    -0.120 A 
ATOM     15  C   LIG    1        0.096   1.363  -0.683  0.00  0.00    +0.070 A 
ATOM     16  C   LIG    1       -1.102   2.043  -0.605  0.00  0.00    +0.040 A 
ATOM     17  C   LIG    1       -1.223   3.144   0.224  0.00  0.00    -0.090 A 
ATOM     18  C   LIG    1       -0.142   3.578   0.971  0.00  0.00    +0.020 A 
ATOM     19  C   LIG    1        1.063   2.910   0.898  0.00  0.00    +0.040 A 
BRANCH  17  20
ATOM     20  C   LIG    1       -2.537   3.878   0.309  0.00  0.00    +0.350 C 
BRANCH  20  21
ATOM     21  N   LIG    1       -2.572   4.936  -0.705  0.00  0.00    -0.620 N 
ATOM     22  C   LIG    1       -2.111   6.311  -0.482  0.00  0.00    +0.260 C 
ATOM     23  C   LIG    1       -1.926   6.916  -1.893  0.00  0.00    +0.040 C 
ATOM     24  C   LIG    1       -2.911   6.067  -2.729  0.00  0.00    +0.050 C 
ATOM     25  C   LIG    1       -3.035   4.772  -1.956  0.00  0.00    +0.520 C 
ATOM     26  O   LIG    1       -3.486   3.738  -2.400  0.00  0.00    -0.530 OA
ENDBRANCH  20  21
ENDBRANCH  17  20
ENDBRANCH  11  14
TORSDOF 3
