REMARK  Name = ZINCvU0000000Iap.0
REMARK                            x       y       z     vdW  Elec       q    Type
REMARK                         _______ _______ _______ _____ _____    ______ ____
ROOT
ATOM      1  C   LIG    1        0.551  -1.241  -4.735  0.00  0.00    +0.560 C 
ATOM      2  N   LIG    1        0.046  -1.446  -3.503  0.00  0.00    -0.730 N 
ATOM      3  H   LIG    1       -0.527  -2.210  -3.335  0.00  0.00    +0.400 HD
ATOM      4  O   LIG    1        1.270  -0.283  -4.946  0.00  0.00    -0.520 OA
ENDROOT
BRANCH   1  10
ATOM      5  C   LIG    1        0.750  -1.964  -7.115  0.00  0.00    +0.200 A 
ATOM      6  C   LIG    1        0.445  -2.855  -8.135  0.00  0.00    +0.010 A 
ATOM      7  C   LIG    1       -0.372  -3.939  -7.886  0.00  0.00    +0.050 A 
ATOM      8  C   LIG    1       -0.890  -4.150  -6.619  0.00  0.00    +0.010 A 
ATOM      9  C   LIG    1       -0.595  -3.279  -5.592  0.00  0.00    +0.050 A 
ATOM     10  C   LIG    1        0.231  -2.178  -5.829  0.00  0.00    -0.130 A 
BRANCH   5  12
ATOM     11  C   LIG    1        0.982   0.405  -7.794  0.00  0.00    +0.310 C 
ATOM     12  N   LIG    1        1.570  -0.867  -7.366  0.00  0.00    -0.560 N 
ATOM     13  C   LIG    1        2.905  -0.975  -7.215  0.00  0.00    +0.560 C 
ATOM     14  O   LIG    1        3.392  -2.028  -6.861  0.00  0.00    -0.530 OA
BRANCH  13  15
ATOM     15  C   LIG    1        3.792   0.212  -7.487  0.00  0.00    -0.060 C 
ATOM     16  C   LIG    1        4.714   0.142  -8.706  0.00  0.00    +0.060 C 
ATOM     17  C   LIG    1        5.299   0.026  -7.297  0.00  0.00    +0.060 C 
ENDBRANCH  13  15
ENDBRANCH   5  12
ENDBRANCH   1  10
BRANCH   2  18
ATOM     18  C   LIG    1        0.364  -0.516  -2.416  0.00  0.00    +0.260 C 
BRANCH  18  19
ATOM     19  C   LIG    1       -0.330  -0.976  -1.133  0.00  0.00    +0.040 C 
BRANCH  19  20
ATOM     20  C   LIG    1        0.002  -0.004   0.002  0.00  0.00    +0.090 C 
BRANCH  20  21
ATOM     21  C   LIG    1       -0.579  -0.521   1.293  0.00  0.00    -0.070 A 
ATOM     22  C   LIG    1        0.225  -0.654   2.409  0.00  0.00    +0.010 A 
ATOM     23  C   LIG    1       -0.309  -1.124   3.594  0.00  0.00    +0.000 A 
ATOM     24  C   LIG    1       -1.645  -1.471   3.660  0.00  0.00    +0.000 A 
ATOM     25  C   LIG    1       -2.449  -1.344   2.542  0.00  0.00    +0.000 A 
ATOM     26  C   LIG    1       -1.916  -0.869   1.359  0.00  0.00    +0.010 A 
ENDBRANCH  20  21
BRANCH  20  27
ATOM     27  C   LIG    1       -0.586   1.349  -0.307  0.00  0.00    -0.070 A 
ATOM     28  C   LIG    1       -1.922   1.462  -0.641  0.00  0.00    +0.010 A 
ATOM     29  C   LIG    1       -2.462   2.703  -0.920  0.00  0.00    +0.000 A 
ATOM     30  C   LIG    1       -1.664   3.830  -0.875  0.00  0.00    +0.000 A 
ATOM     31  C   LIG    1       -0.326   3.717  -0.545  0.00  0.00    +0.000 A 
ATOM     32  C   LIG    1        0.213   2.476  -0.262  0.00  0.00    +0.010 A 
ENDBRANCH  20  27
ENDBRANCH  19  20
ENDBRANCH  18  19
ENDBRANCH   2  18
TORSDOF 8
