REMARK  Name = ZINCrH000004qrQJ.0
REMARK                            x       y       z     vdW  Elec       q    Type
REMARK                         _______ _______ _______ _____ _____    ______ ____
ROOT
ATOM      1  C   LIG    1       -3.489  -1.117   0.976  0.00  0.00    +0.560 C 
ATOM      2  N   LIG    1       -2.408  -0.633   0.333  0.00  0.00    -0.660 N 
ATOM      3  H   LIG    1       -2.430   0.258  -0.051  0.00  0.00    +0.410 HD
ATOM      4  O   LIG    1       -3.490  -2.262   1.385  0.00  0.00    -0.500 OA
ENDROOT
BRANCH   1   8
ATOM      5  C   LIG    1       -8.107  -0.483   2.757  0.00  0.00    +0.130 C 
ATOM      6  C   LIG    1       -6.896   0.053   2.038  0.00  0.00    -0.020 A 
ATOM      7  C   LIG    1       -5.794  -0.755   1.848  0.00  0.00    +0.100 A 
ATOM      8  C   LIG    1       -4.673  -0.257   1.183  0.00  0.00    -0.080 A 
ATOM      9  C   LIG    1       -4.672   1.060   0.719  0.00  0.00    +0.060 A 
ATOM     10  C   LIG    1       -5.782   1.856   0.911  0.00  0.00    +0.110 A 
ATOM     11  C   LIG    1       -6.891   1.356   1.571  0.00  0.00    -0.030 A 
BRANCH  11  12
ATOM     12  N   LIG    1       -8.076   2.217   1.778  0.00  0.00    +0.030 N 
ATOM     13  O   LIG    1       -9.004   1.823   2.461  0.00  0.00    -0.150 OA
ATOM     14  O   LIG    1       -8.124   3.321   1.265  0.00  0.00    -0.160 OA
ENDBRANCH  11  12
ENDBRANCH   1   8
BRANCH   2  15
ATOM     15  C   LIG    1       -1.259  -1.411   0.219  0.00  0.00    +0.190 A 
ATOM     16  C   LIG    1       -1.361  -2.788   0.075  0.00  0.00    +0.030 A 
ATOM     17  C   LIG    1       -0.221  -3.558  -0.032  0.00  0.00    +0.050 A 
ATOM     18  C   LIG    1        1.031  -2.966  -0.003  0.00  0.00    +0.000 A 
ATOM     19  C   LIG    1        1.151  -1.599   0.133  0.00  0.00    +0.060 A 
ATOM     20  C   LIG    1        0.007  -0.807   0.243  0.00  0.00    -0.160 A 
BRANCH  20  21
ATOM     21  C   LIG    1        0.128   0.656   0.389  0.00  0.00    +0.560 C 
ATOM     22  N   LIG    1        0.852   1.365  -0.500  0.00  0.00    -0.600 N 
ATOM     23  C   LIG    1        1.438   0.711  -1.679  0.00  0.00    +0.260 C 
ATOM     24  C   LIG    1        0.993   1.478  -2.933  0.00  0.00    +0.010 C 
ATOM     25  C   LIG    1        1.368   2.954  -2.782  0.00  0.00    +0.020 C 
ATOM     26  C   LIG    1        0.639   3.545  -1.574  0.00  0.00    +0.020 C 
ATOM     27  C   LIG    1        1.075   2.804  -0.306  0.00  0.00    +0.270 C 
ATOM     28  O   LIG    1       -0.428   1.223   1.310  0.00  0.00    -0.530 OA
ENDBRANCH  20  21
ENDBRANCH   2  15
TORSDOF 4
