REMARK  Name = ZINCrD000000CERu.0
REMARK                            x       y       z     vdW  Elec       q    Type
REMARK                         _______ _______ _______ _____ _____    ______ ____
ROOT
ATOM      1  C   LIG    1       -1.238  -2.265   0.000  0.00  0.00    -0.030 C 
ATOM      2  C   LIG    1       -1.116  -2.766  -1.441  0.00  0.00    +0.040 C 
ATOM      3  C   LIG    1       -1.055  -4.297  -1.442  0.00  0.00    +0.270 C 
ATOM      4  N   LIG    1       -2.224  -4.817  -0.719  0.00  0.00    -0.630 N 
ATOM      5  C   LIG    1       -2.486  -4.332   0.643  0.00  0.00    +0.300 C 
ATOM      6  C   LIG    1       -3.039  -5.722  -1.295  0.00  0.00    +0.710 C 
ATOM      7  N   LIG    1       -2.847  -6.083  -2.579  0.00  0.00    -0.740 N 
ATOM      8  H   LIG    1       -2.078  -5.748  -3.067  0.00  0.00    +0.400 HD
ATOM      9  O   LIG    1       -3.950  -6.214  -0.655  0.00  0.00    -0.590 OA
ATOM     10  C   LIG    1       -2.531  -2.801   0.620  0.00  0.00    +0.040 C 
ENDROOT
BRANCH   1  12
ATOM     11  O   LIG    1       -2.325  -0.171   0.021  0.00  0.00    -0.440 OA
ATOM     12  C   LIG    1       -1.265  -0.758   0.008  0.00  0.00    +0.400 C 
BRANCH  12  13
ATOM     13  C   LIG    1       -0.003  -0.001  -0.001  0.00  0.00    -0.170 A 
ATOM     14  C   LIG    1       -0.024   1.398   0.006  0.00  0.00    +0.070 A 
ATOM     15  C   LIG    1        1.162   2.101  -0.002  0.00  0.00    +0.000 A 
ATOM     16  C   LIG    1        2.371   1.426  -0.017  0.00  0.00    +0.040 A 
ATOM     17  C   LIG    1        2.399   0.043  -0.024  0.00  0.00    +0.000 A 
ATOM     18  C   LIG    1        1.222  -0.675  -0.016  0.00  0.00    +0.060 A 
ENDBRANCH  12  13
ENDBRANCH   1  12
BRANCH   7  19
ATOM     19  C   LIG    1       -3.798  -6.981  -3.238  0.00  0.00    +0.340 C 
BRANCH  19  20
ATOM     20  C   LIG    1       -3.357  -7.225  -4.658  0.00  0.00    -0.060 A 
ATOM     21  C   LIG    1       -2.529  -8.267  -4.922  0.00  0.00    +0.050 A 
ATOM     22  C   LIG    1       -2.110  -8.505  -6.249  0.00  0.00    +0.100 A 
ATOM     23  N   LIG    1       -1.333  -9.401  -6.830  0.00  0.00    -0.300 NA
ATOM     24  N   LIG    1       -1.281  -9.135  -8.203  0.00  0.00    -0.420 N 
ATOM     25  H   LIG    1       -0.777  -9.651  -8.851  0.00  0.00    +0.450 HD
ATOM     26  C   LIG    1       -2.032  -8.063  -8.490  0.00  0.00    +0.280 A 
ATOM     27  C   LIG    1       -2.589  -7.606  -7.310  0.00  0.00    -0.210 A 
ATOM     28  C   LIG    1       -3.449  -6.543  -6.963  0.00  0.00    +0.090 A 
ATOM     29  C   LIG    1       -3.817  -6.375  -5.668  0.00  0.00    -0.010 A 
ENDBRANCH  19  20
ENDBRANCH   7  19
TORSDOF 4
