REMARK  Name = ZINCvU0000000CXr.0
REMARK                            x       y       z     vdW  Elec       q    Type
REMARK                         _______ _______ _______ _____ _____    ______ ____
ROOT
ATOM      1  N   LIG    1        1.158   3.489   0.010  0.00  0.00    -0.660 N 
ATOM      2  H   LIG    1        1.989   3.984   0.085  0.00  0.00    +0.410 HD
ATOM      3  C   LIG    1       -0.014   4.150  -0.077  0.00  0.00    +0.520 C 
ATOM      4  O   LIG    1       -1.059   3.534  -0.071  0.00  0.00    -0.510 OA
ENDROOT
BRANCH   1  10
ATOM      5  C   LIG    1        2.235   1.394   0.576  0.00  0.00    +0.110 A 
ATOM      6  C   LIG    1        2.245   0.007   0.554  0.00  0.00    +0.030 A 
ATOM      7  C   LIG    1        1.209  -0.683  -0.047  0.00  0.00    +0.000 A 
ATOM      8  C   LIG    1        0.160   0.005  -0.627  0.00  0.00    +0.040 A 
ATOM      9  C   LIG    1        0.140   1.388  -0.610  0.00  0.00    +0.020 A 
ATOM     10  C   LIG    1        1.175   2.088  -0.009  0.00  0.00    +0.150 A 
BRANCH   5  12
ATOM     11  C   LIG    1        4.456   2.483   0.398  0.00  0.00    +0.290 C 
ATOM     12  N   LIG    1        3.282   2.094   1.183  0.00  0.00    -0.590 N 
BRANCH  12  13
ATOM     13  C   LIG    1        3.209   2.422   2.539  0.00  0.00    +0.210 A 
ATOM     14  C   LIG    1        2.094   2.059   3.284  0.00  0.00    -0.060 A 
ATOM     15  C   LIG    1        2.028   2.380   4.626  0.00  0.00    +0.040 A 
ATOM     16  C   LIG    1        3.065   3.073   5.225  0.00  0.00    -0.050 A 
ATOM     17  C   LIG    1        4.173   3.441   4.484  0.00  0.00    +0.040 A 
ATOM     18  C   LIG    1        4.249   3.118   3.144  0.00  0.00    -0.070 A 
ENDBRANCH  12  13
ENDBRANCH   5  12
ENDBRANCH   1  10
BRANCH   3  19
ATOM     19  C   LIG    1       -0.026   5.653  -0.183  0.00  0.00    +0.070 C 
BRANCH  19  20
ATOM     20  C   LIG    1       -1.471   6.147  -0.268  0.00  0.00    +0.220 C 
BRANCH  20  21
ATOM     21  C   LIG    1       -1.483   7.650  -0.373  0.00  0.00    +0.200 A 
ATOM     22  N   LIG    1       -1.446   8.331  -1.484  0.00  0.00    -0.470 NA
ATOM     23  C   LIG    1       -1.475   9.640  -1.192  0.00  0.00    +0.190 A 
ATOM     24  C   LIG    1       -1.522   9.757   0.160  0.00  0.00    -0.010 A 
ATOM     25  O   LIG    1       -1.527   8.502   0.661  0.00  0.00    -0.190 OA
BRANCH  24  26
ATOM     26  C   LIG    1       -1.562  11.015   0.934  0.00  0.00    -0.060 A 
ATOM     27  C   LIG    1       -2.526  11.198   1.926  0.00  0.00    +0.080 A 
ATOM     28  C   LIG    1       -2.555  12.373   2.649  0.00  0.00    +0.010 A 
ATOM     29  C   LIG    1       -1.637  13.374   2.386  0.00  0.00    +0.060 A 
ATOM     30  C   LIG    1       -0.680  13.204   1.402  0.00  0.00    -0.010 A 
ATOM     31  C   LIG    1       -0.636  12.030   0.673  0.00  0.00    +0.130 A 
ATOM     32  F   LIG    1        0.297  11.864  -0.289  0.00  0.00    -0.130 F 
ENDBRANCH  24  26
ENDBRANCH  20  21
ENDBRANCH  19  20
ENDBRANCH   3  19
TORSDOF 7
