REMARK  Name = ZINCrD000000fKYr.0
REMARK                            x       y       z     vdW  Elec       q    Type
REMARK                         _______ _______ _______ _____ _____    ______ ____
ROOT
ATOM      1  C   LIG    1       -3.426   4.456   6.240  0.00  0.00    +0.540 C 
ATOM      2  N   LIG    1       -3.088   5.866   6.467  0.00  0.00    -0.750 N 
ATOM      3  H   LIG    1       -3.748   6.563   6.326  0.00  0.00    +0.410 HD
ATOM      4  C   LIG    1       -1.802   6.181   6.890  0.00  0.00    +0.230 A 
ATOM      5  C   LIG    1       -1.198   7.384   6.567  0.00  0.00    -0.050 A 
ATOM      6  C   LIG    1        0.087   7.643   7.006  0.00  0.00    +0.070 A 
ATOM      7  C   LIG    1        0.774   6.710   7.766  0.00  0.00    -0.040 A 
ATOM      8  C   LIG    1        0.185   5.507   8.099  0.00  0.00    +0.110 A 
ATOM      9  C   LIG    1       -1.109   5.233   7.665  0.00  0.00    -0.190 A 
ATOM     10  C   LIG    1       -1.788   3.967   7.996  0.00  0.00    +0.580 C 
ATOM     11  O   LIG    1       -1.338   3.235   8.857  0.00  0.00    -0.510 OA
ATOM     12  N   LIG    1       -2.913   3.629   7.333  0.00  0.00    -0.620 N 
ENDROOT
BRANCH   1  16
ATOM     13  C   LIG    1       -1.695   3.162   2.553  0.00  0.00    +0.150 A 
ATOM     14  C   LIG    1       -1.989   2.237   3.546  0.00  0.00    -0.020 A 
ATOM     15  C   LIG    1       -2.543   2.659   4.739  0.00  0.00    +0.050 A 
ATOM     16  C   LIG    1       -2.816   4.000   4.940  0.00  0.00    -0.140 A 
ATOM     17  C   LIG    1       -2.530   4.923   3.951  0.00  0.00    +0.060 A 
ATOM     18  C   LIG    1       -1.971   4.508   2.758  0.00  0.00    +0.020 A 
BRANCH  13  21
ATOM     19  C   LIG    1        0.458   3.019  -0.531  0.00  0.00    +0.110 C 
ATOM     20  C   LIG    1       -0.234   3.521   0.710  0.00  0.00    +0.510 C 
ATOM     21  N   LIG    1       -1.129   2.738   1.346  0.00  0.00    -0.680 N 
ATOM     22  H   LIG    1       -1.380   1.882   0.966  0.00  0.00    +0.410 HD
ATOM     23  O   LIG    1        0.015   4.628   1.138  0.00  0.00    -0.520 OA
ENDBRANCH  13  21
ENDBRANCH   1  16
BRANCH  12  24
ATOM     24  C   LIG    1       -3.635   2.413   7.714  0.00  0.00    +0.310 C 
BRANCH  24  25
ATOM     25  C   LIG    1       -4.602   2.730   8.856  0.00  0.00    +0.130 C 
ATOM     26  C   LIG    1       -5.384   1.462   9.248  0.00  0.00    +0.010 C 
ATOM     27  C   LIG    1       -5.051   1.258  10.746  0.00  0.00    +0.010 C 
ATOM     28  C   LIG    1       -4.587   2.675  11.171  0.00  0.00    +0.190 C 
ATOM     29  O   LIG    1       -3.866   3.154  10.016  0.00  0.00    -0.350 OA
ENDBRANCH  24  25
ENDBRANCH  12  24
TORSDOF 4
