REMARK  Name = ZINCuL00000003vW.0
REMARK                            x       y       z     vdW  Elec       q    Type
REMARK                         _______ _______ _______ _____ _____    ______ ____
ROOT
ATOM      1  S   LIG    1        2.667   4.070   0.001  0.00  0.00    +2.550 S 
ATOM      2  O   LIG    1        2.329   5.450   0.032  0.00  0.00    -1.040 OA
ATOM      3  O   LIG    1        3.457   3.486  -1.025  0.00  0.00    -1.020 OA
ENDROOT
BRANCH   1  12
ATOM      4  C   LIG    1       -4.347   5.397   0.064  0.00  0.00    +0.120 C 
ATOM      5  C   LIG    1       -2.898   4.984   0.052  0.00  0.00    +0.510 C 
ATOM      6  N   LIG    1       -2.569   3.677   0.056  0.00  0.00    -0.560 N 
ATOM      7  C   LIG    1       -3.529   2.570   0.071  0.00  0.00    +0.260 C 
ATOM      8  C   LIG    1       -2.672   1.293   0.069  0.00  0.00    +0.100 C 
ATOM      9  C   LIG    1       -1.245   1.792   0.047  0.00  0.00    -0.110 A 
ATOM     10  C   LIG    1       -0.046   1.107   0.044  0.00  0.00    +0.060 A 
ATOM     11  C   LIG    1        1.151   1.801   0.029  0.00  0.00    -0.000 A 
ATOM     12  C   LIG    1        1.144   3.184   0.021  0.00  0.00    -0.550 A 
ATOM     13  C   LIG    1       -0.051   3.872   0.030  0.00  0.00    +0.130 A 
ATOM     14 BR   LIG    1        2.792   0.861   0.017  0.00  0.00    +0.000 Br
ATOM     15  C   LIG    1       -1.263   3.178   0.045  0.00  0.00    +0.120 A 
ATOM     16  O   LIG    1       -2.027   5.828   0.040  0.00  0.00    -0.510 OA
ENDBRANCH   1  12
BRANCH   1  17
ATOM     17  N   LIG    1        3.441   3.747   1.429  0.00  0.00    -0.980 NA
BRANCH  17  18
ATOM     18  C   LIG    1        4.719   4.237   1.652  0.00  0.00    +0.300 A 
ATOM     19  C   LIG    1        5.308   5.096   0.732  0.00  0.00    -0.190 A 
ATOM     20  C   LIG    1        6.579   5.582   0.955  0.00  0.00    -0.030 A 
ATOM     21  C   LIG    1        7.280   5.221   2.095  0.00  0.00    -0.160 A 
ATOM     22  C   LIG    1        6.714   4.371   3.020  0.00  0.00    +0.050 A 
ATOM     23  C   LIG    1        5.424   3.873   2.812  0.00  0.00    -0.200 A 
BRANCH  20  24
ATOM     24  C   LIG    1        7.212   6.513  -0.048  0.00  0.00    -0.030 C 
ATOM     25  C   LIG    1        7.314   5.809  -1.402  0.00  0.00    +0.020 C 
ATOM     26  C   LIG    1        8.611   6.904   0.431  0.00  0.00    +0.010 C 
ATOM     27  C   LIG    1        6.351   7.770  -0.190  0.00  0.00    +0.020 C 
ENDBRANCH  20  24
BRANCH  23  28
ATOM     28  C   LIG    1        4.811   2.970   3.797  0.00  0.00    +0.530 C 
ATOM     29  O   LIG    1        3.725   2.456   3.564  0.00  0.00    -0.650 OA
ATOM     30  O   LIG    1        5.387   2.732   4.851  0.00  0.00    -0.750 OA
ENDBRANCH  23  28
ENDBRANCH  17  18
ENDBRANCH   1  17
TORSDOF 5
