REMARK  Name = ZINCkj00000hdd3C.0
REMARK                            x       y       z     vdW  Elec       q    Type
REMARK                         _______ _______ _______ _____ _____    ______ ____
ROOT
ATOM      1  C   LIG    1       -2.890   1.333   0.039  0.00  0.00    +0.240 C 
ATOM      2  C   LIG    1       -2.130   0.900  -1.219  0.00  0.00    +0.060 C 
ATOM      3  C   LIG    1       -0.719   1.490  -1.184  0.00  0.00    +0.260 C 
ATOM      4  N   LIG    1       -0.012   1.005   0.008  0.00  0.00    -0.380 N 
ATOM      5  C   LIG    1       -0.696   1.477   1.217  0.00  0.00    +0.260 C 
ATOM      6  H   LIG    1        0.002  -0.004   0.002  0.00  0.00    +0.420 HD
ATOM      7  C   LIG    1       -2.105   0.887   1.276  0.00  0.00    +0.060 C 
ENDROOT
BRANCH   4   8
ATOM      8  C   LIG    1        1.367   1.512  -0.003  0.00  0.00    +0.160 C 
ATOM      9  C   LIG    1        2.176   0.907   1.172  0.00  0.00    +0.050 C 
ATOM     10  C   LIG    1        3.640   1.020   0.676  0.00  0.00    +0.060 C 
ATOM     11  C   LIG    1        3.548   0.720  -0.828  0.00  0.00    -0.060 C 
ATOM     12  C   LIG    1        4.547   1.589  -1.608  0.00  0.00    +0.020 C 
ATOM     13  C   LIG    1        5.771   0.659  -1.816  0.00  0.00    +0.010 C 
ATOM     14  C   LIG    1        5.116  -0.723  -2.064  0.00  0.00    +0.010 C 
ATOM     15  C   LIG    1        3.903  -0.744  -1.108  0.00  0.00    +0.010 C 
ATOM     16  C   LIG    1        2.112   1.026  -1.266  0.00  0.00    +0.060 C 
ENDBRANCH   4   8
BRANCH   1  17
ATOM     17  N   LIG    1       -4.216   0.712   0.048  0.00  0.00    -1.120 NA
ATOM     18  H   LIG    1       -4.336  -0.182  -0.309  0.00  0.00    +0.430 HD
BRANCH  17  19
ATOM     19  S   LIG    1       -5.512   1.537   0.667  0.00  0.00    +2.800 S 
ATOM     20  O   LIG    1       -5.099   2.044   1.929  0.00  0.00    -0.970 OA
ATOM     21  O   LIG    1       -6.642   0.691   0.502  0.00  0.00    -0.970 OA
BRANCH  19  22
ATOM     22  N   LIG    1       -5.766   2.853  -0.305  0.00  0.00    -1.260 NA
ATOM     23  H   LIG    1       -6.489   3.469  -0.108  0.00  0.00    +0.430 HD
ATOM     24  H   LIG    1       -5.192   3.007  -1.072  0.00  0.00    +0.410 HD
ENDBRANCH  19  22
ENDBRANCH  17  19
ENDBRANCH   1  17
TORSDOF 4
