REMARK  Name = ZINCBu000000092l.1
REMARK                            x       y       z     vdW  Elec       q    Type
REMARK                         _______ _______ _______ _____ _____    ______ ____
ROOT
ATOM      1  C   LIG    1       -3.448  -0.661   5.157  0.00  0.00    +0.670 C 
ATOM      2  N   LIG    1       -3.054  -0.562   6.423  0.00  0.00    -0.630 NA
ATOM      3  C   LIG    1       -1.855  -0.065   6.709  0.00  0.00    +0.640 C 
ATOM      4  N   LIG    1       -1.048   0.329   5.729  0.00  0.00    -0.500 NA
ATOM      5  C   LIG    1       -1.444   0.235   4.463  0.00  0.00    +0.620 C 
ATOM      6  H   LIG    1       -3.642  -0.853   7.138  0.00  0.00    +0.440 HD
ATOM      7  N   LIG    1       -2.643  -0.263   4.177  0.00  0.00    -0.590 NA
ENDROOT
BRANCH   5   8
ATOM      8  N   LIG    1       -0.609   0.649   3.446  0.00  0.00    -0.420 NA
ATOM      9  C   LIG    1       -0.328   2.105   3.546  0.00  0.00    +0.240 C 
ATOM     10  C   LIG    1        0.127   2.482   2.111  0.00  0.00    +0.090 C 
ATOM     11  C   LIG    1       -0.773   1.601   1.230  0.00  0.00    -0.030 C 
ATOM     12  C   LIG    1       -0.013   1.086   0.008  0.00  0.00    +0.290 C 
ATOM     13  N   LIG    1       -0.765   1.593  -1.146  0.00  0.00    -0.740 N 
ATOM     14  H   LIG    1       -0.533   1.435  -2.075  0.00  0.00    +0.420 HD
ATOM     15  C   LIG    1       -1.865   2.337  -0.710  0.00  0.00    +0.210 A 
ATOM     16  C   LIG    1       -2.841   2.995  -1.460  0.00  0.00    -0.060 A 
ATOM     17  C   LIG    1       -3.857   3.682  -0.831  0.00  0.00    +0.070 A 
ATOM     18  C   LIG    1       -3.917   3.724   0.549  0.00  0.00    -0.050 A 
ATOM     19  C   LIG    1       -2.955   3.075   1.300  0.00  0.00    +0.050 A 
ATOM     20  C   LIG    1       -1.934   2.385   0.676  0.00  0.00    -0.180 A 
ATOM     21  C   LIG    1       -1.244   0.450   2.122  0.00  0.00    +0.270 C 
ENDBRANCH   5   8
BRANCH   3  22
ATOM     22  N   LIG    1       -1.446   0.038   8.023  0.00  0.00    -0.470 NA
ATOM     23  C   LIG    1       -1.510  -1.266   8.699  0.00  0.00    +0.190 C 
ATOM     24  C   LIG    1       -0.993  -1.117  10.132  0.00  0.00    +0.280 C 
ATOM     25  O   LIG    1       -1.760  -0.118  10.809  0.00  0.00    -0.360 OA
ATOM     26  C   LIG    1       -1.719   1.165  10.178  0.00  0.00    +0.240 C 
ATOM     27  C   LIG    1       -2.244   1.040   8.746  0.00  0.00    +0.210 C 
BRANCH  26  28
ATOM     28  C   LIG    1       -2.582   2.131  10.948  0.00  0.00    -0.050 A 
ATOM     29  C   LIG    1       -3.749   1.692  11.545  0.00  0.00    +0.030 A 
ATOM     30  C   LIG    1       -4.538   2.578  12.255  0.00  0.00    +0.130 A 
ATOM     31  C   LIG    1       -4.165   3.905  12.358  0.00  0.00    -0.650 A 
ATOM     32  C   LIG    1       -3.001   4.345  11.757  0.00  0.00    +0.130 A 
ATOM     33  C   LIG    1       -2.209   3.459  11.052  0.00  0.00    +0.020 A 
BRANCH  31  34
ATOM     34  S   LIG    1       -5.175   5.036  13.257  0.00  0.00    +2.500 S 
ATOM     35  O   LIG    1       -4.273   6.048  13.684  0.00  0.00    -0.930 OA
ATOM     36  O   LIG    1       -5.861   4.221  14.198  0.00  0.00    -0.930 OA
ATOM     37  C   LIG    1       -6.330   5.692  12.022  0.00  0.00    -0.250 C 
ENDBRANCH  31  34
ENDBRANCH  26  28
ENDBRANCH   3  22
BRANCH   1  39
ATOM     38  C   LIG    1       -5.580  -1.617   5.941  0.00  0.00    +0.340 C 
ATOM     39  N   LIG    1       -4.693  -1.177   4.861  0.00  0.00    -0.650 NA
ATOM     40  H   LIG    1       -4.981  -1.250   3.937  0.00  0.00    +0.450 HD
ENDBRANCH   1  39
TORSDOF 5
