REMARK  Name = ZINCBu000000092l.0
REMARK                            x       y       z     vdW  Elec       q    Type
REMARK                         _______ _______ _______ _____ _____    ______ ____
ROOT
ATOM      1  C   LIG    1        3.640   7.835  -2.522  0.00  0.00    +0.670 C 
ATOM      2  N   LIG    1        3.432   9.036  -3.051  0.00  0.00    -0.590 NA
ATOM      3  C   LIG    1        2.301   9.687  -2.798  0.00  0.00    +0.620 C 
ATOM      4  N   LIG    1        1.378   9.137  -2.015  0.00  0.00    -0.500 NA
ATOM      5  C   LIG    1        1.586   7.935  -1.486  0.00  0.00    +0.640 C 
ATOM      6  N   LIG    1        2.719   7.286  -1.735  0.00  0.00    -0.630 NA
ATOM      7  H   LIG    1        2.873   6.411  -1.346  0.00  0.00    +0.440 HD
ENDROOT
BRANCH   5   8
ATOM      8  N   LIG    1        0.628   7.363  -0.674  0.00  0.00    -0.450 NA
ATOM      9  C   LIG    1        1.172   7.093   0.683  0.00  0.00    +0.210 C 
ATOM     10  C   LIG    1        0.243   6.004   1.266  0.00  0.00    +0.090 C 
ATOM     11  C   LIG    1       -0.364   5.312   0.040  0.00  0.00    -0.010 C 
ATOM     12  C   LIG    1       -1.890   5.400   0.051  0.00  0.00    +0.290 C 
ATOM     13  N   LIG    1       -2.346   4.004   0.046  0.00  0.00    -0.740 N 
ATOM     14  H   LIG    1       -3.274   3.722   0.052  0.00  0.00    +0.420 HD
ATOM     15  C   LIG    1       -1.247   3.142   0.032  0.00  0.00    +0.210 A 
ATOM     16  C   LIG    1       -1.217   1.747   0.017  0.00  0.00    -0.060 A 
ATOM     17  C   LIG    1       -0.013   1.076   0.008  0.00  0.00    +0.070 A 
ATOM     18  C   LIG    1        1.176   1.781   0.000  0.00  0.00    -0.040 A 
ATOM     19  C   LIG    1        1.156   3.164   0.009  0.00  0.00    +0.050 A 
ATOM     20  C   LIG    1       -0.047   3.842   0.025  0.00  0.00    -0.190 A 
ATOM     21  C   LIG    1        0.226   6.025  -1.184  0.00  0.00    +0.220 C 
ENDBRANCH   5   8
BRANCH   3  22
ATOM     22  N   LIG    1        2.084  10.935  -3.347  0.00  0.00    -0.430 NA
ATOM     23  C   LIG    1        0.839  10.958  -4.128  0.00  0.00    +0.220 C 
ATOM     24  C   LIG    1        0.608  12.372  -4.668  0.00  0.00    +0.270 C 
ATOM     25  O   LIG    1        1.742  12.772  -5.443  0.00  0.00    -0.360 OA
ATOM     26  C   LIG    1        2.971  12.761  -4.714  0.00  0.00    +0.220 C 
ATOM     27  C   LIG    1        3.226  11.351  -4.174  0.00  0.00    +0.230 C 
BRANCH  26  28
ATOM     28  C   LIG    1        4.102  13.163  -5.625  0.00  0.00    -0.040 A 
ATOM     29  C   LIG    1        4.083  12.789  -6.956  0.00  0.00    +0.030 A 
ATOM     30  C   LIG    1        5.118  13.161  -7.793  0.00  0.00    +0.130 A 
ATOM     31  C   LIG    1        6.176  13.900  -7.298  0.00  0.00    -0.650 A 
ATOM     32  C   LIG    1        6.197  14.270  -5.966  0.00  0.00    +0.130 A 
ATOM     33  C   LIG    1        5.160  13.902  -5.130  0.00  0.00    +0.020 A 
BRANCH  31  34
ATOM     34  S   LIG    1        7.498  14.370  -8.364  0.00  0.00    +2.500 S 
ATOM     35  O   LIG    1        8.026  15.548  -7.769  0.00  0.00    -0.930 OA
ATOM     36  O   LIG    1        6.911  14.402  -9.657  0.00  0.00    -0.930 OA
ATOM     37  C   LIG    1        8.688  13.006  -8.238  0.00  0.00    -0.250 C 
ENDBRANCH  31  34
ENDBRANCH  26  28
ENDBRANCH   3  22
BRANCH   1  39
ATOM     38  C   LIG    1        5.043   5.835  -2.203  0.00  0.00    +0.340 C 
ATOM     39  N   LIG    1        4.814   7.159  -2.785  0.00  0.00    -0.650 NA
ATOM     40  H   LIG    1        5.487   7.561  -3.357  0.00  0.00    +0.450 HD
ENDBRANCH   1  39
TORSDOF 5
