REMARK  Name = ZINCtV00000tRSHa.0
REMARK                            x       y       z     vdW  Elec       q    Type
REMARK                         _______ _______ _______ _____ _____    ______ ____
ROOT
ATOM      1  C   LIG    1        0.788   0.673   7.671  0.00  0.00    +0.170 A 
ATOM      2  N   LIG    1        1.827  -0.049   7.316  0.00  0.00    -0.280 NA
ATOM      3  N   LIG    1        2.370  -0.583   8.351  0.00  0.00    -0.240 NA
ATOM      4  C   LIG    1        1.706  -0.243   9.432  0.00  0.00    +0.230 A 
ATOM      5  N   LIG    1        0.671   0.572   9.031  0.00  0.00    -0.410 N 
ENDROOT
BRANCH   4   6
ATOM      6  C   LIG    1        2.012  -0.658  10.817  0.00  0.00    -0.010 A 
ATOM      7  C   LIG    1        0.996  -1.136  11.646  0.00  0.00    +0.070 A 
ATOM      8  C   LIG    1        1.288  -1.521  12.938  0.00  0.00    +0.050 A 
ATOM      9  C   LIG    1        2.586  -1.436  13.414  0.00  0.00    -0.010 A 
ATOM     10  C   LIG    1        3.599  -0.962  12.597  0.00  0.00    +0.050 A 
ATOM     11 CL   LIG    1        2.944  -1.923  15.041  0.00  0.00    -0.050 Cl
ATOM     12  C   LIG    1        3.321  -0.579  11.300  0.00  0.00    +0.010 A 
ATOM     13 CL   LIG    1        4.593   0.007  10.275  0.00  0.00    -0.030 Cl
ENDBRANCH   4   6
BRANCH   5  14
ATOM     14  C   LIG    1       -0.299   1.173   9.845  0.00  0.00    +0.100 A 
ATOM     15  C   LIG    1        0.068   2.155  10.756  0.00  0.00    +0.040 A 
ATOM     16  C   LIG    1       -0.891   2.748  11.553  0.00  0.00    +0.040 A 
ATOM     17  C   LIG    1       -2.214   2.359  11.452  0.00  0.00    +0.040 A 
ATOM     18  C   LIG    1       -2.582   1.378  10.549  0.00  0.00    +0.040 A 
ATOM     19  C   LIG    1       -1.628   0.784   9.746  0.00  0.00    +0.030 A 
ENDBRANCH   5  14
BRANCH   1  20
ATOM     20  S   LIG    1       -0.263   1.592   6.596  0.00  0.00    +0.040 S 
BRANCH  20  21
ATOM     21  C   LIG    1        0.522   1.233   5.006  0.00  0.00    +0.070 C 
BRANCH  21  22
ATOM     22  C   LIG    1       -0.240   1.947   3.888  0.00  0.00    +0.130 C 
BRANCH  22  23
ATOM     23  C   LIG    1        0.424   1.643   2.543  0.00  0.00    +0.040 C 
ATOM     24  N   LIG    1        1.862   1.365   2.518  0.00  0.00    -0.110 NA
ATOM     25  N   LIG    1        1.131   0.371   2.382  0.00  0.00    -0.110 NA
BRANCH  23  26
ATOM     26  C   LIG    1       -0.220   2.285   1.312  0.00  0.00    +0.120 C 
BRANCH  26  27
ATOM     27  C   LIG    1        0.562   1.882   0.060  0.00  0.00    +0.160 C 
BRANCH  27  29
ATOM     28  C   LIG    1       -0.550   2.991  -2.070  0.00  0.00    +0.030 C 
ATOM     29  C   LIG    1       -0.056   2.499  -1.125  0.00  0.00    -0.190 C 
ENDBRANCH  27  29
ENDBRANCH  26  27
ENDBRANCH  23  26
ENDBRANCH  22  23
ENDBRANCH  21  22
ENDBRANCH  20  21
ENDBRANCH   1  20
TORSDOF 9
