REMARK  Name = ZINCrg000000tRPh.0
REMARK                            x       y       z     vdW  Elec       q    Type
REMARK                         _______ _______ _______ _____ _____    ______ ____
ROOT
ATOM      1  N   LIG    1        3.751   0.156  -2.458  0.00  0.00    -0.690 N 
ATOM      2  H   LIG    1        3.106   0.069  -3.177  0.00  0.00    +0.410 HD
ATOM      3  C   LIG    1        3.525   1.024  -1.452  0.00  0.00    +0.710 C 
ATOM      4  N   LIG    1        2.339   1.657  -1.362  0.00  0.00    -0.620 N 
ATOM      5  C   LIG    1        1.317   1.485  -2.403  0.00  0.00    +0.270 C 
ATOM      6  C   LIG    1        0.007   1.048  -1.740  0.00  0.00    +0.020 C 
ATOM      7  C   LIG    1       -0.369   2.055  -0.651  0.00  0.00    +0.040 C 
ATOM      8  C   LIG    1        0.726   2.086   0.418  0.00  0.00    -0.020 C 
ATOM      9  C   LIG    1        2.044   2.535  -0.221  0.00  0.00    +0.310 C 
ATOM     10  O   LIG    1        4.392   1.235  -0.625  0.00  0.00    -0.570 OA
ENDROOT
BRANCH   1  17
ATOM     11  O   LIG    1       10.243  -3.770  -3.245  0.00  0.00    -0.490 OA
ATOM     12  C   LIG    1        9.285  -3.049  -3.427  0.00  0.00    +0.540 C 
ATOM     13  C   LIG    1        9.185  -2.317  -4.738  0.00  0.00    -0.270 C 
ATOM     14  S   LIG    1        7.430  -2.183  -5.195  0.00  0.00    +2.510 S 
ATOM     15  C   LIG    1        6.659  -1.738  -3.670  0.00  0.00    -0.660 A 
ATOM     16  C   LIG    1        5.513  -0.974  -3.669  0.00  0.00    +0.130 A 
ATOM     17  C   LIG    1        4.917  -0.621  -2.465  0.00  0.00    +0.140 A 
ATOM     18  C   LIG    1        5.485  -1.037  -1.268  0.00  0.00    +0.110 A 
ATOM     19  C   LIG    1        6.628  -1.808  -1.272  0.00  0.00    +0.000 A 
ATOM     20  C   LIG    1        7.229  -2.167  -2.477  0.00  0.00    +0.220 A 
ATOM     21  O   LIG    1        7.214  -1.063  -6.044  0.00  0.00    -0.910 OA
ATOM     22  O   LIG    1        6.891  -3.460  -5.508  0.00  0.00    -0.910 OA
ATOM     23  N   LIG    1        8.380  -2.949  -2.458  0.00  0.00    -0.660 N 
ATOM     24  H   LIG    1        8.537  -3.474  -1.657  0.00  0.00    +0.420 HD
ENDBRANCH   1  17
BRANCH   8  25
ATOM     25  C   LIG    1        0.333   3.068   1.523  0.00  0.00    +0.330 C 
ATOM     26  O   LIG    1        0.197   4.388   0.970  0.00  0.00    -0.370 OA
ATOM     27  C   LIG    1        0.679   5.277   2.004  0.00  0.00    +0.210 C 
ATOM     28  C   LIG    1        1.842   4.451   2.608  0.00  0.00    +0.200 C 
ATOM     29  O   LIG    1        1.355   3.096   2.529  0.00  0.00    -0.380 OA
ENDBRANCH   8  25
TORSDOF 2
