REMARK  Name = ZINCvU00000007et.0
REMARK                            x       y       z     vdW  Elec       q    Type
REMARK                         _______ _______ _______ _____ _____    ______ ____
ROOT
ATOM      1  C   LIG    1       -1.163  -0.686   0.130  0.00  0.00    +0.560 C 
ATOM      2  N   LIG    1       -0.012   0.008   0.026  0.00  0.00    -0.670 N 
ATOM      3  H   LIG    1        0.831  -0.462  -0.068  0.00  0.00    +0.410 HD
ATOM      4  O   LIG    1       -2.227  -0.099   0.141  0.00  0.00    -0.510 OA
ENDROOT
BRANCH   1   9
ATOM      5  C   LIG    1       -1.020  -6.430   0.518  0.00  0.00    +0.110 C 
ATOM      6  C   LIG    1       -1.059  -4.927   0.416  0.00  0.00    -0.080 A 
ATOM      7  C   LIG    1        0.119  -4.213   0.310  0.00  0.00    +0.030 A 
ATOM      8  C   LIG    1        0.091  -2.836   0.217  0.00  0.00    +0.040 A 
ATOM      9  C   LIG    1       -1.130  -2.160   0.229  0.00  0.00    -0.130 A 
ATOM     10  C   LIG    1       -2.319  -2.881   0.342  0.00  0.00    +0.110 A 
ATOM     11  C   LIG    1       -2.281  -4.264   0.430  0.00  0.00    +0.130 A 
BRANCH  11  12
ATOM     12  N   LIG    1       -3.470  -4.991   0.539  0.00  0.00    -0.660 N 
ATOM     13  H   LIG    1       -3.498  -5.799   1.074  0.00  0.00    +0.420 HD
ATOM     14  C   LIG    1       -4.579  -4.569  -0.101  0.00  0.00    +0.610 C 
ATOM     15  O   LIG    1       -4.569  -3.511  -0.703  0.00  0.00    -0.490 OA
BRANCH  14  16
ATOM     16  C   LIG    1       -5.798  -5.383  -0.071  0.00  0.00    -0.090 A 
ATOM     17  C   LIG    1       -6.984  -5.075  -0.674  0.00  0.00    +0.050 A 
ATOM     18  C   LIG    1       -7.867  -6.128  -0.388  0.00  0.00    -0.060 A 
ATOM     19  C   LIG    1       -7.190  -7.021   0.366  0.00  0.00    +0.210 A 
ATOM     20  O   LIG    1       -5.942  -6.572   0.550  0.00  0.00    -0.170 OA
ENDBRANCH  14  16
ENDBRANCH  11  12
ENDBRANCH   1   9
BRANCH   2  21
ATOM     21  C   LIG    1       -0.034   1.408   0.055  0.00  0.00    +0.120 A 
ATOM     22  C   LIG    1        0.981   2.131  -0.558  0.00  0.00    +0.010 A 
ATOM     23  C   LIG    1        0.957   3.511  -0.534  0.00  0.00    -0.020 A 
ATOM     24  C   LIG    1       -0.076   4.177   0.113  0.00  0.00    +0.100 A 
ATOM     25  C   LIG    1       -1.088   3.454   0.731  0.00  0.00    +0.010 A 
ATOM     26  C   LIG    1       -1.067   2.074   0.702  0.00  0.00    +0.050 A 
BRANCH  24  27
ATOM     27  N   LIG    1       -0.097   5.575   0.142  0.00  0.00    -0.490 N 
ATOM     28  C   LIG    1       -1.357   6.094  -0.405  0.00  0.00    +0.180 C 
ATOM     29  C   LIG    1       -1.407   7.613  -0.224  0.00  0.00    +0.030 C 
ATOM     30  C   LIG    1       -0.215   8.247  -0.947  0.00  0.00    -0.030 C 
ATOM     31  C   LIG    1        1.083   7.654  -0.392  0.00  0.00    +0.030 C 
ATOM     32  C   LIG    1       -0.224   9.760  -0.720  0.00  0.00    +0.020 C 
ATOM     33  C   LIG    1        1.060   6.134  -0.568  0.00  0.00    +0.170 C 
ENDBRANCH  24  27
ENDBRANCH   2  21
TORSDOF 5
