REMARK  Name = ZINCqH0000001cEQ.0
REMARK                            x       y       z     vdW  Elec       q    Type
REMARK                         _______ _______ _______ _____ _____    ______ ____
ROOT
ATOM      1  C   LIG    1        1.151   3.592   0.010  0.00  0.00    +0.160 C 
ENDROOT
BRANCH   1   2
ATOM      2  C   LIG    1        1.171   2.086   0.002  0.00  0.00    -0.080 A 
ATOM      3  C   LIG    1       -0.017   1.378   0.010  0.00  0.00    +0.000 A 
ATOM      4  C   LIG    1        0.002  -0.004   0.002  0.00  0.00    +0.000 A 
ATOM      5  C   LIG    1        1.208  -0.679  -0.013  0.00  0.00    +0.010 A 
ATOM      6  C   LIG    1        2.396   0.029  -0.021  0.00  0.00    +0.000 A 
ATOM      7  C   LIG    1        2.377   1.411  -0.015  0.00  0.00    +0.060 A 
ENDBRANCH   1   2
BRANCH   1   8
ATOM      8  N   LIG    1        2.196   4.101  -0.888  0.00  0.00    -0.420 NA
ATOM      9  H   LIG    1        2.588   4.962  -0.536  0.00  0.00    +0.360 HD
BRANCH   8  11
ATOM     10  C   LIG    1        2.527   4.724  -3.130  0.00  0.00    +0.510 C 
ATOM     11  N   LIG    1        1.716   4.264  -2.156  0.00  0.00    -0.580 N 
ATOM     12  H   LIG    1        0.792   4.049  -2.356  0.00  0.00    +0.400 HD
ATOM     13  O   LIG    1        3.683   4.993  -2.880  0.00  0.00    -0.520 OA
BRANCH  10  14
ATOM     14  C   LIG    1        1.997   4.904  -4.529  0.00  0.00    +0.060 C 
BRANCH  14  16
ATOM     15  C   LIG    1        4.216   4.381  -5.550  0.00  0.00    +0.020 C 
ATOM     16  C   LIG    1        3.112   5.434  -5.432  0.00  0.00    +0.000 C 
ATOM     17  C   LIG    1        2.544   5.735  -6.821  0.00  0.00    +0.020 C 
ENDBRANCH  14  16
ENDBRANCH  10  14
ENDBRANCH   8  11
ENDBRANCH   1   8
BRANCH   1  18
ATOM     18  C   LIG    1        1.403   4.091   1.409  0.00  0.00    +0.430 C 
ATOM     19  O   LIG    1        2.484   4.563   1.700  0.00  0.00    -0.440 OA
BRANCH  18  20
ATOM     20  C   LIG    1        0.380   4.009   2.387  0.00  0.00    -0.270 A 
ATOM     21  C   LIG    1       -0.892   3.508   2.213  0.00  0.00    +0.320 A 
ATOM     22  N   LIG    1       -1.575   3.595   3.371  0.00  0.00    -0.560 N 
ATOM     23  H   LIG    1       -2.492   3.304   3.494  0.00  0.00    +0.420 HD
ATOM     24  C   LIG    1       -0.793   4.163   4.356  0.00  0.00    +0.070 A 
ATOM     25  C   LIG    1       -1.025   4.469   5.693  0.00  0.00    +0.000 A 
ATOM     26  C   LIG    1       -0.028   5.047   6.450  0.00  0.00    +0.030 A 
ATOM     27  C   LIG    1        1.210   5.327   5.892  0.00  0.00    +0.000 A 
ATOM     28  C   LIG    1        1.459   5.031   4.569  0.00  0.00    +0.060 A 
ATOM     29  C   LIG    1        0.461   4.448   3.794  0.00  0.00    -0.060 A 
ENDBRANCH  18  20
ENDBRANCH   1  18
TORSDOF 7
