REMARK  Name = ZINCpe00000bk7zJ.0
REMARK                            x       y       z     vdW  Elec       q    Type
REMARK                         _______ _______ _______ _____ _____    ______ ____
ROOT
ATOM      1  N   LIG    1       -0.762   1.590  -1.145  0.00  0.00    -0.720 N 
ATOM      2  H   LIG    1       -0.491   2.416  -1.577  0.00  0.00    +0.400 HD
ATOM      3  C   LIG    1       -1.829   0.908  -1.607  0.00  0.00    +0.590 C 
ATOM      4  O   LIG    1       -2.169  -0.127  -1.066  0.00  0.00    -0.510 OA
ENDROOT
BRANCH   3   5
ATOM      5  C   LIG    1       -2.582   1.415  -2.765  0.00  0.00    -0.020 A 
ATOM      6  C   LIG    1       -3.676   0.840  -3.353  0.00  0.00    -0.160 A 
ATOM      7  C   LIG    1       -4.434  -0.414  -3.014  0.00  0.00    +0.330 C 
ATOM      8  O   LIG    1       -5.692  -0.364  -3.705  0.00  0.00    -0.380 OA
ATOM      9  C   LIG    1       -5.592  -0.079  -5.101  0.00  0.00    +0.230 C 
ATOM     10  C   LIG    1       -5.208   1.393  -5.312  0.00  0.00    +0.120 C 
ATOM     11  C   LIG    1       -4.034   1.690  -4.412  0.00  0.00    +0.040 A 
ATOM     12  N   LIG    1       -3.194   2.679  -4.427  0.00  0.00    -0.250 NA
ATOM     13  N   LIG    1       -2.327   2.557  -3.480  0.00  0.00    -0.390 N 
ATOM     14  H   LIG    1       -1.605   3.178  -3.301  0.00  0.00    +0.440 HD
ENDBRANCH   3   5
BRANCH   1  23
ATOM     15  C   LIG    1        2.439   0.495  -0.019  0.00  0.00    +0.050 C 
ATOM     16  C   LIG    1        1.426   1.642  -0.003  0.00  0.00    -0.090 C 
ATOM     17  C   LIG    1        1.551   2.450   1.307  0.00  0.00    +0.280 C 
ATOM     18  N   LIG    1        0.530   1.865   2.206  0.00  0.00    -0.620 N 
ATOM     19  C   LIG    1       -0.631   1.607   1.323  0.00  0.00    +0.260 C 
ATOM     20  C   LIG    1        0.633   1.623   3.528  0.00  0.00    +0.570 C 
ATOM     21  O   LIG    1        1.659   1.893   4.115  0.00  0.00    -0.530 OA
ATOM     22  C   LIG    1        1.636   2.552  -1.214  0.00  0.00    +0.050 C 
ATOM     23  C   LIG    1       -0.013   1.086   0.008  0.00  0.00    +0.250 C 
BRANCH  20  24
ATOM     24  C   LIG    1       -0.526   1.017   4.276  0.00  0.00    -0.080 C 
ATOM     25  C   LIG    1       -0.346   0.765   5.774  0.00  0.00    +0.100 C 
ATOM     26  C   LIG    1       -0.362  -0.412   4.796  0.00  0.00    +0.190 C 
ATOM     27  F   LIG    1       -1.494  -1.235   4.793  0.00  0.00    -0.170 F 
ENDBRANCH  20  24
ENDBRANCH   1  23
TORSDOF 3
