REMARK  Name = ZINCpe00000gMQq9.0
REMARK                            x       y       z     vdW  Elec       q    Type
REMARK                         _______ _______ _______ _____ _____    ______ ____
ROOT
ATOM      1  C   LIG    1       -5.998   2.928   2.958  0.00  0.00    +0.520 C 
ATOM      2  N   LIG    1       -7.084   2.968   2.161  0.00  0.00    -0.570 N 
ATOM      3  C   LIG    1       -7.000   2.540   0.758  0.00  0.00    +0.280 C 
ATOM      4  C   LIG    1       -7.532   3.659  -0.136  0.00  0.00    +0.040 C 
ATOM      5  C   LIG    1       -8.941   4.046   0.320  0.00  0.00    -0.010 C 
ATOM      6  C   LIG    1       -8.889   4.560   1.760  0.00  0.00    +0.020 C 
ATOM      7  C   LIG    1       -8.374   3.447   2.678  0.00  0.00    +0.290 C 
ATOM      8  O   LIG    1       -6.087   3.256   4.123  0.00  0.00    -0.520 OA
ENDROOT
BRANCH   1  11
ATOM      9  N   LIG    1       -3.571   2.571   3.161  0.00  0.00    -0.620 N 
ATOM     10  H   LIG    1       -3.623   2.929   4.061  0.00  0.00    +0.420 HD
ATOM     11  C   LIG    1       -4.684   2.479   2.407  0.00  0.00    +0.520 C 
ATOM     12  O   LIG    1       -4.620   2.031   1.281  0.00  0.00    -0.470 OA
BRANCH   9  17
ATOM     13  C   LIG    1       -0.084   0.756   0.090  0.00  0.00    +0.160 C 
ATOM     14  C   LIG    1       -0.765   1.346   1.298  0.00  0.00    +0.090 A 
ATOM     15  N   LIG    1       -0.180   1.676   2.421  0.00  0.00    -0.280 NA
ATOM     16  N   LIG    1       -1.151   2.187   3.292  0.00  0.00    -0.390 N 
ATOM     17  C   LIG    1       -2.347   2.153   2.648  0.00  0.00    +0.300 A 
ATOM     18  C   LIG    1       -0.918   2.672   4.655  0.00  0.00    +0.360 C 
ATOM     19  C   LIG    1       -2.127   1.639   1.406  0.00  0.00    -0.090 A 
ENDBRANCH   9  17
ENDBRANCH   1  11
BRANCH   5  20
ATOM     20  C   LIG    1       -9.488   5.144  -0.594  0.00  0.00    +0.150 C 
BRANCH  20  21
ATOM     21  C   LIG    1       -9.655   4.600  -1.990  0.00  0.00    +0.210 A 
ATOM     22  N   LIG    1       -8.751   4.628  -2.930  0.00  0.00    -0.490 NA
ATOM     23  C   LIG    1       -9.245   4.053  -4.036  0.00  0.00    +0.140 A 
ATOM     24  C   LIG    1      -10.505   3.660  -3.774  0.00  0.00    +0.110 A 
ATOM     25  N   LIG    1      -10.766   4.007  -2.476  0.00  0.00    -0.460 N 
ATOM     26  C   LIG    1      -12.017   3.776  -1.749  0.00  0.00    +0.330 C 
ENDBRANCH  20  21
ENDBRANCH   5  20
TORSDOF 4
