REMARK  Name = ZINCpk00001AZj3d.0
REMARK                            x       y       z     vdW  Elec       q    Type
REMARK                         _______ _______ _______ _____ _____    ______ ____
ROOT
ATOM      1  C   LIG    1        6.063  -1.563  -1.593  0.00  0.00    +0.590 C 
ATOM      2  N   LIG    1        5.323  -0.772  -0.791  0.00  0.00    -0.610 N 
ATOM      3  C   LIG    1        5.437  -0.690   0.676  0.00  0.00    +0.290 C 
ATOM      4  C   LIG    1        4.054  -0.180   1.153  0.00  0.00    -0.010 C 
ATOM      5  C   LIG    1        3.687   0.822   0.027  0.00  0.00    +0.080 C 
ATOM      6  C   LIG    1        4.271   0.154  -1.235  0.00  0.00    +0.260 C 
ATOM      7  O   LIG    1        5.883  -1.548  -2.796  0.00  0.00    -0.510 OA
ENDROOT
BRANCH   1  13
ATOM      8  C   LIG    1        7.853  -3.274  -1.848  0.00  0.00    +0.140 A 
ATOM      9  C   LIG    1        8.822  -4.099  -1.281  0.00  0.00    -0.030 A 
ATOM     10  C   LIG    1        8.985  -4.076   0.093  0.00  0.00    +0.040 A 
ATOM     11  C   LIG    1        8.190  -3.237   0.860  0.00  0.00    +0.220 A 
ATOM     12  N   LIG    1        7.285  -2.463   0.303  0.00  0.00    -0.410 NA
ATOM     13  C   LIG    1        7.093  -2.450  -1.011  0.00  0.00    +0.040 A 
BRANCH   8  14
ATOM     14  O   LIG    1        7.655  -3.266  -3.190  0.00  0.00    -0.270 OA
BRANCH  14  16
ATOM     15  C   LIG    1        8.061  -5.488  -4.048  0.00  0.00    +0.030 C 
ATOM     16  C   LIG    1        8.555  -4.042  -3.983  0.00  0.00    +0.140 C 
ATOM     17  C   LIG    1        8.618  -3.461  -5.398  0.00  0.00    +0.070 C 
ENDBRANCH  14  16
ENDBRANCH   8  14
ENDBRANCH   1  13
BRANCH   5  18
ATOM     18  C   LIG    1        2.191   0.968  -0.090  0.00  0.00    -0.230 A 
ATOM     19  C   LIG    1        1.497   2.128  -0.027  0.00  0.00    +0.230 A 
ATOM     20  N   LIG    1        0.189   1.833  -0.174  0.00  0.00    -0.380 N 
ATOM     21  N   LIG    1        0.075   0.445  -0.333  0.00  0.00    -0.290 NA
ATOM     22  C   LIG    1       -0.917   2.793  -0.175  0.00  0.00    +0.360 C 
ATOM     23  C   LIG    1        1.276  -0.072  -0.282  0.00  0.00    +0.240 A 
ENDBRANCH   5  18
BRANCH   4  24
ATOM     24  C   LIG    1        4.167   0.530   2.504  0.00  0.00    +0.190 C 
BRANCH  24  25
ATOM     25  O   LIG    1        4.391  -0.437   3.533  0.00  0.00    -0.570 OA
ATOM     26  H   LIG    1        4.473  -0.057   4.418  0.00  0.00    +0.380 HD
ENDBRANCH  24  25
ENDBRANCH   4  24
TORSDOF 6
