REMARK  Name = ZINCpk000004AOw1.0
REMARK                            x       y       z     vdW  Elec       q    Type
REMARK                         _______ _______ _______ _____ _____    ______ ____
ROOT
ATOM      1  C   LIG    1        1.101  -1.892   0.756  0.00  0.00    +0.520 C 
ATOM      2  N   LIG    1        1.634  -2.622   1.755  0.00  0.00    -0.610 N 
ATOM      3  C   LIG    1        2.296  -1.965   2.891  0.00  0.00    +0.270 C 
ATOM      4  C   LIG    1        1.630  -2.451   4.189  0.00  0.00    +0.280 C 
ATOM      5  N   LIG    1        1.565  -3.919   4.160  0.00  0.00    -0.610 N 
ATOM      6  C   LIG    1        0.908  -4.577   3.022  0.00  0.00    +0.290 C 
ATOM      7  C   LIG    1        2.099  -4.649   5.160  0.00  0.00    +0.580 C 
ATOM      8  O   LIG    1        2.130  -5.862   5.077  0.00  0.00    -0.530 OA
ATOM      9  C   LIG    1        1.569  -4.090   1.727  0.00  0.00    +0.290 C 
ATOM     10  O   LIG    1        0.493  -2.441  -0.139  0.00  0.00    -0.530 OA
ENDROOT
BRANCH   1  16
ATOM     11  C   LIG    1        3.704   2.115   1.190  0.00  0.00    +0.550 C 
ATOM     12  N   LIG    1        2.855   1.421   0.407  0.00  0.00    -0.610 N 
ATOM     13  C   LIG    1        2.031   2.108  -0.598  0.00  0.00    +0.260 C 
ATOM     14  C   LIG    1        0.564   1.728  -0.376  0.00  0.00    +0.010 C 
ATOM     15  C   LIG    1        0.429   0.203  -0.389  0.00  0.00    +0.060 C 
ATOM     16  C   LIG    1        1.260  -0.394   0.749  0.00  0.00    -0.020 C 
ATOM     17  C   LIG    1        2.735  -0.037   0.540  0.00  0.00    +0.290 C 
ATOM     18  O   LIG    1        4.439   1.528   1.960  0.00  0.00    -0.540 OA
BRANCH  11  20
ATOM     19  C   LIG    1        4.654   4.262   1.802  0.00  0.00    +0.140 C 
ATOM     20  C   LIG    1        3.742   3.584   1.113  0.00  0.00    -0.090 C 
ENDBRANCH  11  20
ENDBRANCH   1  16
BRANCH   7  21
ATOM     21  C   LIG    1        2.644  -3.978   6.351  0.00  0.00    -0.170 A 
ATOM     22  C   LIG    1        3.681  -4.471   7.081  0.00  0.00    -0.010 A 
ATOM     23  S   LIG    1        4.048  -3.439   8.386  0.00  0.00    +0.200 S 
ATOM     24  C   LIG    1        2.778  -2.309   7.947  0.00  0.00    -0.060 A 
ATOM     25  C   LIG    1        2.138  -2.726   6.861  0.00  0.00    +0.040 A 
ENDBRANCH   7  21
TORSDOF 3
