REMARK  Name = ZINCqH00000078hr.0
REMARK                            x       y       z     vdW  Elec       q    Type
REMARK                         _______ _______ _______ _____ _____    ______ ____
ROOT
ATOM      1  C   LIG    1       -3.635   1.758  -0.317  0.00  0.00    +0.520 C 
ATOM      2  N   LIG    1       -2.439   1.338   0.142  0.00  0.00    -0.740 N 
ATOM      3  H   LIG    1       -2.358   0.463   0.552  0.00  0.00    +0.400 HD
ATOM      4  O   LIG    1       -3.737   2.852  -0.830  0.00  0.00    -0.510 OA
ENDROOT
BRANCH   1   5
ATOM      5  C   LIG    1       -4.845   0.868  -0.192  0.00  0.00    +0.120 C 
BRANCH   5   9
ATOM      6  C   LIG    1       -8.250   2.853  -1.848  0.00  0.00    +0.100 A 
ATOM      7  C   LIG    1       -7.938   3.010  -0.506  0.00  0.00    -0.040 A 
ATOM      8  C   LIG    1       -6.840   2.362   0.028  0.00  0.00    +0.060 A 
ATOM      9  C   LIG    1       -6.045   1.567  -0.776  0.00  0.00    -0.080 A 
ATOM     10  C   LIG    1       -6.353   1.408  -2.115  0.00  0.00    +0.040 A 
ATOM     11  C   LIG    1       -7.454   2.049  -2.654  0.00  0.00    +0.070 A 
ATOM     12  F   LIG    1       -7.754   1.893  -3.962  0.00  0.00    -0.130 F 
BRANCH   6  14
ATOM     13  C   LIG    1      -10.106   4.294  -1.486  0.00  0.00    +0.250 C 
ATOM     14  O   LIG    1       -9.333   3.484  -2.374  0.00  0.00    -0.310 OA
ENDBRANCH   6  14
ENDBRANCH   5   9
ENDBRANCH   1   5
BRANCH   2  15
ATOM     15  C   LIG    1       -1.263   2.203   0.020  0.00  0.00    +0.350 C 
BRANCH  15  16
ATOM     16  C   LIG    1       -0.016   1.356   0.009  0.00  0.00    +0.280 A 
ATOM     17  N   LIG    1        1.199   1.820   0.000  0.00  0.00    -0.470 NA
ATOM     18  C   LIG    1        2.082   0.788  -0.014  0.00  0.00    +0.050 A 
ATOM     19  C   LIG    1        3.477   0.713  -0.027  0.00  0.00    +0.070 A 
ATOM     20  C   LIG    1        4.093  -0.506  -0.039  0.00  0.00    +0.000 A 
ATOM     21  C   LIG    1        3.347  -1.676  -0.038  0.00  0.00    +0.030 A 
ATOM     22  C   LIG    1        1.969  -1.626  -0.026  0.00  0.00    +0.010 A 
ATOM     23  C   LIG    1        1.326  -0.397  -0.013  0.00  0.00    +0.050 A 
ATOM     24  N   LIG    1        0.002  -0.004   0.002  0.00  0.00    -0.600 N 
ATOM     25  H   LIG    1       -0.771  -0.590   0.006  0.00  0.00    +0.420 HD
ENDBRANCH  15  16
BRANCH  15  26
ATOM     26  C   LIG    1       -1.215   3.167   1.207  0.00  0.00    -0.020 C 
ATOM     27  C   LIG    1       -2.481   4.026   1.218  0.00  0.00    +0.030 C 
ATOM     28  C   LIG    1        0.014   4.070   1.080  0.00  0.00    +0.040 C 
ENDBRANCH  15  26
ENDBRANCH   2  15
TORSDOF 6
