REMARK  Name = ZINCnE000001Qalr.0
REMARK                            x       y       z     vdW  Elec       q    Type
REMARK                         _______ _______ _______ _____ _____    ______ ____
ROOT
ATOM      1  C   LIG    1        4.482  -4.113  -0.061  0.00  0.00    +0.510 C 
ATOM      2  N   LIG    1        3.193  -3.717  -0.047  0.00  0.00    -0.540 N 
ATOM      3  H   LIG    1        2.483  -4.378  -0.043  0.00  0.00    +0.360 HD
ATOM      4  O   LIG    1        5.370  -3.287  -0.066  0.00  0.00    -0.550 OA
ENDROOT
BRANCH   2   5
ATOM      5  N   LIG    1        2.880  -2.352  -0.037  0.00  0.00    -0.490 NA
ATOM      6  C   LIG    1        1.592  -1.956  -0.023  0.00  0.00    +0.440 C 
ATOM      7  O   LIG    1        0.701  -2.784  -0.018  0.00  0.00    -0.670 OA
BRANCH   6   8
ATOM      8  C   LIG    1        1.264  -0.528  -0.013  0.00  0.00    -0.130 A 
ATOM      9  C   LIG    1        0.002  -0.004   0.002  0.00  0.00    +0.020 A 
ATOM     10  C   LIG    1       -0.017   1.370   0.010  0.00  0.00    +0.050 A 
ATOM     11  C   LIG    1        1.189   1.954   0.001  0.00  0.00    -0.280 A 
ATOM     12 BR   LIG    1        1.474   3.824   0.007  0.00  0.00    -0.020 Br
ATOM     13  S   LIG    1        2.433   0.786  -0.017  0.00  0.00    +0.270 S 
ENDBRANCH   6   8
ENDBRANCH   2   5
BRANCH   1  14
ATOM     14  C   LIG    1        4.818  -5.582  -0.072  0.00  0.00    +0.050 C 
BRANCH  14  15
ATOM     15  C   LIG    1        6.338  -5.756  -0.088  0.00  0.00    +0.060 C 
BRANCH  15  16
ATOM     16  C   LIG    1        6.680  -7.247  -0.098  0.00  0.00    +0.180 C 
BRANCH  16  17
ATOM     17  O   LIG    1        8.100  -7.411  -0.113  0.00  0.00    -0.310 OA
BRANCH  17  23
ATOM     18  C   LIG    1       11.908 -10.463  -0.164  0.00  0.00    +0.100 C 
ATOM     19  C   LIG    1       10.422 -10.211  -0.149  0.00  0.00    -0.050 A 
ATOM     20  C   LIG    1        9.541 -11.276  -0.145  0.00  0.00    -0.050 A 
ATOM     21  C   LIG    1        8.177 -11.048  -0.132  0.00  0.00    +0.040 A 
ATOM     22  C   LIG    1        7.692  -9.755  -0.114  0.00  0.00    -0.090 A 
ATOM     23  C   LIG    1        8.575  -8.684  -0.123  0.00  0.00    +0.140 A 
ATOM     24  C   LIG    1        9.942  -8.915  -0.138  0.00  0.00    -0.030 A 
ENDBRANCH  17  23
ENDBRANCH  16  17
ENDBRANCH  15  16
ENDBRANCH  14  15
ENDBRANCH   1  14
TORSDOF 7
