REMARK  Name = ZINCrg00000aZUTj.0
REMARK                            x       y       z     vdW  Elec       q    Type
REMARK                         _______ _______ _______ _____ _____    ______ ____
ROOT
ATOM      1  C   LIG    1       -3.937   7.559   1.072  0.00  0.00    +0.490 C 
ATOM      2  N   LIG    1       -2.714   7.973   0.684  0.00  0.00    -0.610 N 
ATOM      3  C   LIG    1       -2.243   7.735  -0.686  0.00  0.00    +0.280 C 
ATOM      4  C   LIG    1       -0.889   7.021  -0.625  0.00  0.00    +0.020 C 
ATOM      5  C   LIG    1        0.075   7.838   0.238  0.00  0.00    +0.040 C 
ATOM      6  C   LIG    1       -0.478   7.947   1.661  0.00  0.00    +0.030 C 
ATOM      7  C   LIG    1       -1.827   8.671   1.625  0.00  0.00    +0.270 C 
ATOM      8  O   LIG    1       -4.696   7.069   0.263  0.00  0.00    -0.520 OA
ENDROOT
BRANCH   5   9
ATOM      9  C   LIG    1        1.439   7.145   0.273  0.00  0.00    +0.100 C 
ATOM     10  C   LIG    1        2.602   7.838  -0.441  0.00  0.00    +0.040 C 
ATOM     11  C   LIG    1        2.549   7.812   1.089  0.00  0.00    +0.040 C 
BRANCH   9  12
ATOM     12  N   LIG    1        1.405   5.681   0.247  0.00  0.00    -0.670 N 
ATOM     13  H   LIG    1        0.555   5.216   0.210  0.00  0.00    +0.410 HD
ATOM     14  C   LIG    1        2.556   4.980   0.275  0.00  0.00    +0.610 C 
ATOM     15  O   LIG    1        3.622   5.562   0.322  0.00  0.00    -0.510 OA
BRANCH  14  16
ATOM     16  C   LIG    1        2.522   3.503   0.249  0.00  0.00    +0.000 A 
ATOM     17  N   LIG    1        1.417   2.791   0.199  0.00  0.00    -0.550 NA
ATOM     18  S   LIG    1        1.806   1.281   0.186  0.00  0.00    +0.740 S 
ATOM     19  N   LIG    1        3.357   1.428   0.243  0.00  0.00    -0.580 NA
ATOM     20  C   LIG    1        3.656   2.694   0.275  0.00  0.00    +0.310 A 
ENDBRANCH  14  16
ENDBRANCH   9  12
ENDBRANCH   5   9
BRANCH   1  21
ATOM     21  C   LIG    1       -4.361   7.706   2.510  0.00  0.00    +0.170 C 
BRANCH  21  22
ATOM     22  C   LIG    1       -3.574   6.722   3.377  0.00  0.00    -0.020 C 
ATOM     23  C   LIG    1       -4.013   6.820   4.864  0.00  0.00    +0.030 C 
ATOM     24  C   LIG    1       -3.703   5.381   5.355  0.00  0.00    +0.200 C 
ATOM     25  O   LIG    1       -4.019   4.526   4.245  0.00  0.00    -0.380 OA
ATOM     26  C   LIG    1       -3.934   5.264   3.020  0.00  0.00    +0.210 C 
ENDBRANCH  21  22
BRANCH  21  28
ATOM     27  C   LIG    1       -6.594   8.578   2.465  0.00  0.00    +0.200 C 
ATOM     28  O   LIG    1       -5.759   7.429   2.626  0.00  0.00    -0.350 OA
ENDBRANCH  21  28
ENDBRANCH   1  21
TORSDOF 6
