REMARK  Name = ZINCrD000000AobM.0
REMARK                            x       y       z     vdW  Elec       q    Type
REMARK                         _______ _______ _______ _____ _____    ______ ____
ROOT
ATOM      1  O   LIG    1        4.832   2.740  -1.147  0.00  0.00    -0.520 OA
ATOM      2  C   LIG    1        3.792   2.429  -0.606  0.00  0.00    +0.510 C 
ATOM      3  N   LIG    1        3.671   1.218  -0.026  0.00  0.00    -0.660 N 
ATOM      4  H   LIG    1        2.864   0.995   0.464  0.00  0.00    +0.410 HD
ENDROOT
BRANCH   3   5
ATOM      5  C   LIG    1        4.709   0.283  -0.132  0.00  0.00    +0.110 A 
ATOM      6  C   LIG    1        4.417  -1.071  -0.226  0.00  0.00    +0.020 A 
ATOM      7  C   LIG    1        5.439  -1.992  -0.335  0.00  0.00    -0.020 A 
ATOM      8  C   LIG    1        6.761  -1.565  -0.339  0.00  0.00    +0.100 A 
ATOM      9  C   LIG    1        7.053  -0.211  -0.239  0.00  0.00    +0.010 A 
ATOM     10  C   LIG    1        6.030   0.710  -0.136  0.00  0.00    +0.050 A 
BRANCH   8  11
ATOM     11  N   LIG    1        7.797  -2.499  -0.443  0.00  0.00    -0.490 N 
ATOM     12  C   LIG    1        8.672  -2.189  -1.581  0.00  0.00    +0.180 C 
ATOM     13  C   LIG    1        9.872  -3.140  -1.577  0.00  0.00    +0.020 C 
ATOM     14  C   LIG    1        9.372  -4.584  -1.671  0.00  0.00    +0.010 C 
ATOM     15  C   LIG    1        8.425  -4.866  -0.502  0.00  0.00    +0.020 C 
ATOM     16  C   LIG    1        7.268  -3.865  -0.536  0.00  0.00    +0.180 C 
ENDBRANCH   8  11
ENDBRANCH   3   5
BRANCH   2  17
ATOM     17  C   LIG    1        2.637   3.396  -0.583  0.00  0.00    +0.320 C 
BRANCH  17  18
ATOM     18  N   LIG    1        3.018   4.630  -1.274  0.00  0.00    -0.720 N 
ATOM     19  H   LIG    1        3.905   4.717  -1.657  0.00  0.00    +0.410 HD
ATOM     20  C   LIG    1        2.139   5.646  -1.372  0.00  0.00    +0.570 C 
ATOM     21  O   LIG    1        1.027   5.537  -0.892  0.00  0.00    -0.520 OA
BRANCH  20  22
ATOM     22  C   LIG    1        2.525   6.892  -2.063  0.00  0.00    -0.190 A 
ATOM     23  C   LIG    1        3.803   7.023  -2.611  0.00  0.00    +0.130 A 
ATOM     24  C   LIG    1        4.157   8.186  -3.260  0.00  0.00    -0.020 A 
ATOM     25  C   LIG    1        3.251   9.231  -3.361  0.00  0.00    +0.160 A 
ATOM     26  C   LIG    1        1.983   9.112  -2.816  0.00  0.00    -0.040 A 
ATOM     27  F   LIG    1        3.606  10.370  -3.994  0.00  0.00    -0.120 F 
ATOM     28  C   LIG    1        1.614   7.949  -2.167  0.00  0.00    +0.200 A 
ATOM     29  F   LIG    1        0.377   7.833  -1.635  0.00  0.00    -0.100 F 
ENDBRANCH  20  22
ENDBRANCH  17  18
ENDBRANCH   2  17
TORSDOF 5
