REMARK  Name = ZINCrg00000fSheD.1
REMARK                            x       y       z     vdW  Elec       q    Type
REMARK                         _______ _______ _______ _____ _____    ______ ____
ROOT
ATOM      1  C   LIG    1        2.010  -2.892  -0.768  0.00  0.00    +0.480 C 
ATOM      2  O   LIG    1        3.002  -2.354  -1.200  0.00  0.00    -0.500 OA
ENDROOT
BRANCH   1   3
ATOM      3  O   LIG    1        1.073  -2.166  -0.139  0.00  0.00    -0.320 OA
BRANCH   3   4
ATOM      4  C   LIG    1        1.317  -0.740  -0.015  0.00  0.00    +0.200 C 
ATOM      5  C   LIG    1        2.072  -0.464   1.287  0.00  0.00    +0.080 C 
BRANCH   4   8
ATOM      6  N   LIG    1       -0.016   1.344   0.009  0.00  0.00    -0.620 N 
ATOM      7  H   LIG    1        0.817   1.840   0.004  0.00  0.00    +0.430 HD
ATOM      8  C   LIG    1        0.002  -0.004   0.002  0.00  0.00    +0.510 C 
ATOM      9  O   LIG    1       -1.040  -0.625   0.009  0.00  0.00    -0.460 OA
BRANCH   6  14
ATOM     10  C   LIG    1       -3.574   4.826   0.045  0.00  0.00    +0.160 C 
ATOM     11  C   LIG    1       -2.810   3.528   0.035  0.00  0.00    +0.040 A 
ATOM     12  N   LIG    1       -3.315   2.326   0.030  0.00  0.00    -0.360 NA
ATOM     13  O   LIG    1       -2.454   1.477   0.016  0.00  0.00    +0.110 OA
ATOM     14  C   LIG    1       -1.227   2.021   0.019  0.00  0.00    +0.210 A 
ATOM     15  C   LIG    1       -1.409   3.374   0.027  0.00  0.00    -0.090 A 
ENDBRANCH   6  14
ENDBRANCH   4   8
ENDBRANCH   3   4
ENDBRANCH   1   3
BRANCH   1  16
ATOM     16  C   LIG    1        1.825  -4.378  -0.935  0.00  0.00    +0.110 C 
BRANCH  16  17
ATOM     17  C   LIG    1        3.028  -4.961  -1.679  0.00  0.00    +0.370 C 
BRANCH  17  18
ATOM     18  N   LIG    1        2.849  -6.406  -1.842  0.00  0.00    -0.460 N 
ATOM     19  N   LIG    1        3.330  -7.283  -0.866  0.00  0.00    +0.080 NA
ATOM     20  N   LIG    1        3.199  -8.557  -0.947  0.00  0.00    -0.190 NA
ATOM     21  C   LIG    1        2.588  -9.151  -2.002  0.00  0.00    +0.060 A 
ATOM     22  C   LIG    1        2.458 -10.540  -2.080  0.00  0.00    +0.080 A 
ATOM     23  C   LIG    1        1.832 -11.107  -3.167  0.00  0.00    +0.070 A 
ATOM     24  C   LIG    1        1.327 -10.316  -4.190  0.00  0.00    +0.040 A 
ATOM     25  C   LIG    1        1.442  -8.944  -4.136  0.00  0.00    +0.100 A 
ATOM     26  C   LIG    1        2.072  -8.350  -3.045  0.00  0.00    -0.150 A 
ATOM     27  C   LIG    1        2.221  -6.890  -2.940  0.00  0.00    +0.530 A 
ATOM     28  O   LIG    1        1.798  -6.147  -3.806  0.00  0.00    -0.500 OA
ENDBRANCH  17  18
ENDBRANCH  16  17
ENDBRANCH   1  16
TORSDOF 7
