REMARK  Name = ZINCpk000000mRuW.0
REMARK                            x       y       z     vdW  Elec       q    Type
REMARK                         _______ _______ _______ _____ _____    ______ ____
ROOT
ATOM      1  N   LIG    1       -0.008   1.345   0.157  0.00  0.00    -0.730 N 
ATOM      2  H   LIG    1        0.809   1.836  -0.025  0.00  0.00    +0.400 HD
ATOM      3  C   LIG    1        0.024   0.003   0.271  0.00  0.00    +0.560 C 
ATOM      4  O   LIG    1       -1.000  -0.612   0.500  0.00  0.00    -0.510 OA
ENDROOT
BRANCH   3   5
ATOM      5  C   LIG    1        1.300  -0.721   0.117  0.00  0.00    -0.190 A 
ATOM      6  C   LIG    1        2.505  -0.021  -0.004  0.00  0.00    +0.100 A 
ATOM      7  C   LIG    1        3.676  -0.747  -0.141  0.00  0.00    -0.050 A 
ATOM      8  C   LIG    1        3.623  -2.130  -0.166  0.00  0.00    +0.290 A 
ATOM      9  N   LIG    1        2.478  -2.772  -0.056  0.00  0.00    -0.480 NA
ATOM     10  C   LIG    1        1.327  -2.128   0.084  0.00  0.00    +0.270 A 
BRANCH  10  11
ATOM     11  C   LIG    1        0.065  -2.892   0.204  0.00  0.00    -0.200 A 
ATOM     12  C   LIG    1       -0.177  -3.923   1.068  0.00  0.00    +0.270 A 
ATOM     13  N   LIG    1       -1.440  -4.339   0.862  0.00  0.00    -0.380 N 
ATOM     14  N   LIG    1       -1.999  -3.559  -0.158  0.00  0.00    -0.300 NA
ATOM     15  C   LIG    1       -2.114  -5.425   1.577  0.00  0.00    +0.360 C 
ATOM     16  C   LIG    1       -1.107  -2.693  -0.556  0.00  0.00    +0.300 A 
ENDBRANCH  10  11
ENDBRANCH   3   5
BRANCH   1  17
ATOM     17  C   LIG    1       -1.276   2.063   0.304  0.00  0.00    +0.280 C 
BRANCH  17  24
ATOM     18  C   LIG    1        1.274   7.629   1.024  0.00  0.00    +0.090 C 
ATOM     19  C   LIG    1        1.174   6.129   1.133  0.00  0.00    +0.510 C 
ATOM     20  N   LIG    1       -0.035   5.535   1.165  0.00  0.00    -0.620 N 
ATOM     21  C   LIG    1       -1.265   6.337   1.096  0.00  0.00    +0.260 C 
ATOM     22  C   LIG    1       -2.139   5.801  -0.043  0.00  0.00    +0.010 C 
ATOM     23  C   LIG    1       -2.376   4.303   0.162  0.00  0.00    +0.030 C 
ATOM     24  C   LIG    1       -1.036   3.564   0.132  0.00  0.00    -0.030 C 
ATOM     25  C   LIG    1       -0.149   4.074   1.272  0.00  0.00    +0.270 C 
ATOM     26  O   LIG    1        2.182   5.457   1.191  0.00  0.00    -0.550 OA
ENDBRANCH  17  24
ENDBRANCH   1  17
TORSDOF 4
