REMARK  Name = ZINCvU00000004rH.0
REMARK                            x       y       z     vdW  Elec       q    Type
REMARK                         _______ _______ _______ _____ _____    ______ ____
ROOT
ATOM      1  C   LIG    1        1.722   3.209   0.003  0.00  0.00    +0.600 C 
ATOM      2  N   LIG    1        3.038   3.485   0.093  0.00  0.00    -0.610 N 
ATOM      3  C   LIG    1        4.045   2.414   0.093  0.00  0.00    +0.320 C 
ATOM      4  C   LIG    1        5.078   2.709   1.145  0.00  0.00    -0.050 C 
ATOM      5  C   LIG    1        5.164   3.862   1.772  0.00  0.00    -0.030 C 
ATOM      6  C   LIG    1        4.243   5.022   1.538  0.00  0.00    +0.060 C 
ATOM      7  C   LIG    1        3.525   4.872   0.189  0.00  0.00    +0.280 C 
ATOM      8  O   LIG    1        0.916   4.115  -0.090  0.00  0.00    -0.550 OA
ENDROOT
BRANCH   5   9
ATOM      9  C   LIG    1        6.236   4.024   2.769  0.00  0.00    -0.190 A 
ATOM     10  C   LIG    1        7.605   4.038   2.543  0.00  0.00    +0.240 A 
ATOM     11  N   LIG    1        8.245   4.211   3.694  0.00  0.00    -0.550 NA
ATOM     12  C   LIG    1        7.414   4.309   4.719  0.00  0.00    +0.260 A 
ATOM     13  N   LIG    1        7.599   4.484   6.067  0.00  0.00    -0.500 N 
ATOM     14  H   LIG    1        8.499   4.560   6.421  0.00  0.00    +0.420 HD
ATOM     15  C   LIG    1        6.550   4.551   6.902  0.00  0.00    +0.330 A 
ATOM     16  C   LIG    1        5.269   4.449   6.452  0.00  0.00    -0.080 A 
ATOM     17  C   LIG    1        5.014   4.271   5.095  0.00  0.00    +0.180 A 
ATOM     18  C   LIG    1        6.089   4.200   4.218  0.00  0.00    -0.160 A 
ENDBRANCH   5   9
BRANCH   1  22
ATOM     19  C   LIG    1        1.552  -1.863  -0.524  0.00  0.00    +0.120 C 
ATOM     20  C   LIG    1        1.205  -0.428  -0.223  0.00  0.00    +0.030 A 
ATOM     21  C   LIG    1        2.015   0.629  -0.411  0.00  0.00    -0.010 A 
ATOM     22  C   LIG    1        1.260   1.811   0.018  0.00  0.00    -0.220 A 
ATOM     23  C   LIG    1        0.040   1.353   0.433  0.00  0.00    +0.120 A 
ATOM     24  C   LIG    1       -1.088   2.202   0.960  0.00  0.00    +0.150 C 
ATOM     25  N   LIG    1        0.016   0.013   0.285  0.00  0.00    -0.400 N 
BRANCH  25  26
ATOM     26  C   LIG    1       -1.073  -0.810   0.607  0.00  0.00    +0.070 A 
ATOM     27  C   LIG    1       -2.044  -1.083  -0.346  0.00  0.00    +0.070 A 
ATOM     28  C   LIG    1       -3.113  -1.899  -0.029  0.00  0.00    +0.020 A 
ATOM     29  C   LIG    1       -3.223  -2.435   1.241  0.00  0.00    +0.070 A 
ATOM     30  C   LIG    1       -2.262  -2.161   2.196  0.00  0.00    +0.000 A 
ATOM     31  C   LIG    1       -1.186  -1.350   1.884  0.00  0.00    +0.120 A 
ATOM     32  F   LIG    1       -0.247  -1.082   2.817  0.00  0.00    -0.130 F 
ENDBRANCH  25  26
ENDBRANCH   1  22
TORSDOF 3
