REMARK  Name = ZINCvU00000004rH.1
REMARK                            x       y       z     vdW  Elec       q    Type
REMARK                         _______ _______ _______ _____ _____    ______ ____
ROOT
ATOM      1  C   LIG    1        1.725   3.196   0.002  0.00  0.00    +0.600 C 
ATOM      2  N   LIG    1        3.039   3.482   0.093  0.00  0.00    -0.610 N 
ATOM      3  C   LIG    1        4.056   2.420   0.082  0.00  0.00    +0.330 C 
ATOM      4  C   LIG    1        5.088   2.715   1.134  0.00  0.00    -0.040 C 
ATOM      5  C   LIG    1        5.166   3.861   1.770  0.00  0.00    -0.040 C 
ATOM      6  C   LIG    1        4.235   5.016   1.549  0.00  0.00    +0.070 C 
ATOM      7  C   LIG    1        3.514   4.872   0.201  0.00  0.00    +0.280 C 
ATOM      8  O   LIG    1        0.910   4.095  -0.064  0.00  0.00    -0.540 OA
ENDROOT
BRANCH   5   9
ATOM      9  C   LIG    1        6.241   4.023   2.767  0.00  0.00    -0.140 A 
ATOM     10  C   LIG    1        7.381   4.746   2.622  0.00  0.00    +0.260 A 
ATOM     11  N   LIG    1        8.131   4.658   3.760  0.00  0.00    -0.580 N 
ATOM     12  H   LIG    1        8.988   5.091   3.894  0.00  0.00    +0.420 HD
ATOM     13  C   LIG    1        7.497   3.867   4.690  0.00  0.00    +0.280 A 
ATOM     14  N   LIG    1        7.814   3.487   5.921  0.00  0.00    -0.500 NA
ATOM     15  C   LIG    1        7.024   2.708   6.630  0.00  0.00    +0.300 A 
ATOM     16  C   LIG    1        5.820   2.245   6.125  0.00  0.00    -0.060 A 
ATOM     17  C   LIG    1        5.436   2.608   4.846  0.00  0.00    +0.100 A 
ATOM     18  C   LIG    1        6.286   3.439   4.117  0.00  0.00    -0.140 A 
ENDBRANCH   5   9
BRANCH   1  22
ATOM     19  C   LIG    1        1.402  -1.794  -1.018  0.00  0.00    +0.120 C 
ATOM     20  C   LIG    1        1.152  -0.408  -0.482  0.00  0.00    +0.030 A 
ATOM     21  C   LIG    1        1.890   0.683  -0.756  0.00  0.00    -0.010 A 
ATOM     22  C   LIG    1        1.277   1.793  -0.018  0.00  0.00    -0.220 A 
ATOM     23  C   LIG    1        0.205   1.263   0.647  0.00  0.00    +0.110 A 
ATOM     24  C   LIG    1       -0.742   2.023   1.538  0.00  0.00    +0.140 C 
ATOM     25  N   LIG    1        0.138  -0.054   0.363  0.00  0.00    -0.400 N 
BRANCH  25  26
ATOM     26  C   LIG    1       -0.833  -0.933   0.864  0.00  0.00    +0.070 A 
ATOM     27  C   LIG    1       -2.020  -1.126   0.171  0.00  0.00    +0.070 A 
ATOM     28  C   LIG    1       -2.972  -1.997   0.663  0.00  0.00    +0.020 A 
ATOM     29  C   LIG    1       -2.750  -2.669   1.851  0.00  0.00    +0.070 A 
ATOM     30  C   LIG    1       -1.572  -2.476   2.549  0.00  0.00    +0.000 A 
ATOM     31  C   LIG    1       -0.611  -1.609   2.059  0.00  0.00    +0.120 A 
ATOM     32  F   LIG    1        0.540  -1.420   2.740  0.00  0.00    -0.130 F 
ENDBRANCH  25  26
ENDBRANCH   1  22
TORSDOF 3
