REMARK  Name = ZINCrg000000rqP2.0
REMARK                            x       y       z     vdW  Elec       q    Type
REMARK                         _______ _______ _______ _____ _____    ______ ____
ROOT
ATOM      1  N   LIG    1        1.626   3.453  -3.225  0.00  0.00    -0.700 N 
ATOM      2  H   LIG    1        1.933   3.839  -2.390  0.00  0.00    +0.410 HD
ATOM      3  C   LIG    1        1.005   4.227  -4.137  0.00  0.00    +0.560 C 
ATOM      4  O   LIG    1        0.620   3.743  -5.184  0.00  0.00    -0.550 OA
ENDROOT
BRANCH   3   5
ATOM      5  C   LIG    1        0.791   5.661  -3.864  0.00  0.00    -0.150 A 
ATOM      6  C   LIG    1        1.228   6.218  -2.659  0.00  0.00    +0.070 A 
ATOM      7  C   LIG    1        1.032   7.557  -2.410  0.00  0.00    -0.030 A 
ATOM      8  C   LIG    1        0.390   8.355  -3.353  0.00  0.00    +0.190 A 
ATOM      9  C   LIG    1       -0.051   7.803  -4.552  0.00  0.00    +0.020 A 
ATOM     10  C   LIG    1        0.147   6.465  -4.809  0.00  0.00    +0.100 A 
BRANCH   8  11
ATOM     11  N   LIG    1        0.189   9.709  -3.096  0.00  0.00    -0.640 N 
ATOM     12  H   LIG    1        0.860  10.216  -2.613  0.00  0.00    +0.430 HD
BRANCH  11  13
ATOM     13  C   LIG    1       -0.971  10.331  -3.530  0.00  0.00    +0.550 A 
ATOM     14  N   LIG    1       -1.925   9.603  -4.091  0.00  0.00    -0.550 NA
ATOM     15  C   LIG    1       -3.046  10.165  -4.512  0.00  0.00    +0.360 A 
ATOM     16  C   LIG    1       -3.210  11.534  -4.369  0.00  0.00    -0.130 A 
ATOM     17  C   LIG    1       -2.190  12.267  -3.783  0.00  0.00    +0.360 A 
ATOM     18  N   LIG    1       -1.097  11.641  -3.379  0.00  0.00    -0.560 NA
ENDBRANCH  11  13
ENDBRANCH   8  11
ENDBRANCH   3   5
BRANCH   1  19
ATOM     19  C   LIG    1        1.838   2.029  -3.495  0.00  0.00    +0.250 C 
BRANCH  19  25
ATOM     20  C   LIG    1        4.157  -1.553  -3.902  0.00  0.00    +0.050 C 
ATOM     21  C   LIG    1        3.789  -0.094  -3.624  0.00  0.00    +0.100 C 
ATOM     22  C   LIG    1        5.035   0.669  -3.166  0.00  0.00    +0.230 C 
ATOM     23  O   LIG    1        4.671   2.012  -2.836  0.00  0.00    -0.380 OA
ATOM     24  C   LIG    1        3.681   2.103  -1.808  0.00  0.00    +0.240 C 
ATOM     25  C   LIG    1        2.421   1.355  -2.252  0.00  0.00    +0.070 C 
ATOM     26  N   LIG    1        2.770  -0.038  -2.566  0.00  0.00    -0.510 NA
ATOM     27  C   LIG    1        1.577  -0.808  -2.942  0.00  0.00    +0.200 C 
BRANCH  25  28
ATOM     28  C   LIG    1        1.387   1.381  -1.124  0.00  0.00    +0.210 C 
BRANCH  28  29
ATOM     29  O   LIG    1        1.052   2.736  -0.816  0.00  0.00    -0.570 OA
ATOM     30  H   LIG    1        0.400   2.828  -0.108  0.00  0.00    +0.390 HD
ENDBRANCH  28  29
ENDBRANCH  25  28
ENDBRANCH  19  25
ENDBRANCH   1  19
TORSDOF 7
