REMARK  Name = ZINCkj000005eEqh.1
REMARK                            x       y       z     vdW  Elec       q    Type
REMARK                         _______ _______ _______ _____ _____    ______ ____
ROOT
ATOM      1  N   LIG    1        1.272   1.982   0.060  0.00  0.00    -0.370 N 
ATOM      2  C   LIG    1        1.825   2.175  -1.300  0.00  0.00    +0.260 C 
ATOM      3  C   LIG    1        1.333   1.113  -2.296  0.00  0.00    +0.090 C 
ATOM      4  C   LIG    1        1.311  -0.273  -1.703  0.00  0.00    +0.230 C 
ATOM      5  N   LIG    1       -0.037  -0.521  -1.137  0.00  0.00    -0.450 N 
ATOM      6  C   LIG    1       -0.240   0.089   0.105  0.00  0.00    +0.230 C 
ATOM      7  C   LIG    1       -0.128   1.623   0.035  0.00  0.00    +0.300 C 
ATOM      8  H   LIG    1        1.790   1.250   0.523  0.00  0.00    +0.420 HD
ENDROOT
BRANCH   5   9
ATOM      9  C   LIG    1       -0.307  -1.879  -1.073  0.00  0.00    +0.200 A 
ATOM     10  N   LIG    1       -0.206  -2.704  -2.069  0.00  0.00    -0.480 NA
ATOM     11  C   LIG    1       -0.503  -3.969  -1.829  0.00  0.00    +0.250 A 
ATOM     12  C   LIG    1       -0.872  -4.223  -0.573  0.00  0.00    -0.060 A 
ATOM     13  S   LIG    1       -0.814  -2.712   0.331  0.00  0.00    +0.110 S 
ENDBRANCH   5   9
BRANCH   1  14
ATOM     14  C   LIG    1        1.431   3.229   0.820  0.00  0.00    +0.170 C 
ATOM     15  C   LIG    1        0.504   4.300   0.242  0.00  0.00    +0.120 C 
BRANCH  14  18
ATOM     16  N   LIG    1        1.150   3.994   3.155  0.00  0.00    -0.700 N 
ATOM     17  H   LIG    1        1.429   4.877   2.867  0.00  0.00    +0.410 HD
ATOM     18  C   LIG    1        1.077   2.985   2.264  0.00  0.00    +0.500 C 
ATOM     19  O   LIG    1        0.728   1.881   2.625  0.00  0.00    -0.520 OA
BRANCH  16  20
ATOM     20  C   LIG    1        0.806   3.756   4.560  0.00  0.00    +0.320 C 
BRANCH  20  22
ATOM     21  C   LIG    1       -0.032   5.506   6.042  0.00  0.00    +0.070 C 
ATOM     22  C   LIG    1        0.969   5.036   5.340  0.00  0.00    -0.080 C 
ENDBRANCH  20  22
ENDBRANCH  16  20
ENDBRANCH  14  18
ENDBRANCH   1  14
TORSDOF 5
