REMARK  Name = ZINCkj000005eEqh.2
REMARK                            x       y       z     vdW  Elec       q    Type
REMARK                         _______ _______ _______ _____ _____    ______ ____
ROOT
ATOM      1  N   LIG    1       -0.518   3.033   1.272  0.00  0.00    -0.350 N 
ATOM      2  C   LIG    1       -1.073   3.572   0.106  0.00  0.00    +0.230 C 
ATOM      3  C   LIG    1       -0.826   5.092   0.004  0.00  0.00    +0.100 C 
ATOM      4  C   LIG    1       -1.780   5.807   0.927  0.00  0.00    +0.210 C 
ATOM      5  N   LIG    1       -1.202   6.052   2.269  0.00  0.00    -0.450 N 
ATOM      6  C   LIG    1       -0.427   4.909   2.798  0.00  0.00    +0.290 C 
ATOM      7  C   LIG    1       -1.106   3.593   2.505  0.00  0.00    +0.250 C 
ATOM      8  H   LIG    1        0.474   3.216   1.274  0.00  0.00    +0.430 HD
ENDROOT
BRANCH   5   9
ATOM      9  C   LIG    1       -2.181   6.447   3.167  0.00  0.00    +0.190 A 
ATOM     10  N   LIG    1       -2.443   5.853   4.289  0.00  0.00    -0.510 NA
ATOM     11  C   LIG    1       -3.411   6.369   5.026  0.00  0.00    +0.240 A 
ATOM     12  C   LIG    1       -3.999   7.442   4.497  0.00  0.00    -0.080 A 
ATOM     13  S   LIG    1       -3.225   7.785   2.952  0.00  0.00    +0.180 S 
ENDBRANCH   5   9
BRANCH   1  14
ATOM     14  C   LIG    1       -0.729   1.579   1.267  0.00  0.00    +0.170 C 
ATOM     15  C   LIG    1       -2.212   1.280   1.041  0.00  0.00    +0.110 C 
BRANCH  14  18
ATOM     16  N   LIG    1        0.125  -0.382   0.025  0.00  0.00    -0.700 N 
ATOM     17  H   LIG    1       -0.368  -0.947   0.640  0.00  0.00    +0.410 HD
ATOM     18  C   LIG    1        0.083   0.958   0.160  0.00  0.00    +0.500 C 
ATOM     19  O   LIG    1        0.700   1.664  -0.610  0.00  0.00    -0.520 OA
BRANCH  16  20
ATOM     20  C   LIG    1        0.914  -0.986  -1.051  0.00  0.00    +0.310 C 
BRANCH  20  22
ATOM     21  C   LIG    1        0.391  -3.161  -2.031  0.00  0.00    +0.070 C 
ATOM     22  C   LIG    1        0.793  -2.487  -0.982  0.00  0.00    -0.080 C 
ENDBRANCH  20  22
ENDBRANCH  16  20
ENDBRANCH  14  18
ENDBRANCH   1  14
TORSDOF 5
