REMARK  Name = ZINCfA000001o9Bu.1
REMARK                            x       y       z     vdW  Elec       q    Type
REMARK                         _______ _______ _______ _____ _____    ______ ____
ROOT
ATOM      1  N   LIG    1        0.138   0.613  -0.151  0.00  0.00    -0.380 N 
ATOM      2  H   LIG    1       -0.165  -0.336  -0.316  0.00  0.00    +0.430 HD
ENDROOT
BRANCH   1   4
ATOM      3  C   LIG    1       -1.202   1.435  -2.028  0.00  0.00    +0.090 C 
ATOM      4  C   LIG    1        0.202   1.335  -1.428  0.00  0.00    +0.160 C 
ATOM      5  C   LIG    1        0.756   2.742  -1.191  0.00  0.00    +0.090 C 
ENDBRANCH   1   4
BRANCH   1   6
ATOM      6  C   LIG    1        1.469   0.600   0.471  0.00  0.00    +0.290 C 
BRANCH   6   7
ATOM      7  C   LIG    1        2.429  -0.220  -0.394  0.00  0.00    -0.090 C 
ATOM      8  C   LIG    1        3.108  -1.427   0.255  0.00  0.00    +0.060 C 
ATOM      9  C   LIG    1        3.917  -0.163  -0.045  0.00  0.00    +0.000 C 
ATOM     10  C   LIG    1        4.916  -0.222  -1.203  0.00  0.00    +0.070 C 
ENDBRANCH   6   7
ENDBRANCH   1   6
BRANCH   1  11
ATOM     11  C   LIG    1       -0.815   1.283   0.744  0.00  0.00    +0.370 C 
BRANCH  11  12
ATOM     12  C   LIG    1       -2.185   0.686   0.557  0.00  0.00    -0.340 A 
ATOM     13  C   LIG    1       -2.639  -0.436   1.124  0.00  0.00    +0.280 A 
ATOM     14  N   LIG    1       -3.879  -0.747   0.804  0.00  0.00    -0.480 NA
ATOM     15  C   LIG    1       -4.493   0.044  -0.009  0.00  0.00    +0.260 A 
ATOM     16  S   LIG    1       -3.471   1.340  -0.455  0.00  0.00    +0.190 S 
ENDBRANCH  11  12
ENDBRANCH   1  11
TORSDOF 5
