REMARK  Name = ZINCfA000001o9Bu.0
REMARK                            x       y       z     vdW  Elec       q    Type
REMARK                         _______ _______ _______ _____ _____    ______ ____
ROOT
ATOM      1  N   LIG    1        1.655   5.448   1.028  0.00  0.00    -0.380 N 
ATOM      2  H   LIG    1        2.375   4.865   1.429  0.00  0.00    +0.420 HD
ENDROOT
BRANCH   1   4
ATOM      3  C   LIG    1        0.525   5.333   3.198  0.00  0.00    +0.090 C 
ATOM      4  C   LIG    1        0.373   5.163   1.685  0.00  0.00    +0.150 C 
ATOM      5  C   LIG    1       -0.692   6.132   1.167  0.00  0.00    +0.100 C 
ENDBRANCH   1   4
BRANCH   1   6
ATOM      6  C   LIG    1        2.003   6.862   1.226  0.00  0.00    +0.290 C 
BRANCH   6   7
ATOM      7  C   LIG    1        2.339   7.102   2.700  0.00  0.00    -0.080 C 
ATOM      8  C   LIG    1        1.588   8.223   3.421  0.00  0.00    +0.050 C 
ATOM      9  C   LIG    1        3.063   8.402   3.056  0.00  0.00    +0.000 C 
ATOM     10  C   LIG    1        4.084   8.353   4.194  0.00  0.00    +0.070 C 
ENDBRANCH   6   7
ENDBRANCH   1   6
BRANCH   1  11
ATOM     11  C   LIG    1        1.542   5.169  -0.410  0.00  0.00    +0.370 C 
BRANCH  11  12
ATOM     12  C   LIG    1        1.283   3.699  -0.617  0.00  0.00    -0.330 A 
ATOM     13  C   LIG    1        0.083   3.111  -0.659  0.00  0.00    +0.280 A 
ATOM     14  N   LIG    1        0.120   1.808  -0.857  0.00  0.00    -0.470 NA
ATOM     15  C   LIG    1        1.284   1.264  -0.975  0.00  0.00    +0.270 A 
ATOM     16  S   LIG    1        2.506   2.452  -0.845  0.00  0.00    +0.180 S 
ENDBRANCH  11  12
ENDBRANCH   1  11
TORSDOF 5
