REMARK  Name = ZINCrD0000071p85.0
REMARK                            x       y       z     vdW  Elec       q    Type
REMARK                         _______ _______ _______ _____ _____    ______ ____
ROOT
ATOM      1  S   LIG    1       -1.032  10.236   1.188  0.00  0.00    +0.170 S 
ENDROOT
BRANCH   1   2
ATOM      2  C   LIG    1       -1.980  11.581   0.559  0.00  0.00    +0.120 A 
ATOM      3  N   LIG    1       -3.057  11.491  -0.187  0.00  0.00    -0.280 NA
ATOM      4  N   LIG    1       -3.490  12.671  -0.459  0.00  0.00    -0.260 NA
ATOM      5  C   LIG    1       -2.703  13.562   0.093  0.00  0.00    +0.220 A 
ATOM      6  O   LIG    1       -1.731  12.891   0.750  0.00  0.00    -0.200 OA
BRANCH   5   7
ATOM      7  C   LIG    1       -2.852  15.030   0.014  0.00  0.00    -0.020 A 
ATOM      8  C   LIG    1       -1.934  15.862   0.657  0.00  0.00    +0.080 A 
ATOM      9  C   LIG    1       -2.075  17.232   0.581  0.00  0.00    +0.050 A 
ATOM     10  C   LIG    1       -3.127  17.788  -0.132  0.00  0.00    +0.060 A 
ATOM     11  O   LIG    1       -3.479  19.088  -0.353  0.00  0.00    -0.300 OA
ATOM     12  C   LIG    1       -4.850  19.046  -0.793  0.00  0.00    +0.440 C 
ATOM     13  O   LIG    1       -4.975  17.746  -1.400  0.00  0.00    -0.300 OA
ATOM     14  C   LIG    1       -4.048  16.962  -0.776  0.00  0.00    +0.030 A 
ATOM     15  C   LIG    1       -3.909  15.588  -0.709  0.00  0.00    +0.100 A 
ENDBRANCH   5   7
ENDBRANCH   1   2
BRANCH   1  16
ATOM     16  C   LIG    1       -1.977   8.845   0.520  0.00  0.00    +0.110 C 
BRANCH  16  19
ATOM     17  N   LIG    1       -1.867   6.374   0.558  0.00  0.00    -0.620 N 
ATOM     18  H   LIG    1       -2.667   6.361   0.010  0.00  0.00    +0.440 HD
ATOM     19  C   LIG    1       -1.332   7.550   0.942  0.00  0.00    +0.530 C 
ATOM     20  O   LIG    1       -0.332   7.567   1.628  0.00  0.00    -0.480 OA
BRANCH  17  24
ATOM     21  C   LIG    1       -0.749   3.086   1.275  0.00  0.00    +0.050 A 
ATOM     22  N   LIG    1        0.098   3.874   1.875  0.00  0.00    -0.360 NA
ATOM     23  O   LIG    1       -0.171   5.040   1.701  0.00  0.00    +0.120 OA
ATOM     24  C   LIG    1       -1.273   5.183   0.947  0.00  0.00    +0.200 A 
ATOM     25  C   LIG    1       -1.692   3.920   0.641  0.00  0.00    -0.080 A 
BRANCH  21  27
ATOM     26  C   LIG    1       -0.013   1.086   0.008  0.00  0.00    +0.050 C 
ATOM     27  C   LIG    1       -0.729   1.579   1.267  0.00  0.00    +0.070 C 
ATOM     28  C   LIG    1       -2.164   1.050   1.278  0.00  0.00    +0.050 C 
ENDBRANCH  21  27
ENDBRANCH  17  24
ENDBRANCH  16  19
ENDBRANCH   1  16
TORSDOF 6
