REMARK  Name = ZINCpe00000blUQR.0
REMARK                            x       y       z     vdW  Elec       q    Type
REMARK                         _______ _______ _______ _____ _____    ______ ____
ROOT
ATOM      1  C   LIG    1       -4.448   1.317   4.268  0.00  0.00    +0.510 C 
ATOM      2  N   LIG    1       -3.457   1.399   3.359  0.00  0.00    -0.610 N 
ATOM      3  C   LIG    1       -3.005   2.706   2.861  0.00  0.00    +0.280 C 
ATOM      4  C   LIG    1       -3.068   2.699   1.330  0.00  0.00    +0.020 C 
ATOM      5  C   LIG    1       -2.280   1.505   0.795  0.00  0.00    -0.070 C 
ATOM      6  C   LIG    1       -2.873   0.198   1.317  0.00  0.00    +0.040 C 
ATOM      7  C   LIG    1       -0.802   1.617   1.231  0.00  0.00    +0.020 C 
ATOM      8  C   LIG    1       -0.013   1.086   0.008  0.00  0.00    +0.020 C 
ATOM      9  C   LIG    1       -0.825   1.630  -1.193  0.00  0.00    +0.010 C 
ATOM     10  C   LIG    1       -2.296   1.512  -0.741  0.00  0.00    +0.240 C 
ATOM     11  C   LIG    1       -2.807   0.184   2.848  0.00  0.00    +0.270 C 
ATOM     12  O   LIG    1       -4.976   2.327   4.683  0.00  0.00    -0.540 OA
ENDROOT
BRANCH  10  13
ATOM     13  N   LIG    1       -3.066   2.657  -1.231  0.00  0.00    -0.730 N 
ATOM     14  H   LIG    1       -3.182   3.440  -0.670  0.00  0.00    +0.400 HD
ATOM     15  C   LIG    1       -3.614   2.624  -2.462  0.00  0.00    +0.510 C 
ATOM     16  O   LIG    1       -3.469   1.645  -3.164  0.00  0.00    -0.510 OA
BRANCH  15  17
ATOM     17  C   LIG    1       -4.407   3.802  -2.967  0.00  0.00    +0.160 C 
ATOM     18  C   LIG    1       -5.598   4.051  -2.039  0.00  0.00    +0.040 C 
BRANCH  17  19
ATOM     19  O   LIG    1       -4.880   3.528  -4.287  0.00  0.00    -0.360 OA
ATOM     20  C   LIG    1       -5.026   4.690  -5.105  0.00  0.00    +0.200 C 
ENDBRANCH  17  19
ENDBRANCH  15  17
ENDBRANCH  10  13
BRANCH   1  21
ATOM     21  C   LIG    1       -4.901  -0.030   4.769  0.00  0.00    +0.300 C 
BRANCH  21  23
ATOM     22  C   LIG    1       -6.546  -0.926   6.328  0.00  0.00    +0.510 C 
ATOM     23  N   LIG    1       -5.981   0.148   5.742  0.00  0.00    -0.720 N 
ATOM     24  H   LIG    1       -6.290   1.040   5.965  0.00  0.00    +0.410 HD
ATOM     25  O   LIG    1       -6.159  -2.042   6.049  0.00  0.00    -0.540 OA
BRANCH  22  27
ATOM     26  C   LIG    1       -8.117  -2.110   7.837  0.00  0.00    +0.040 C 
ATOM     27  C   LIG    1       -7.657  -0.743   7.329  0.00  0.00    +0.060 C 
ENDBRANCH  22  27
ENDBRANCH  21  23
ENDBRANCH   1  21
TORSDOF 6
