REMARK  Name = ZINCpe000000UyHE.0
REMARK                            x       y       z     vdW  Elec       q    Type
REMARK                         _______ _______ _______ _____ _____    ______ ____
ROOT
ATOM      1  C   LIG    1       -1.741  -1.054  -0.107  0.00  0.00    +0.320 C 
ATOM      2  N   LIG    1       -2.857  -0.113   0.015  0.00  0.00    -0.540 N 
ENDROOT
BRANCH   2   3
ATOM      3  C   LIG    1       -2.729   1.011   0.801  0.00  0.00    +0.520 C 
ATOM      4  N   LIG    1       -3.736   1.803   0.985  0.00  0.00    -0.890 NA
ATOM      5  S   LIG    1       -3.193   3.023   1.991  0.00  0.00    +2.590 S 
ATOM      6  C   LIG    1       -1.514   2.503   2.206  0.00  0.00    -0.620 A 
ATOM      7  C   LIG    1       -0.436   2.991   2.886  0.00  0.00    +0.140 A 
ATOM      8  C   LIG    1        0.773   2.310   2.838  0.00  0.00    +0.060 A 
ATOM      9  C   LIG    1        0.869   1.144   2.099  0.00  0.00    +0.050 A 
ATOM     10  C   LIG    1       -0.217   0.649   1.412  0.00  0.00    +0.080 A 
ATOM     11  O   LIG    1       -3.178   4.220   1.226  0.00  0.00    -0.940 OA
ATOM     12  O   LIG    1       -3.849   2.885   3.245  0.00  0.00    -0.940 OA
ATOM     13  C   LIG    1       -1.445   1.328   1.445  0.00  0.00    -0.110 A 
ENDBRANCH   2   3
BRANCH   2  14
ATOM     14  C   LIG    1       -4.111  -0.366  -0.701  0.00  0.00    +0.350 C 
BRANCH  14  15
ATOM     15  C   LIG    1       -4.049   0.273  -2.064  0.00  0.00    +0.500 C 
ATOM     16  N   LIG    1       -5.098   0.170  -2.905  0.00  0.00    -0.730 N 
ATOM     17  H   LIG    1       -5.892  -0.316  -2.632  0.00  0.00    +0.400 HD
ATOM     18  O   LIG    1       -3.057   0.881  -2.404  0.00  0.00    -0.530 OA
BRANCH  16  19
ATOM     19  C   LIG    1       -5.038   0.792  -4.230  0.00  0.00    +0.280 C 
BRANCH  19  20
ATOM     20  C   LIG    1       -6.347   0.527  -4.977  0.00  0.00    +0.100 C 
BRANCH  20  21
ATOM     21  C   LIG    1       -6.286   1.167  -6.340  0.00  0.00    +0.130 A 
ATOM     22  C   LIG    1       -6.508   0.397  -7.466  0.00  0.00    -0.030 A 
ATOM     23  C   LIG    1       -6.454   0.996  -8.715  0.00  0.00    +0.070 A 
ATOM     24  C   LIG    1       -6.167   2.351  -8.785  0.00  0.00    -0.040 A 
ATOM     25  C   LIG    1       -5.951   3.055  -7.616  0.00  0.00    +0.270 A 
ATOM     26  N   LIG    1       -6.015   2.453  -6.444  0.00  0.00    -0.480 NA
ENDBRANCH  20  21
ENDBRANCH  19  20
ENDBRANCH  16  19
ENDBRANCH  14  15
ENDBRANCH   2  14
TORSDOF 6
