REMARK  Name = ZINCqH0000033B1U.0
REMARK                            x       y       z     vdW  Elec       q    Type
REMARK                         _______ _______ _______ _____ _____    ______ ____
ROOT
ATOM      1  C   LIG    1       -1.443   3.817   3.954  0.00  0.00    +0.260 C 
ATOM      2  C   LIG    1       -1.304   2.690   2.929  0.00  0.00    +0.080 C 
ENDROOT
BRANCH   1   8
ATOM      3  C   LIG    1       -5.296   7.141   5.808  0.00  0.00    +0.140 C 
ATOM      4  C   LIG    1       -5.529   5.985   4.817  0.00  0.00    +0.060 C 
ATOM      5  C   LIG    1       -4.375   5.275   5.514  0.00  0.00    -0.090 C 
ATOM      6  C   LIG    1       -4.508   3.751   5.668  0.00  0.00    +0.020 C 
ATOM      7  C   LIG    1       -3.744   3.213   4.437  0.00  0.00    +0.190 C 
ATOM      8  N   LIG    1       -2.836   4.284   3.982  0.00  0.00    -0.520 NA
ATOM      9  C   LIG    1       -2.986   5.449   4.885  0.00  0.00    +0.190 C 
ATOM     10  C   LIG    1       -4.664   6.106   6.758  0.00  0.00    +0.030 C 
BRANCH   3  11
ATOM     11  O   LIG    1       -6.505   7.716   6.309  0.00  0.00    -0.370 OA
BRANCH  11  13
ATOM     12  C   LIG    1       -7.741   9.609   7.162  0.00  0.00    +0.040 C 
ATOM     13  C   LIG    1       -6.396   9.102   6.639  0.00  0.00    +0.160 C 
ENDBRANCH  11  13
ENDBRANCH   3  11
ENDBRANCH   1   8
BRANCH   1  14
ATOM     14  C   LIG    1       -0.538   4.959   3.571  0.00  0.00    +0.190 A 
ATOM     15  N   LIG    1        0.600   5.277   4.140  0.00  0.00    -0.480 NA
ATOM     16  C   LIG    1        1.049   6.356   3.473  0.00  0.00    +0.170 A 
ATOM     17  N   LIG    1        0.181   6.628   2.545  0.00  0.00    -0.380 NA
ATOM     18  O   LIG    1       -0.738   5.837   2.584  0.00  0.00    +0.100 OA
BRANCH  16  19
ATOM     19  C   LIG    1        2.326   7.106   3.747  0.00  0.00    +0.220 C 
BRANCH  19  20
ATOM     20  C   LIG    1        2.058   8.209   4.738  0.00  0.00    -0.100 A 
ATOM     21  C   LIG    1        1.694   9.466   4.291  0.00  0.00    +0.060 A 
ATOM     22  C   LIG    1        1.442  10.476   5.200  0.00  0.00    -0.010 A 
ATOM     23  C   LIG    1        1.567  10.233   6.557  0.00  0.00    +0.100 A 
ATOM     24  C   LIG    1        1.938   8.976   7.003  0.00  0.00    -0.010 A 
ATOM     25  F   LIG    1        1.327  11.222   7.446  0.00  0.00    -0.140 F 
ATOM     26  C   LIG    1        2.183   7.965   6.093  0.00  0.00    +0.070 A 
ENDBRANCH  19  20
ENDBRANCH  16  19
ENDBRANCH   1  14
TORSDOF 6
