REMARK  Name = ZINCpk000000owsb.0
REMARK                            x       y       z     vdW  Elec       q    Type
REMARK                         _______ _______ _______ _____ _____    ______ ____
ROOT
ATOM      1  N   LIG    1       -2.567   2.476  -1.868  0.00  0.00    -0.560 N 
ATOM      2  C   LIG    1       -3.124   1.457  -1.205  0.00  0.00    +0.710 C 
ATOM      3  N   LIG    1       -2.465   1.161  -0.066  0.00  0.00    -0.720 N 
ATOM      4  H   LIG    1       -2.688   0.464   0.571  0.00  0.00    +0.440 HD
ATOM      5  C   LIG    1       -1.337   2.104   0.020  0.00  0.00    +0.180 C 
ATOM      6  C   LIG    1       -1.455   2.971   1.276  0.00  0.00    +0.100 C 
ATOM      7  O   LIG    1       -4.114   0.864  -1.585  0.00  0.00    -0.540 OA
ATOM      8  C   LIG    1       -1.481   2.952  -1.228  0.00  0.00    +0.540 C 
ATOM      9  O   LIG    1       -0.767   3.868  -1.577  0.00  0.00    -0.440 OA
ENDROOT
BRANCH   5  10
ATOM     10  C   LIG    1       -0.024   1.364   0.011  0.00  0.00    -0.140 A 
ATOM     11  C   LIG    1       -0.010  -0.017   0.002  0.00  0.00    +0.070 A 
ATOM     12  C   LIG    1        1.194  -0.697  -0.013  0.00  0.00    -0.030 A 
ATOM     13  C   LIG    1        2.386   0.003  -0.019  0.00  0.00    +0.060 A 
ATOM     14  C   LIG    1        2.377   1.385  -0.010  0.00  0.00    -0.080 A 
ATOM     15  C   LIG    1        1.171   2.069   0.004  0.00  0.00    +0.150 A 
BRANCH  15  16
ATOM     16  O   LIG    1        1.159   3.428   0.013  0.00  0.00    -0.290 OA
ATOM     17  C   LIG    1        2.427   4.088   0.005  0.00  0.00    +0.250 C 
ENDBRANCH  15  16
ENDBRANCH   5  10
BRANCH   1  18
ATOM     18  C   LIG    1       -3.075   3.009  -3.135  0.00  0.00    +0.360 C 
BRANCH  18  20
ATOM     19  N   LIG    1       -2.745   2.602  -5.552  0.00  0.00    -0.580 N 
ATOM     20  C   LIG    1       -2.428   2.278  -4.283  0.00  0.00    +0.510 C 
ATOM     21  O   LIG    1       -1.622   1.399  -4.065  0.00  0.00    -0.520 OA
BRANCH  19  22
ATOM     22  C   LIG    1       -2.036   1.971  -6.668  0.00  0.00    +0.210 C 
ATOM     23  C   LIG    1       -2.206   2.593  -8.056  0.00  0.00    +0.010 C 
ATOM     24  C   LIG    1       -2.879   1.258  -7.728  0.00  0.00    +0.010 C 
ENDBRANCH  19  22
BRANCH  19  26
ATOM     25  C   LIG    1       -3.184   4.985  -5.883  0.00  0.00    +0.020 C 
ATOM     26  C   LIG    1       -3.798   3.586  -5.816  0.00  0.00    +0.260 C 
ENDBRANCH  19  26
ENDBRANCH  18  20
ENDBRANCH   1  18
TORSDOF 6
