REMARK  Name = ZINCpk00000e9AVL.0
REMARK                            x       y       z     vdW  Elec       q    Type
REMARK                         _______ _______ _______ _____ _____    ______ ____
ROOT
ATOM      1  N   LIG    1        2.181  -2.120  -0.497  0.00  0.00    -0.710 N 
ATOM      2  H   LIG    1        2.792  -1.680   0.115  0.00  0.00    +0.400 HD
ATOM      3  C   LIG    1        2.580  -2.418  -1.750  0.00  0.00    +0.590 C 
ATOM      4  O   LIG    1        1.814  -2.970  -2.517  0.00  0.00    -0.540 OA
ENDROOT
BRANCH   3   5
ATOM      5  C   LIG    1        3.940  -2.076  -2.188  0.00  0.00    -0.290 A 
ATOM      6  C   LIG    1        4.490  -2.320  -3.442  0.00  0.00    +0.360 A 
ATOM      7  N   LIG    1        5.753  -1.849  -3.421  0.00  0.00    -0.360 N 
ATOM      8  N   LIG    1        6.004  -1.309  -2.155  0.00  0.00    -0.270 NA
ATOM      9  C   LIG    1        6.703  -1.896  -4.535  0.00  0.00    +0.360 C 
ATOM     10  C   LIG    1        4.936  -1.433  -1.418  0.00  0.00    +0.300 A 
BRANCH   6  11
ATOM     11  N   LIG    1        3.856  -2.933  -4.516  0.00  0.00    -0.390 N 
ATOM     12  C   LIG    1        3.103  -4.072  -4.453  0.00  0.00    +0.230 A 
ATOM     13  C   LIG    1        2.656  -4.349  -5.694  0.00  0.00    -0.060 A 
ATOM     14  C   LIG    1        3.156  -3.353  -6.558  0.00  0.00    -0.030 A 
ATOM     15  C   LIG    1        3.886  -2.500  -5.813  0.00  0.00    +0.120 A 
ENDBRANCH   6  11
ENDBRANCH   3   5
BRANCH   1  16
ATOM     16  C   LIG    1        0.825  -2.461  -0.060  0.00  0.00    +0.280 C 
BRANCH  16  17
ATOM     17  C   LIG    1        0.605  -1.950   1.365  0.00  0.00    +0.100 C 
ATOM     18  C   LIG    1       -0.848  -2.195   1.777  0.00  0.00    +0.020 C 
BRANCH  17  19
ATOM     19  N   LIG    1        0.893  -0.510   1.419  0.00  0.00    -0.520 NA
ATOM     20  C   LIG    1        0.750   0.005   2.789  0.00  0.00    +0.150 C 
ATOM     21  C   LIG    1        1.116   1.491   2.810  0.00  0.00    +0.220 C 
ATOM     22  O   LIG    1        0.290   2.194   1.878  0.00  0.00    -0.380 OA
ATOM     23  C   LIG    1        0.405   1.719   0.534  0.00  0.00    +0.220 C 
ATOM     24  C   LIG    1        0.032   0.235   0.490  0.00  0.00    +0.150 C 
ENDBRANCH  17  19
BRANCH  17  26
ATOM     25  C   LIG    1        1.331  -4.201   2.170  0.00  0.00    +0.020 C 
ATOM     26  C   LIG    1        1.538  -2.693   2.323  0.00  0.00    +0.030 C 
ENDBRANCH  17  26
ENDBRANCH  16  17
ENDBRANCH   1  16
TORSDOF 6
