REMARK  Name = ZINCrH000004rePX.0
REMARK                            x       y       z     vdW  Elec       q    Type
REMARK                         _______ _______ _______ _____ _____    ______ ____
ROOT
ATOM      1  C   LIG    1       -3.382   1.408   5.088  0.00  0.00    -0.290 A 
ATOM      2  C   LIG    1       -2.923   0.628   4.097  0.00  0.00    +0.050 A 
ATOM      3  C   LIG    1       -2.108   1.264   3.162  0.00  0.00    -0.240 A 
ATOM      4  C   LIG    1       -1.918   2.622   3.436  0.00  0.00    +0.100 A 
ATOM      5  N   LIG    1       -1.156   3.366   2.612  0.00  0.00    -0.510 NA
ATOM      6  C   LIG    1       -0.579   2.875   1.557  0.00  0.00    +0.430 A 
ATOM      7  C   LIG    1        0.260   3.762   0.665  0.00  0.00    +0.140 C 
ATOM      8  C   LIG    1       -0.503   4.030  -0.630  0.00  0.00    +0.040 C 
ATOM      9  C   LIG    1       -0.228   2.950  -1.662  0.00  0.00    +0.020 C 
ATOM     10  C   LIG    1       -0.754   1.593  -1.227  0.00  0.00    +0.020 C 
ATOM     11  C   LIG    1       -0.013   1.086   0.008  0.00  0.00    +0.300 C 
ATOM     12  N   LIG    1       -0.703   1.561   1.214  0.00  0.00    -0.530 N 
ATOM     13  C   LIG    1       -1.440   0.721   1.961  0.00  0.00    +0.560 A 
ATOM     14  O   LIG    1       -1.553  -0.453   1.657  0.00  0.00    -0.500 OA
ATOM     15  C   LIG    1       -3.266  -0.836   4.001  0.00  0.00    +0.140 C 
ATOM     16  S   LIG    1       -2.795   3.052   4.899  0.00  0.00    +0.230 S 
ENDROOT
BRANCH   1  19
ATOM     17  N   LIG    1       -4.658   1.819   7.124  0.00  0.00    -0.720 N 
ATOM     18  H   LIG    1       -4.374   2.745   7.087  0.00  0.00    +0.400 HD
ATOM     19  C   LIG    1       -4.252   0.951   6.176  0.00  0.00    +0.600 C 
ATOM     20  O   LIG    1       -4.608  -0.212   6.223  0.00  0.00    -0.520 OA
BRANCH  17  21
ATOM     21  C   LIG    1       -5.527   1.362   8.211  0.00  0.00    +0.320 C 
BRANCH  21  26
ATOM     22  C   LIG    1       -6.697   5.792  11.733  0.00  0.00    +0.090 C 
ATOM     23  C   LIG    1       -6.392   4.636  10.815  0.00  0.00    -0.080 A 
ATOM     24  C   LIG    1       -7.215   4.375   9.736  0.00  0.00    +0.000 A 
ATOM     25  C   LIG    1       -6.935   3.316   8.893  0.00  0.00    +0.030 A 
ATOM     26  C   LIG    1       -5.832   2.517   9.130  0.00  0.00    -0.120 A 
ATOM     27  C   LIG    1       -5.011   2.775  10.212  0.00  0.00    +0.030 A 
ATOM     28  C   LIG    1       -5.288   3.838  11.051  0.00  0.00    +0.000 A 
ENDBRANCH  21  26
ENDBRANCH  17  21
ENDBRANCH   1  19
TORSDOF 3
