REMARK  Name = ZINCpe00000gM9Sl.0
REMARK                            x       y       z     vdW  Elec       q    Type
REMARK                         _______ _______ _______ _____ _____    ______ ____
ROOT
ATOM      1  N   LIG    1       -2.444  -0.328  -1.226  0.00  0.00    -0.730 N 
ATOM      2  H   LIG    1       -3.290  -0.431  -1.689  0.00  0.00    +0.400 HD
ATOM      3  C   LIG    1       -2.345  -0.655   0.077  0.00  0.00    +0.720 C 
ATOM      4  N   LIG    1       -3.443  -1.028   0.764  0.00  0.00    -0.630 N 
ATOM      5  C   LIG    1       -3.377  -1.289   2.210  0.00  0.00    +0.310 C 
ATOM      6  C   LIG    1       -4.488  -0.479   2.897  0.00  0.00    +0.190 C 
ATOM      7  N   LIG    1       -5.777  -0.794   2.268  0.00  0.00    -0.490 N 
ATOM      8  C   LIG    1       -5.794  -0.389   0.856  0.00  0.00    +0.180 C 
ATOM      9  C   LIG    1       -4.738  -1.190   0.086  0.00  0.00    +0.280 C 
ATOM     10  O   LIG    1       -1.265  -0.614   0.634  0.00  0.00    -0.570 OA
ENDROOT
BRANCH   1  16
ATOM     11  C   LIG    1        1.063  -2.032  -4.005  0.00  0.00    +0.310 C 
ATOM     12  N   LIG    1        0.270  -0.878  -3.576  0.00  0.00    -0.570 N 
ATOM     13  C   LIG    1        0.289   0.233  -4.328  0.00  0.00    +0.520 C 
ATOM     14  C   LIG    1       -0.495   1.457  -3.935  0.00  0.00    +0.100 C 
ATOM     15  C   LIG    1       -1.731   1.028  -3.137  0.00  0.00    +0.070 C 
ATOM     16  C   LIG    1       -1.273   0.182  -1.944  0.00  0.00    +0.280 C 
ATOM     17  O   LIG    1        0.950   0.251  -5.344  0.00  0.00    -0.500 OA
ATOM     18  C   LIG    1       -0.447  -0.973  -2.446  0.00  0.00    +0.500 C 
ATOM     19  O   LIG    1       -0.426  -2.007  -1.814  0.00  0.00    -0.470 OA
ENDBRANCH   1  16
BRANCH   7  20
ATOM     20  C   LIG    1       -6.834  -0.207   2.970  0.00  0.00    +0.100 A 
ATOM     21  C   LIG    1       -7.720   0.638   2.315  0.00  0.00    +0.000 A 
ATOM     22  C   LIG    1       -8.766   1.214   3.009  0.00  0.00    +0.010 A 
ATOM     23  C   LIG    1       -8.926   0.957   4.361  0.00  0.00    +0.070 A 
ATOM     24  C   LIG    1       -8.041   0.118   5.017  0.00  0.00    +0.010 A 
ATOM     25  F   LIG    1       -9.947   1.524   5.039  0.00  0.00    -0.140 F 
ATOM     26  C   LIG    1       -6.996  -0.463   4.325  0.00  0.00    +0.030 A 
ENDBRANCH   7  20
TORSDOF 2
