REMARK  Name = ZINCqH0000004eUY.0
REMARK                            x       y       z     vdW  Elec       q    Type
REMARK                         _______ _______ _______ _____ _____    ______ ____
ROOT
ATOM      1  C   LIG    1        0.279   0.530   7.532  0.00  0.00    +0.170 A 
ATOM      2  N   LIG    1        1.562   0.307   7.349  0.00  0.00    -0.490 NA
ATOM      3  C   LIG    1        2.131  -0.027   8.514  0.00  0.00    +0.180 A 
ATOM      4  C   LIG    1        1.170  -0.015   9.475  0.00  0.00    +0.040 A 
ATOM      5  N   LIG    1       -0.011   0.346   8.850  0.00  0.00    -0.430 N 
ENDROOT
BRANCH   4   6
ATOM      6  C   LIG    1        1.352  -0.322  10.909  0.00  0.00    +0.010 A 
ATOM      7  C   LIG    1        0.585   0.340  11.871  0.00  0.00    +0.010 A 
ATOM      8  C   LIG    1        0.756   0.045  13.207  0.00  0.00    +0.000 A 
ATOM      9  C   LIG    1        1.692  -0.897  13.597  0.00  0.00    +0.000 A 
ATOM     10  C   LIG    1        2.459  -1.553  12.650  0.00  0.00    +0.020 A 
ATOM     11  C   LIG    1        2.294  -1.271  11.309  0.00  0.00    +0.030 A 
ENDBRANCH   4   6
BRANCH   1  12
ATOM     12  S   LIG    1       -0.871   0.996   6.282  0.00  0.00    +0.050 S 
BRANCH  12  13
ATOM     13  C   LIG    1        0.229   1.045   4.846  0.00  0.00    +0.120 C 
BRANCH  13  16
ATOM     14  N   LIG    1        0.055   1.535   2.427  0.00  0.00    -0.720 N 
ATOM     15  H   LIG    1        1.006   1.358   2.355  0.00  0.00    +0.400 HD
ATOM     16  C   LIG    1       -0.560   1.434   3.622  0.00  0.00    +0.530 C 
ATOM     17  O   LIG    1       -1.749   1.656   3.712  0.00  0.00    -0.520 OA
BRANCH  14  18
ATOM     18  C   LIG    1       -0.712   1.913   1.238  0.00  0.00    +0.230 C 
ATOM     19  C   LIG    1       -0.805   3.438   1.154  0.00  0.00    +0.020 C 
BRANCH  18  21
ATOM     20  C   LIG    1       -0.030  -0.154   0.011  0.00  0.00    +0.020 C 
ATOM     21  C   LIG    1       -0.012   1.375  -0.013  0.00  0.00    +0.020 C 
ENDBRANCH  18  21
ENDBRANCH  14  18
ENDBRANCH  13  16
ENDBRANCH  12  13
ENDBRANCH   1  12
BRANCH   5  22
ATOM     22  C   LIG    1       -1.323   0.499   9.484  0.00  0.00    +0.300 C 
BRANCH  22  23
ATOM     23  C   LIG    1       -2.024  -0.860   9.538  0.00  0.00    +0.160 C 
ATOM     24  C   LIG    1       -3.454  -0.690  10.094  0.00  0.00    +0.020 C 
ATOM     25  C   LIG    1       -3.608  -1.947  10.995  0.00  0.00    +0.020 C 
ATOM     26  C   LIG    1       -2.161  -2.112  11.522  0.00  0.00    +0.200 C 
ATOM     27  O   LIG    1       -1.316  -1.737  10.422  0.00  0.00    -0.360 OA
ENDBRANCH  22  23
ENDBRANCH   5  22
TORSDOF 8
