REMARK  Name = ZINCtj000001Vgbq.1
REMARK                            x       y       z     vdW  Elec       q    Type
REMARK                         _______ _______ _______ _____ _____    ______ ____
ROOT
ATOM      1  C   LIG    1        1.226   8.618   1.435  0.00  0.00    +0.160 C 
ATOM      2  C   LIG    1        1.082   9.917   0.621  0.00  0.00    +0.100 C 
ATOM      3  C   LIG    1        2.051   9.297  -0.402  0.00  0.00    +0.260 C 
ATOM      4  C   LIG    1        2.580   8.439   0.748  0.00  0.00    -0.110 C 
ATOM      5  C   LIG    1        3.160   7.047   0.494  0.00  0.00    +0.030 C 
ATOM      6  C   LIG    1        4.550   7.700   0.611  0.00  0.00    +0.050 C 
ATOM      7  C   LIG    1        3.883   8.794   1.465  0.00  0.00    +0.090 C 
ENDROOT
BRANCH   3   8
ATOM      8  N   LIG    1        1.383   8.525  -1.452  0.00  0.00    -0.740 N 
ATOM      9  H   LIG    1        1.328   7.559  -1.384  0.00  0.00    +0.390 HD
ATOM     10  C   LIG    1        0.844   9.157  -2.514  0.00  0.00    +0.520 C 
ATOM     11  O   LIG    1        0.912  10.365  -2.599  0.00  0.00    -0.480 OA
BRANCH  10  12
ATOM     12  C   LIG    1        0.156   8.363  -3.594  0.00  0.00    +0.200 C 
BRANCH  12  13
ATOM     13  C   LIG    1       -0.355   9.300  -4.658  0.00  0.00    +0.280 A 
ATOM     14  N   LIG    1        0.303   9.688  -5.721  0.00  0.00    -0.520 NA
ATOM     15  C   LIG    1       -0.452  10.515  -6.443  0.00  0.00    +0.270 A 
ATOM     16  N   LIG    1       -1.606  10.665  -5.847  0.00  0.00    -0.300 NA
ATOM     17  N   LIG    1       -1.568   9.878  -4.685  0.00  0.00    -0.370 N 
ATOM     18  C   LIG    1       -2.637   9.720  -3.696  0.00  0.00    +0.360 C 
BRANCH  15  19
ATOM     19  C   LIG    1       -0.042  11.171  -7.736  0.00  0.00    +0.050 C 
ATOM     20  C   LIG    1       -0.971  12.243  -8.310  0.00  0.00    +0.050 C 
ATOM     21  C   LIG    1       -0.883  10.869  -8.978  0.00  0.00    +0.050 C 
ENDBRANCH  15  19
ENDBRANCH  12  13
ENDBRANCH  10  12
ENDBRANCH   3   8
BRANCH   1  22
ATOM     22  N   LIG    1        0.242   7.587   1.077  0.00  0.00    -0.490 N 
ATOM     23  H   LIG    1        0.281   7.415   0.084  0.00  0.00    +0.420 HD
ATOM     24  H   LIG    1        0.453   6.735   1.575  0.00  0.00    +0.440 HD
BRANCH  22  25
ATOM     25  C   LIG    1       -1.104   8.047   1.442  0.00  0.00    +0.460 C 
BRANCH  25  29
ATOM     26  C   LIG    1       -3.417   5.323   1.097  0.00  0.00    +0.190 A 
ATOM     27  N   LIG    1       -3.499   5.914  -0.057  0.00  0.00    -0.340 NA
ATOM     28  O   LIG    1       -2.758   6.874  -0.090  0.00  0.00    +0.110 OA
ATOM     29  C   LIG    1       -2.113   6.989   1.075  0.00  0.00    +0.090 A 
ATOM     30  N   LIG    1       -2.530   6.009   1.839  0.00  0.00    -0.420 NA
BRANCH  26  32
ATOM     31  C   LIG    1       -3.378   2.844   1.169  0.00  0.00    +0.050 C 
ATOM     32  C   LIG    1       -4.180   4.097   1.527  0.00  0.00    +0.160 C 
ENDBRANCH  26  32
ENDBRANCH  25  29
ENDBRANCH  22  25
ENDBRANCH   1  22
TORSDOF 8
