REMARK  Name = ZINCqH0000003Hpz.0
REMARK                            x       y       z     vdW  Elec       q    Type
REMARK                         _______ _______ _______ _____ _____    ______ ____
ROOT
ATOM      1  C   LIG    1        2.485   1.036  -0.017  0.00  0.00    +0.330 C 
ENDROOT
BRANCH   1  11
ATOM      2  C   LIG    1        1.166   3.165   0.008  0.00  0.00    +0.120 A 
ATOM      3  C   LIG    1       -0.044   3.845   0.029  0.00  0.00    -0.030 A 
ATOM      4  C   LIG    1       -1.227   3.141   0.039  0.00  0.00    -0.120 A 
ATOM      5  C   LIG    1       -1.230   1.752   0.017  0.00  0.00    +0.070 A 
ATOM      6  O   LIG    1       -2.501   1.262   0.015  0.00  0.00    -0.300 OA
ATOM      7  C   LIG    1       -3.405   2.282   0.470  0.00  0.00    +0.200 C 
ATOM      8  C   LIG    1       -3.594   2.208   1.986  0.00  0.00    +0.040 C 
ATOM      9  C   LIG    1       -0.013   1.076   0.008  0.00  0.00    +0.060 A 
ATOM     10  C   LIG    1       -2.676   3.588   0.072  0.00  0.00    +0.080 C 
ATOM     11  C   LIG    1        1.174   1.778   0.000  0.00  0.00    -0.110 A 
BRANCH   2  12
ATOM     12  O   LIG    1        2.338   3.856  -0.004  0.00  0.00    -0.310 OA
BRANCH  12  14
ATOM     13  C   LIG    1        3.659   5.879  -0.011  0.00  0.00    +0.070 C 
ATOM     14  C   LIG    1        2.250   5.282   0.005  0.00  0.00    +0.170 C 
ENDBRANCH  12  14
ENDBRANCH   2  12
ENDBRANCH   1  11
BRANCH   1  15
ATOM     15  N   LIG    1        3.042   0.996   1.338  0.00  0.00    -0.720 N 
ATOM     16  H   LIG    1        2.564   1.413   2.071  0.00  0.00    +0.400 HD
ATOM     17  C   LIG    1        4.218   0.379   1.565  0.00  0.00    +0.510 C 
ATOM     18  O   LIG    1        4.816  -0.144   0.648  0.00  0.00    -0.540 OA
BRANCH  17  19
ATOM     19  C   LIG    1        4.791   0.338   2.958  0.00  0.00    +0.060 C 
BRANCH  19  20
ATOM     20  C   LIG    1        6.122  -0.416   2.941  0.00  0.00    +0.100 C 
BRANCH  20  21
ATOM     21  C   LIG    1        6.695  -0.458   4.334  0.00  0.00    -0.090 A 
ATOM     22  C   LIG    1        7.541   0.548   4.763  0.00  0.00    +0.040 A 
ATOM     23  C   LIG    1        8.062   0.514   6.043  0.00  0.00    -0.010 A 
ATOM     24  C   LIG    1        7.745  -0.533   6.891  0.00  0.00    +0.090 A 
ATOM     25  C   LIG    1        6.903  -1.543   6.458  0.00  0.00    -0.010 A 
ATOM     26  F   LIG    1        8.259  -0.571   8.140  0.00  0.00    -0.140 F 
ATOM     27  C   LIG    1        6.378  -1.504   5.180  0.00  0.00    +0.040 A 
ENDBRANCH  20  21
ENDBRANCH  19  20
ENDBRANCH  17  19
ENDBRANCH   1  15
TORSDOF 7
