REMARK  Name = ZINCpk000000ogWv.0
REMARK                            x       y       z     vdW  Elec       q    Type
REMARK                         _______ _______ _______ _____ _____    ______ ____
ROOT
ATOM      1  C   LIG    1        1.280   1.980   0.001  0.00  0.00    +0.120 C 
ENDROOT
BRANCH   1   2
ATOM      2  N   LIG    1        2.407   1.043  -0.015  0.00  0.00    -0.470 NA
ATOM      3  C   LIG    1        3.259   1.065  -1.000  0.00  0.00    +0.390 C 
ATOM      4  N   LIG    1        3.126   1.950  -2.040  0.00  0.00    -1.050 N 
ATOM      5  H   LIG    1        2.431   2.617  -2.157  0.00  0.00    +0.450 HD
ATOM      6  S   LIG    1        4.412   1.642  -3.062  0.00  0.00    +2.670 S 
ATOM      7  C   LIG    1        5.197   0.320  -2.183  0.00  0.00    -0.630 A 
ATOM      8  C   LIG    1        6.310  -0.442  -2.415  0.00  0.00    +0.150 A 
ATOM      9  C   LIG    1        6.672  -1.427  -1.509  0.00  0.00    +0.040 A 
ATOM     10  C   LIG    1        5.902  -1.628  -0.377  0.00  0.00    +0.070 A 
ATOM     11  C   LIG    1        4.782  -0.864  -0.140  0.00  0.00    +0.100 A 
ATOM     12  O   LIG    1        3.882   1.099  -4.263  0.00  0.00    -0.930 OA
ATOM     13  O   LIG    1        5.281   2.765  -3.011  0.00  0.00    -0.930 OA
ATOM     14  C   LIG    1        4.401   0.139  -1.047  0.00  0.00    -0.020 A 
ENDBRANCH   1   2
BRANCH   1  15
ATOM     15  C   LIG    1       -0.014   1.209   0.009  0.00  0.00    +0.520 C 
ATOM     16  N   LIG    1       -1.191   1.867   0.018  0.00  0.00    -0.720 N 
ATOM     17  H   LIG    1       -1.204   2.837   0.023  0.00  0.00    +0.400 HD
ATOM     18  O   LIG    1        0.002  -0.004   0.002  0.00  0.00    -0.510 OA
BRANCH  16  19
ATOM     19  C   LIG    1       -2.449   1.117   0.020  0.00  0.00    +0.250 C 
ATOM     20  C   LIG    1       -2.816   0.740   1.456  0.00  0.00    +0.030 C 
BRANCH  19  21
ATOM     21  C   LIG    1       -3.559   1.982  -0.580  0.00  0.00    +0.180 C 
BRANCH  21  22
ATOM     22  O   LIG    1       -3.791   3.112   0.264  0.00  0.00    -0.390 OA
ATOM     23  C   LIG    1       -4.815   3.990  -0.208  0.00  0.00    +0.200 C 
ENDBRANCH  21  22
ENDBRANCH  19  21
ENDBRANCH  16  19
ENDBRANCH   1  15
BRANCH   1  24
ATOM     24  C   LIG    1        1.361   2.854   1.254  0.00  0.00    +0.060 C 
BRANCH  24  25
ATOM     25  C   LIG    1        2.615   3.729   1.185  0.00  0.00    +0.010 C 
BRANCH  25  27
ATOM     26  C   LIG    1        3.949   5.478   2.370  0.00  0.00    +0.010 C 
ATOM     27  C   LIG    1        2.696   4.603   2.438  0.00  0.00    +0.000 C 
ENDBRANCH  25  27
ENDBRANCH  24  25
ENDBRANCH   1  24
TORSDOF 8
