REMARK  Name = ZINCrD0000075KFB.0
REMARK                            x       y       z     vdW  Elec       q    Type
REMARK                         _______ _______ _______ _____ _____    ______ ____
ROOT
ATOM      1  C   LIG    1       -4.874   1.592   0.247  0.00  0.00    +0.010 A 
ATOM      2  N   LIG    1       -4.852   0.278   0.234  0.00  0.00    -0.160 NA
ATOM      3  N   LIG    1       -5.920  -0.426   0.335  0.00  0.00    -0.330 N 
ATOM      4  C   LIG    1       -7.136   0.141   0.449  0.00  0.00    +0.480 A 
ATOM      5  C   LIG    1       -7.249   1.549   0.465  0.00  0.00    -0.020 A 
ATOM      6  O   LIG    1       -8.133  -0.556   0.538  0.00  0.00    -0.520 OA
ATOM      7  C   LIG    1       -6.104   2.283   0.363  0.00  0.00    +0.140 A 
ENDROOT
BRANCH   1   9
ATOM      8  O   LIG    1       -3.629   3.567   0.141  0.00  0.00    -0.500 OA
ATOM      9  C   LIG    1       -3.611   2.352   0.134  0.00  0.00    +0.600 C 
ATOM     10  N   LIG    1       -2.438   1.696   0.023  0.00  0.00    -0.650 N 
ATOM     11  H   LIG    1       -2.428   0.729  -0.048  0.00  0.00    +0.420 HD
BRANCH  10  12
ATOM     12  C   LIG    1       -1.235   2.412   0.010  0.00  0.00    +0.140 A 
ATOM     13  C   LIG    1       -1.176   3.663  -0.588  0.00  0.00    +0.080 A 
ATOM     14  C   LIG    1        0.014   4.365  -0.604  0.00  0.00    +0.020 A 
ATOM     15  C   LIG    1        1.146   3.825  -0.019  0.00  0.00    +0.100 A 
ATOM     16  C   LIG    1        1.089   2.579   0.584  0.00  0.00    +0.020 A 
ATOM     17  F   LIG    1        2.308   4.513  -0.036  0.00  0.00    -0.130 F 
ATOM     18  C   LIG    1       -0.098   1.873   0.602  0.00  0.00    -0.030 A 
ATOM     19 CL   LIG    1       -0.170   0.312   1.358  0.00  0.00    -0.050 Cl
ENDBRANCH  10  12
ENDBRANCH   1   9
BRANCH   3  20
ATOM     20  C   LIG    1       -5.815  -1.887   0.319  0.00  0.00    +0.360 C 
BRANCH  20  21
ATOM     21  C   LIG    1       -5.911  -2.390  -1.123  0.00  0.00    +0.200 C 
BRANCH  21  22
ATOM     22  O   LIG    1       -4.784  -1.922  -1.867  0.00  0.00    -0.310 OA
BRANCH  22  23
ATOM     23  C   LIG    1       -4.715  -2.282  -3.175  0.00  0.00    +0.130 A 
ATOM     24  C   LIG    1       -5.709  -3.075  -3.730  0.00  0.00    -0.080 A 
ATOM     25  C   LIG    1       -5.640  -3.435  -5.062  0.00  0.00    +0.050 A 
ATOM     26  C   LIG    1       -4.576  -3.015  -5.839  0.00  0.00    -0.030 A 
ATOM     27  C   LIG    1       -3.581  -2.230  -5.286  0.00  0.00    +0.050 A 
ATOM     28  C   LIG    1       -3.649  -1.862  -3.957  0.00  0.00    -0.020 A 
ENDBRANCH  22  23
ENDBRANCH  21  22
ENDBRANCH  20  21
ENDBRANCH   3  20
TORSDOF 6
