REMARK  Name = ZINCqH0000008Je3.0
REMARK                            x       y       z     vdW  Elec       q    Type
REMARK                         _______ _______ _______ _____ _____    ______ ____
ROOT
ATOM      1  N   LIG    1        2.303   9.584   4.091  0.00  0.00    -0.740 N 
ATOM      2  H   LIG    1        1.494   9.251   4.510  0.00  0.00    +0.390 HD
ATOM      3  C   LIG    1        2.711   9.072   2.913  0.00  0.00    +0.710 C 
ATOM      4  N   LIG    1        1.945   8.171   2.267  0.00  0.00    -0.630 N 
ATOM      5  C   LIG    1        0.718   7.651   2.887  0.00  0.00    +0.250 C 
ATOM      6  C   LIG    1        0.776   6.120   2.885  0.00  0.00    +0.020 C 
ATOM      7  C   LIG    1        1.017   5.625   1.457  0.00  0.00    -0.010 C 
ATOM      8  C   LIG    1        2.359   6.159   0.950  0.00  0.00    +0.020 C 
ATOM      9  C   LIG    1        2.319   7.691   0.930  0.00  0.00    +0.290 C 
ATOM     10  O   LIG    1        3.771   9.424   2.432  0.00  0.00    -0.590 OA
ENDROOT
BRANCH   1  17
ATOM     11  C   LIG    1        3.168   9.237   6.806  0.00  0.00    +0.030 C 
ATOM     12  C   LIG    1        2.820  10.619   6.248  0.00  0.00    -0.040 C 
ATOM     13  C   LIG    1        1.342  10.919   6.508  0.00  0.00    +0.200 C 
ATOM     14  O   LIG    1        1.007  12.185   5.936  0.00  0.00    -0.380 OA
ATOM     15  C   LIG    1        1.185  12.252   4.520  0.00  0.00    +0.210 C 
ATOM     16  C   LIG    1        2.658  12.005   4.180  0.00  0.00    -0.010 C 
ATOM     17  C   LIG    1        3.081  10.643   4.739  0.00  0.00    +0.260 C 
ENDBRANCH   1  17
BRANCH   7  18
ATOM     18  C   LIG    1        1.041   4.095   1.445  0.00  0.00    +0.030 C 
BRANCH  18  19
ATOM     19  C   LIG    1        1.157   3.598   0.003  0.00  0.00    +0.080 C 
BRANCH  19  20
ATOM     20  C   LIG    1        1.180   2.091  -0.009  0.00  0.00    -0.130 A 
ATOM     21  C   LIG    1        2.387   1.419  -0.029  0.00  0.00    +0.080 A 
ATOM     22  C   LIG    1        2.410   0.037  -0.040  0.00  0.00    -0.020 A 
ATOM     23  C   LIG    1        1.223  -0.675  -0.030  0.00  0.00    +0.130 A 
ATOM     24  C   LIG    1        0.013  -0.003  -0.011  0.00  0.00    -0.040 A 
ATOM     25  F   LIG    1        1.246  -2.026  -0.041  0.00  0.00    -0.130 F 
ATOM     26  C   LIG    1       -0.009   1.380   0.000  0.00  0.00    +0.130 A 
ATOM     27  F   LIG    1       -1.189   2.038   0.014  0.00  0.00    -0.130 F 
ENDBRANCH  19  20
ENDBRANCH  18  19
ENDBRANCH   7  18
TORSDOF 4
