REMARK  Name = ZINCrD0000073XUL.0
REMARK                            x       y       z     vdW  Elec       q    Type
REMARK                         _______ _______ _______ _____ _____    ______ ____
ROOT
ATOM      1  C   LIG    1       -0.270  -4.842   1.288  0.00  0.00    +0.090 C 
ATOM      2  C   LIG    1        0.511  -4.861  -0.028  0.00  0.00    +0.000 C 
ENDROOT
BRANCH   2   3
ATOM      3  C   LIG    1        1.230  -6.179  -0.166  0.00  0.00    +0.540 C 
ATOM      4  N   LIG    1        0.588  -7.246  -0.681  0.00  0.00    -0.710 N 
ATOM      5  H   LIG    1       -0.337  -7.166  -0.963  0.00  0.00    +0.410 HD
ATOM      6  O   LIG    1        2.386  -6.279   0.187  0.00  0.00    -0.510 OA
BRANCH   4   7
ATOM      7  C   LIG    1        1.286  -8.526  -0.815  0.00  0.00    +0.290 C 
ATOM      8  C   LIG    1        0.265  -9.667  -0.811  0.00  0.00    +0.010 C 
ATOM      9  C   LIG    1        0.979 -10.954  -1.243  0.00  0.00    +0.260 C 
ATOM     10  O   LIG    1        1.410 -10.798  -2.595  0.00  0.00    -0.320 OA
ATOM     11  C   LIG    1        2.084  -9.664  -2.921  0.00  0.00    +0.140 A 
ATOM     12  C   LIG    1        2.814  -9.642  -4.104  0.00  0.00    -0.020 A 
ATOM     13  C   LIG    1        3.508  -8.507  -4.472  0.00  0.00    +0.050 A 
ATOM     14  C   LIG    1        3.479  -7.388  -3.661  0.00  0.00    -0.030 A 
ATOM     15  C   LIG    1        2.757  -7.407  -2.483  0.00  0.00    +0.060 A 
ATOM     16  C   LIG    1        2.060  -8.543  -2.109  0.00  0.00    -0.180 A 
ENDBRANCH   4   7
ENDBRANCH   2   3
BRANCH   2  17
ATOM     17  S   LIG    1        1.721  -3.509  -0.033  0.00  0.00    +0.100 S 
BRANCH  17  18
ATOM     18  C   LIG    1        0.706  -2.069  -0.015  0.00  0.00    +0.190 A 
ATOM     19  N   LIG    1        1.138  -0.829  -0.013  0.00  0.00    -0.280 NA
ATOM     20  N   LIG    1        0.002  -0.004   0.002  0.00  0.00    -0.320 N 
ATOM     21  C   LIG    1       -1.065  -0.825   0.013  0.00  0.00    +0.500 A 
ATOM     22  N   LIG    1       -0.631  -2.059  -0.003  0.00  0.00    -0.530 NA
BRANCH  20  23
ATOM     23  C   LIG    1       -0.017   1.397   0.010  0.00  0.00    +0.140 A 
ATOM     24  C   LIG    1       -1.228   2.076   0.019  0.00  0.00    +0.000 A 
ATOM     25  C   LIG    1       -1.243   3.457   0.032  0.00  0.00    +0.050 A 
ATOM     26  C   LIG    1       -0.054   4.164   0.025  0.00  0.00    +0.010 A 
ATOM     27  C   LIG    1        1.153   3.490   0.010  0.00  0.00    +0.040 A 
ATOM     28  C   LIG    1        1.175   2.109   0.002  0.00  0.00    +0.030 A 
ENDBRANCH  20  23
ENDBRANCH  17  18
ENDBRANCH   2  17
TORSDOF 5
