REMARK  Name = ZINCrg00000BvZ0Q.0
REMARK                            x       y       z     vdW  Elec       q    Type
REMARK                         _______ _______ _______ _____ _____    ______ ____
ROOT
ATOM      1  O   LIG    1       -1.206   2.833   0.121  0.00  0.00    -0.510 OA
ATOM      2  C   LIG    1       -1.189   1.621   0.020  0.00  0.00    +0.600 C 
ATOM      3  N   LIG    1       -0.013   0.962   0.011  0.00  0.00    -0.710 N 
ATOM      4  H   LIG    1       -0.001  -0.008   0.002  0.00  0.00    +0.400 HD
ENDROOT
BRANCH   2   5
ATOM      5  C   LIG    1       -2.453   0.874  -0.091  0.00  0.00    -0.070 A 
ATOM      6  C   LIG    1       -2.611  -0.487  -0.114  0.00  0.00    +0.200 A 
ATOM      7  N   LIG    1       -3.921  -0.712  -0.222  0.00  0.00    -0.270 NA
ATOM      8  N   LIG    1       -4.544   0.411  -0.274  0.00  0.00    -0.050 NA
ATOM      9  N   LIG    1       -3.716   1.394  -0.200  0.00  0.00    -0.240 N 
BRANCH   9  10
ATOM     10  C   LIG    1       -4.062   2.817  -0.227  0.00  0.00    +0.400 C 
BRANCH  10  11
ATOM     11  C   LIG    1       -4.181   3.278  -1.656  0.00  0.00    -0.130 A 
ATOM     12  C   LIG    1       -3.102   3.874  -2.282  0.00  0.00    +0.040 A 
ATOM     13  C   LIG    1       -3.209   4.293  -3.595  0.00  0.00    +0.000 A 
ATOM     14  C   LIG    1       -4.398   4.125  -4.279  0.00  0.00    +0.030 A 
ATOM     15  C   LIG    1       -5.479   3.534  -3.652  0.00  0.00    +0.010 A 
ATOM     16  C   LIG    1       -5.370   3.110  -2.341  0.00  0.00    +0.040 A 
ENDBRANCH  10  11
ENDBRANCH   9  10
ENDBRANCH   2   5
BRANCH   3  17
ATOM     17  C   LIG    1        1.246   1.710   0.008  0.00  0.00    +0.260 C 
ATOM     18  C   LIG    1        2.379   0.863  -0.622  0.00  0.00    +0.050 C 
ATOM     19  C   LIG    1        3.656   1.493  -0.013  0.00  0.00    -0.010 C 
ATOM     20  C   LIG    1        3.257   1.829   1.438  0.00  0.00    +0.000 C 
ATOM     21  C   LIG    1        1.724   1.968   1.452  0.00  0.00    +0.150 C 
BRANCH  21  22
ATOM     22  O   LIG    1        1.355   3.286   1.862  0.00  0.00    -0.550 OA
ATOM     23  H   LIG    1        1.628   3.509   2.762  0.00  0.00    +0.380 HD
ENDBRANCH  21  22
BRANCH  19  24
ATOM     24  C   LIG    1        4.810   0.488  -0.031  0.00  0.00    +0.300 C 
BRANCH  24  25
ATOM     25  N   LIG    1        6.034   1.142   0.438  0.00  0.00    -0.460 N 
ATOM     26  C   LIG    1        6.474   1.210   1.732  0.00  0.00    +0.110 A 
ATOM     27  C   LIG    1        7.632   1.897   1.715  0.00  0.00    +0.140 A 
ATOM     28  N   LIG    1        7.893   2.238   0.444  0.00  0.00    -0.490 NA
ATOM     29  C   LIG    1        6.943   1.784  -0.327  0.00  0.00    +0.380 A 
ENDBRANCH  24  25
ENDBRANCH  19  24
ENDBRANCH   3  17
TORSDOF 7
