REMARK  Name = ZINCpe00000blUQU.0
REMARK                            x       y       z     vdW  Elec       q    Type
REMARK                         _______ _______ _______ _____ _____    ______ ____
ROOT
ATOM      1  C   LIG    1        4.875   4.242  -3.807  0.00  0.00    +0.510 C 
ATOM      2  N   LIG    1        4.739   3.654  -2.602  0.00  0.00    -0.610 N 
ATOM      3  C   LIG    1        5.273   2.306  -2.362  0.00  0.00    +0.290 C 
ATOM      4  C   LIG    1        4.147   1.419  -1.821  0.00  0.00    +0.030 C 
ATOM      5  C   LIG    1        3.522   2.084  -0.596  0.00  0.00    -0.070 C 
ATOM      6  C   LIG    1        2.938   3.445  -0.969  0.00  0.00    +0.030 C 
ATOM      7  C   LIG    1        4.586   2.257   0.503  0.00  0.00    +0.020 C 
ATOM      8  C   LIG    1        4.392   1.019   1.415  0.00  0.00    +0.020 C 
ATOM      9  C   LIG    1        2.854   0.839   1.426  0.00  0.00    +0.010 C 
ATOM     10  C   LIG    1        2.422   1.183  -0.015  0.00  0.00    +0.240 C 
ATOM     11  C   LIG    1        4.054   4.348  -1.503  0.00  0.00    +0.270 C 
ATOM     12  O   LIG    1        5.442   3.658  -4.706  0.00  0.00    -0.530 OA
ENDROOT
BRANCH  10  13
ATOM     13  N   LIG    1        1.143   1.898   0.001  0.00  0.00    -0.730 N 
ATOM     14  H   LIG    1        1.130   2.868   0.007  0.00  0.00    +0.400 HD
ATOM     15  C   LIG    1       -0.014   1.209   0.009  0.00  0.00    +0.510 C 
ATOM     16  O   LIG    1        0.002  -0.004   0.002  0.00  0.00    -0.510 OA
BRANCH  15  17
ATOM     17  C   LIG    1       -1.330   1.944   0.019  0.00  0.00    +0.160 C 
ATOM     18  C   LIG    1       -1.471   2.718   1.331  0.00  0.00    +0.040 C 
BRANCH  17  19
ATOM     19  O   LIG    1       -2.401   1.006  -0.099  0.00  0.00    -0.360 OA
ATOM     20  C   LIG    1       -3.559   1.526  -0.755  0.00  0.00    +0.200 C 
ENDBRANCH  17  19
ENDBRANCH  15  17
ENDBRANCH  10  13
BRANCH   1  21
ATOM     21  C   LIG    1        4.322   5.624  -4.038  0.00  0.00    +0.300 C 
BRANCH  21  23
ATOM     22  C   LIG    1        4.191   7.246  -5.852  0.00  0.00    +0.510 C 
ATOM     23  N   LIG    1        4.596   6.036  -5.417  0.00  0.00    -0.720 N 
ATOM     24  H   LIG    1        5.069   5.439  -6.016  0.00  0.00    +0.410 HD
ATOM     25  O   LIG    1        3.599   7.993  -5.102  0.00  0.00    -0.540 OA
BRANCH  22  27
ATOM     26  C   LIG    1        3.911   9.073  -7.504  0.00  0.00    +0.040 C 
ATOM     27  C   LIG    1        4.473   7.670  -7.270  0.00  0.00    +0.060 C 
ENDBRANCH  22  27
ENDBRANCH  21  23
ENDBRANCH   1  21
TORSDOF 6
