REMARK  Name = ZINCtV00000jXiid.0
REMARK                            x       y       z     vdW  Elec       q    Type
REMARK                         _______ _______ _______ _____ _____    ______ ____
ROOT
ATOM      1  O   LIG    1        1.025   2.098   0.004  0.00  0.00    -0.490 OA
ATOM      2  C   LIG    1       -0.018   1.476   0.010  0.00  0.00    +0.510 C 
ENDROOT
BRANCH   2   3
ATOM      3  C   LIG    1        0.002  -0.004   0.002  0.00  0.00    -0.070 A 
ATOM      4  C   LIG    1        1.211  -0.706  -0.019  0.00  0.00    +0.080 A 
ATOM      5  C   LIG    1        1.183  -2.088  -0.021  0.00  0.00    +0.170 A 
ATOM      6  N   LIG    1        0.039  -2.742  -0.014  0.00  0.00    -0.410 NA
ATOM      7  C   LIG    1       -1.123  -2.119   0.001  0.00  0.00    +0.040 A 
ATOM      8  C   LIG    1       -1.188  -0.739   0.009  0.00  0.00    +0.090 A 
BRANCH   7   9
ATOM      9  C   LIG    1       -2.397  -2.923   0.009  0.00  0.00    +0.530 C 
ATOM     10  F   LIG    1       -3.394  -2.210   0.683  0.00  0.00    -0.170 F 
ATOM     11  F   LIG    1       -2.175  -4.142   0.660  0.00  0.00    -0.160 F 
ATOM     12  F   LIG    1       -2.805  -3.165  -1.307  0.00  0.00    -0.170 F 
ENDBRANCH   7   9
BRANCH   5  13
ATOM     13  C   LIG    1        2.479  -2.857  -0.039  0.00  0.00    +0.010 C 
ATOM     14  C   LIG    1        3.747  -2.096  -0.430  0.00  0.00    +0.040 C 
ATOM     15  C   LIG    1        3.133  -3.108  -1.399  0.00  0.00    +0.050 C 
ENDBRANCH   5  13
ENDBRANCH   2   3
BRANCH   2  16
ATOM     16  O   LIG    1       -1.193   2.134   0.019  0.00  0.00    -0.340 OA
BRANCH  16  17
ATOM     17  C   LIG    1       -1.137   3.585   0.027  0.00  0.00    +0.190 C 
ATOM     18  C   LIG    1       -1.160   4.121  -1.415  0.00  0.00    +0.020 C 
ATOM     19  C   LIG    1       -2.421   5.001  -1.538  0.00  0.00    +0.020 C 
ATOM     20  C   LIG    1       -2.727   5.432  -0.082  0.00  0.00    +0.030 C 
ATOM     21  C   LIG    1       -2.385   4.158   0.730  0.00  0.00    +0.020 C 
BRANCH  21  22
ATOM     22  C   LIG    1       -2.062   4.519   2.182  0.00  0.00    +0.080 C 
BRANCH  22  23
ATOM     23  C   LIG    1       -3.322   4.960   2.881  0.00  0.00    -0.080 A 
ATOM     24  C   LIG    1       -3.683   6.295   2.878  0.00  0.00    +0.030 A 
ATOM     25  C   LIG    1       -4.841   6.700   3.515  0.00  0.00    +0.020 A 
ATOM     26  C   LIG    1       -5.633   5.771   4.165  0.00  0.00    -0.040 A 
ATOM     27  C   LIG    1       -5.269   4.436   4.173  0.00  0.00    +0.020 A 
ATOM     28 CL   LIG    1       -7.083   6.279   4.972  0.00  0.00    -0.070 Cl
ATOM     29  C   LIG    1       -4.114   4.032   3.530  0.00  0.00    +0.030 A 
ENDBRANCH  22  23
ENDBRANCH  21  22
ENDBRANCH  16  17
ENDBRANCH   2  16
TORSDOF 7
