REMARK  Name = ZINCvU000000044h.0
REMARK                            x       y       z     vdW  Elec       q    Type
REMARK                         _______ _______ _______ _____ _____    ______ ____
ROOT
ATOM      1  C   LIG    1        6.429   0.283   5.740  0.00  0.00    +0.160 A 
ATOM      2  N   LIG    1        7.155   1.371   5.632  0.00  0.00    -0.280 NA
ATOM      3  N   LIG    1        8.330   1.162   6.109  0.00  0.00    -0.250 NA
ATOM      4  C   LIG    1        8.426  -0.064   6.538  0.00  0.00    +0.190 A 
ATOM      5  N   LIG    1        7.219  -0.668   6.319  0.00  0.00    -0.420 N 
ENDROOT
BRANCH   5   6
ATOM      6  C   LIG    1        6.851  -2.050   6.639  0.00  0.00    +0.200 C 
ATOM      7  C   LIG    1        5.604  -2.623   5.962  0.00  0.00    +0.070 C 
ATOM      8  C   LIG    1        5.573  -2.270   7.451  0.00  0.00    +0.060 C 
ENDBRANCH   5   6
BRANCH   1   9
ATOM      9  S   LIG    1        4.755   0.084   5.228  0.00  0.00    +0.070 S 
BRANCH   9  10
ATOM     10  C   LIG    1        4.426   1.742   4.579  0.00  0.00    +0.240 C 
BRANCH  10  14
ATOM     11  C   LIG    1        0.912   2.069   3.897  0.00  0.00    +0.220 A 
ATOM     12  N   LIG    1        1.398   1.684   2.745  0.00  0.00    -0.360 NA
ATOM     13  O   LIG    1        2.598   1.531   2.829  0.00  0.00    +0.090 OA
ATOM     14  C   LIG    1        3.010   1.810   4.070  0.00  0.00    +0.190 A 
ATOM     15  N   LIG    1        1.951   2.158   4.758  0.00  0.00    -0.450 NA
BRANCH  11  22
ATOM     16  C   LIG    1       -1.082   1.791   1.820  0.00  0.00    +0.110 C 
ATOM     17  C   LIG    1       -1.479   2.228   3.206  0.00  0.00    -0.050 A 
ATOM     18  C   LIG    1       -2.800   2.506   3.492  0.00  0.00    +0.000 A 
ATOM     19  C   LIG    1       -3.166   2.902   4.766  0.00  0.00    +0.040 A 
ATOM     20  C   LIG    1       -2.210   3.033   5.756  0.00  0.00    +0.000 A 
ATOM     21  C   LIG    1       -0.884   2.764   5.480  0.00  0.00    +0.070 A 
ATOM     22  C   LIG    1       -0.511   2.359   4.200  0.00  0.00    -0.040 A 
ENDBRANCH  11  22
ENDBRANCH  10  14
ENDBRANCH   9  10
ENDBRANCH   1   9
BRANCH   4  23
ATOM     23  C   LIG    1        9.643  -0.699   7.162  0.00  0.00    +0.350 C 
BRANCH  23  24
ATOM     24  O   LIG    1       10.446  -1.293   6.141  0.00  0.00    -0.300 OA
BRANCH  24  25
ATOM     25  C   LIG    1       11.589  -1.913   6.537  0.00  0.00    +0.140 A 
ATOM     26  C   LIG    1       11.930  -1.948   7.880  0.00  0.00    -0.060 A 
ATOM     27  C   LIG    1       13.093  -2.579   8.281  0.00  0.00    +0.060 A 
ATOM     28  C   LIG    1       13.916  -3.174   7.344  0.00  0.00    +0.000 A 
ATOM     29  C   LIG    1       13.579  -3.141   6.003  0.00  0.00    +0.070 A 
ATOM     30  C   LIG    1       12.414  -2.517   5.598  0.00  0.00    -0.070 A 
ATOM     31 CL   LIG    1       11.987  -2.483   3.915  0.00  0.00    -0.050 Cl
ENDBRANCH  24  25
ENDBRANCH  23  24
ENDBRANCH   4  23
TORSDOF 8
