REMARK  Name = ZINCnE000001PyQM.0
REMARK                            x       y       z     vdW  Elec       q    Type
REMARK                         _______ _______ _______ _____ _____    ______ ____
ROOT
ATOM      1  C   LIG    1       -3.076   6.272  -4.771  0.00  0.00    +0.110 C 
ATOM      2  C   LIG    1       -2.483   5.662  -3.528  0.00  0.00    +0.120 A 
ATOM      3  C   LIG    1       -1.112   5.548  -3.412  0.00  0.00    -0.050 A 
ATOM      4  C   LIG    1       -0.571   4.989  -2.262  0.00  0.00    +0.080 A 
ATOM      5  C   LIG    1       -1.432   4.556  -1.270  0.00  0.00    -0.090 A 
ATOM      6  C   LIG    1       -2.803   4.704  -1.453  0.00  0.00    +0.300 A 
ATOM      7  N   LIG    1       -3.281   5.245  -2.563  0.00  0.00    -0.520 NA
ENDROOT
BRANCH   6   8
ATOM      8  N   LIG    1       -3.680   4.278  -0.462  0.00  0.00    -0.440 N 
ATOM      9  C   LIG    1       -4.137   5.419   0.371  0.00  0.00    +0.170 C 
ATOM     10  C   LIG    1       -5.438   4.885   1.021  0.00  0.00    +0.030 C 
ATOM     11  C   LIG    1       -6.072   4.046  -0.112  0.00  0.00    +0.000 C 
ATOM     12  C   LIG    1       -4.904   3.694  -1.052  0.00  0.00    +0.190 C 
ENDBRANCH   6   8
BRANCH   5  13
ATOM     13  C   LIG    1       -0.892   3.939  -0.005  0.00  0.00    +0.260 C 
BRANCH  13  14
ATOM     14  N   LIG    1       -1.067   2.486  -0.059  0.00  0.00    -0.580 NA
ATOM     15  C   LIG    1       -0.017   1.700  -0.090  0.00  0.00    +0.330 A 
ATOM     16  N   LIG    1        1.300   2.062  -0.087  0.00  0.00    -0.490 NA
ATOM     17  N   LIG    1        2.213   1.032  -0.131  0.00  0.00    -0.190 NA
ATOM     18  C   LIG    1        1.781  -0.180  -0.173  0.00  0.00    -0.170 A 
ATOM     19  S   LIG    1        0.012  -0.072  -0.156  0.00  0.00    -0.090 S 
BRANCH  18  20
ATOM     20  C   LIG    1        2.612  -1.436  -0.224  0.00  0.00    +0.580 C 
ATOM     21  F   LIG    1        2.311  -2.147  -1.391  0.00  0.00    -0.180 F 
ATOM     22  F   LIG    1        2.327  -2.230   0.892  0.00  0.00    -0.180 F 
ATOM     23  F   LIG    1        3.970  -1.098  -0.222  0.00  0.00    -0.170 F 
ENDBRANCH  18  20
ENDBRANCH  13  14
ENDBRANCH   5  13
TORSDOF 4
