REMARK  Name = ZINCpk000000n7SO.0
REMARK                            x       y       z     vdW  Elec       q    Type
REMARK                         _______ _______ _______ _____ _____    ______ ____
ROOT
ATOM      1  C   LIG    1        2.446   2.263  -0.400  0.00  0.00    +0.680 C 
ATOM      2  N   LIG    1        1.456   1.439  -0.004  0.00  0.00    -0.630 N 
ATOM      3  C   LIG    1       -0.019   1.526   0.010  0.00  0.00    +0.350 C 
ATOM      4  C   LIG    1        0.002  -0.004   0.002  0.00  0.00    +0.140 C 
ATOM      5  C   LIG    1       -0.089  -0.653  -1.387  0.00  0.00    +0.140 C 
ATOM      6  C   LIG    1       -1.546  -1.176  -1.385  0.00  0.00    +0.280 C 
ATOM      7  C   LIG    1       -1.885  -1.335   0.083  0.00  0.00    +0.220 A 
ATOM      8  N   LIG    1       -2.750  -1.905   0.886  0.00  0.00    -0.520 NA
ATOM      9  C   LIG    1       -2.451  -1.619   2.151  0.00  0.00    +0.440 A 
ATOM     10  N   LIG    1       -1.388  -0.861   2.175  0.00  0.00    -0.290 NA
ATOM     11  N   LIG    1       -0.998  -0.663   0.838  0.00  0.00    -0.380 N 
ATOM     12  C   LIG    1        1.412   0.086   0.589  0.00  0.00    +0.320 C 
ATOM     13  O   LIG    1        2.179   3.353  -0.868  0.00  0.00    -0.560 OA
ENDROOT
BRANCH   6  14
ATOM     14  N   LIG    1       -1.628  -2.470  -2.075  0.00  0.00    -0.660 NA
ATOM     15  H   LIG    1       -1.289  -3.216  -1.486  0.00  0.00    +0.360 HD
BRANCH  14  16
ATOM     16  C   LIG    1       -2.999  -2.739  -2.529  0.00  0.00    +0.120 C 
ATOM     17  C   LIG    1       -3.208  -4.251  -2.659  0.00  0.00    +0.020 C 
ATOM     18  C   LIG    1       -4.614  -4.515  -3.206  0.00  0.00    +0.000 C 
ATOM     19  C   LIG    1       -4.778  -3.789  -4.544  0.00  0.00    +0.210 C 
ATOM     20  O   LIG    1       -4.540  -2.392  -4.358  0.00  0.00    -0.380 OA
ATOM     21  C   LIG    1       -3.225  -2.081  -3.892  0.00  0.00    +0.220 C 
ENDBRANCH  14  16
ENDBRANCH   6  14
BRANCH   1  22
ATOM     22  O   LIG    1        3.731   1.880  -0.279  0.00  0.00    -0.360 OA
BRANCH  22  24
ATOM     23  C   LIG    1        4.625   4.117   0.074  0.00  0.00    +0.040 C 
ATOM     24  C   LIG    1        4.744   2.819  -0.726  0.00  0.00    +0.140 C 
ATOM     25  C   LIG    1        4.543   3.116  -2.213  0.00  0.00    +0.040 C 
ATOM     26  C   LIG    1        6.132   2.212  -0.510  0.00  0.00    +0.080 C 
ENDBRANCH  22  24
ENDBRANCH   1  22
TORSDOF 4
