REMARK  Name = ZINCpe000000ZzMj.0
REMARK                            x       y       z     vdW  Elec       q    Type
REMARK                         _______ _______ _______ _____ _____    ______ ____
ROOT
ATOM      1  N   LIG    1        1.706  -0.333  -4.661  0.00  0.00    -0.700 N 
ATOM      2  H   LIG    1        2.170  -0.242  -5.508  0.00  0.00    +0.410 HD
ENDROOT
BRANCH   1   3
ATOM      3  C   LIG    1        2.359  -0.027  -3.478  0.00  0.00    +0.460 A 
ATOM      4  N   LIG    1        1.734  -0.149  -2.310  0.00  0.00    -0.570 NA
ATOM      5  C   LIG    1        2.354   0.142  -1.184  0.00  0.00    +0.390 A 
ATOM      6  N   LIG    1        3.602   0.564  -1.165  0.00  0.00    -0.550 NA
ATOM      7  C   LIG    1        4.293   0.706  -2.289  0.00  0.00    +0.200 A 
ATOM      8  C   LIG    1        5.714   1.162  -2.534  0.00  0.00    +0.110 C 
ATOM      9  C   LIG    1        6.044   0.703  -3.971  0.00  0.00    +0.040 C 
ATOM     10  C   LIG    1        4.648   0.650  -4.630  0.00  0.00    +0.090 C 
ATOM     11  C   LIG    1        3.684   0.414  -3.491  0.00  0.00    -0.280 A 
BRANCH   5  12
ATOM     12  C   LIG    1        1.613  -0.008   0.119  0.00  0.00    +0.030 C 
ATOM     13  C   LIG    1        0.344   0.825   0.310  0.00  0.00    +0.040 C 
ATOM     14  C   LIG    1        0.241  -0.683   0.078  0.00  0.00    +0.060 C 
ENDBRANCH   5  12
ENDBRANCH   1   3
BRANCH   1  15
ATOM     15  C   LIG    1        0.316  -0.795  -4.633  0.00  0.00    +0.290 C 
BRANCH  15  21
ATOM     16  O   LIG    1        1.144   1.003  -8.545  0.00  0.00    -0.530 OA
ATOM     17  C   LIG    1        1.009  -0.005  -7.885  0.00  0.00    +0.480 C 
ATOM     18  C   LIG    1        1.890  -1.193  -8.166  0.00  0.00    +0.280 C 
ATOM     19  O   LIG    1        1.973  -1.992  -6.981  0.00  0.00    -0.360 OA
ATOM     20  C   LIG    1        0.696  -2.396  -6.488  0.00  0.00    +0.250 C 
ATOM     21  C   LIG    1       -0.119  -1.191  -6.045  0.00  0.00    +0.090 C 
ATOM     22  C   LIG    1       -1.608  -1.551  -6.018  0.00  0.00    +0.250 C 
ATOM     23  O   LIG    1       -2.382  -0.409  -5.723  0.00  0.00    -0.360 OA
ATOM     24  C   LIG    1       -2.270   0.628  -6.702  0.00  0.00    +0.220 C 
ATOM     25  C   LIG    1       -0.821   1.123  -6.748  0.00  0.00    +0.260 C 
ATOM     26  N   LIG    1        0.063  -0.043  -6.931  0.00  0.00    -0.600 N 
ENDBRANCH  15  21
ENDBRANCH   1  15
TORSDOF 4
