REMARK  Name = ZINCpe00000bZZmJ.0
REMARK                            x       y       z     vdW  Elec       q    Type
REMARK                         _______ _______ _______ _____ _____    ______ ____
ROOT
ATOM      1  N   LIG    1        1.014   2.539   2.895  0.00  0.00    -0.470 N 
ATOM      2  C   LIG    1       -0.342   1.977   2.856  0.00  0.00    +0.210 C 
ATOM      3  C   LIG    1       -0.421   0.919   1.750  0.00  0.00    +0.300 C 
ATOM      4  N   LIG    1        0.652  -0.063   1.966  0.00  0.00    -0.600 N 
ATOM      5  C   LIG    1        2.024   0.435   2.152  0.00  0.00    +0.320 C 
ATOM      6  C   LIG    1        0.386  -1.384   1.993  0.00  0.00    +0.590 C 
ATOM      7  O   LIG    1        1.296  -2.186   2.088  0.00  0.00    -0.510 OA
ATOM      8  C   LIG    1        2.006   1.512   3.242  0.00  0.00    +0.210 C 
ENDROOT
BRANCH   6   9
ATOM      9  C   LIG    1       -1.001  -1.855   1.906  0.00  0.00    +0.080 C 
ATOM     10  N   LIG    1       -1.753  -1.453   0.929  0.00  0.00    -0.200 NA
ATOM     11  N   LIG    1       -3.079  -1.882   0.813  0.00  0.00    -0.560 N 
ATOM     12  H   LIG    1       -3.536  -1.813  -0.040  0.00  0.00    +0.440 HD
ATOM     13  C   LIG    1       -3.727  -2.388   1.881  0.00  0.00    +0.500 C 
ATOM     14  C   LIG    1       -3.013  -2.500   3.205  0.00  0.00    +0.090 C 
ATOM     15  O   LIG    1       -4.879  -2.750   1.778  0.00  0.00    -0.510 OA
ATOM     16  C   LIG    1       -1.533  -2.794   2.955  0.00  0.00    +0.110 C 
ENDBRANCH   6   9
BRANCH   1  20
ATOM     17  C   LIG    1        3.574   6.127   5.087  0.00  0.00    +0.140 C 
ATOM     18  C   LIG    1        2.302   5.356   4.845  0.00  0.00    +0.190 A 
ATOM     19  C   LIG    1        2.286   4.292   3.966  0.00  0.00    -0.100 A 
ATOM     20  C   LIG    1        1.083   3.611   3.770  0.00  0.00    +0.360 A 
ATOM     21  N   LIG    1        0.004   4.005   4.441  0.00  0.00    -0.560 NA
ATOM     22  C   LIG    1        0.066   5.023   5.275  0.00  0.00    +0.360 A 
ATOM     23  N   LIG    1        1.185   5.689   5.478  0.00  0.00    -0.530 NA
BRANCH  22  24
ATOM     24  C   LIG    1       -1.178   5.439   6.017  0.00  0.00    +0.060 C 
ATOM     25  C   LIG    1       -1.524   6.886   5.662  0.00  0.00    +0.050 C 
ATOM     26  C   LIG    1       -0.934   5.328   7.524  0.00  0.00    +0.050 C 
ENDBRANCH  22  24
ENDBRANCH   1  20
TORSDOF 3
