REMARK  Name = ZINCpk00000FgYrC.0
REMARK                            x       y       z     vdW  Elec       q    Type
REMARK                         _______ _______ _______ _____ _____    ______ ____
ROOT
ATOM      1  N   LIG    1       -0.755   1.038  -2.883  0.00  0.00    -0.520 N 
ATOM      2  H   LIG    1       -0.106   1.606  -2.439  0.00  0.00    +0.430 HD
ATOM      3  C   LIG    1       -0.657  -0.302  -2.785  0.00  0.00    +0.520 C 
ATOM      4  O   LIG    1       -1.468  -1.012  -3.341  0.00  0.00    -0.530 OA
ENDROOT
BRANCH   3   5
ATOM      5  C   LIG    1        0.460  -0.919  -1.983  0.00  0.00    +0.010 C 
ATOM      6  C   LIG    1        1.807  -0.491  -2.572  0.00  0.00    +0.040 C 
ATOM      7  C   LIG    1        2.940  -1.092  -1.735  0.00  0.00    +0.300 C 
ATOM      8  N   LIG    1        2.751  -2.547  -1.657  0.00  0.00    -0.610 N 
ATOM      9  C   LIG    1        1.458  -3.067  -1.190  0.00  0.00    +0.270 C 
ATOM     10  C   LIG    1        3.743  -3.389  -2.007  0.00  0.00    +0.600 C 
ATOM     11  O   LIG    1        4.766  -2.951  -2.502  0.00  0.00    -0.520 OA
ATOM     12  C   LIG    1        0.342  -2.444  -2.033  0.00  0.00    +0.060 C 
BRANCH  10  13
ATOM     13  C   LIG    1        3.591  -4.831  -1.793  0.00  0.00    -0.280 A 
ATOM     14  C   LIG    1        4.158  -5.810  -2.560  0.00  0.00    +0.100 A 
ATOM     15  C   LIG    1        3.851  -7.080  -2.134  0.00  0.00    +0.000 A 
ATOM     16  C   LIG    1        3.060  -7.142  -1.056  0.00  0.00    -0.070 A 
ATOM     17  S   LIG    1        2.657  -5.578  -0.505  0.00  0.00    +0.220 S 
ENDBRANCH  10  13
ENDBRANCH   3   5
BRANCH   1  20
ATOM     18  O   LIG    1       -1.078   3.664  -3.171  0.00  0.00    -0.530 OA
ATOM     19  C   LIG    1       -1.888   2.952  -3.732  0.00  0.00    +0.570 C 
ATOM     20  N   LIG    1       -1.790   1.612  -3.633  0.00  0.00    -0.520 N 
ATOM     21  H   LIG    1       -2.437   1.044  -4.081  0.00  0.00    +0.430 HD
BRANCH  19  22
ATOM     22  C   LIG    1       -2.980   3.557  -4.523  0.00  0.00    -0.190 A 
ATOM     23  C   LIG    1       -3.096   4.948  -4.628  0.00  0.00    +0.140 A 
ATOM     24  C   LIG    1       -4.135   5.464  -5.385  0.00  0.00    -0.030 A 
ATOM     25  C   LIG    1       -5.022   4.598  -5.997  0.00  0.00    +0.300 A 
ATOM     26  N   LIG    1       -4.890   3.290  -5.876  0.00  0.00    -0.480 NA
ATOM     27  C   LIG    1       -3.917   2.752  -5.172  0.00  0.00    +0.300 A 
ENDBRANCH  19  22
ENDBRANCH   1  20
TORSDOF 4
