REMARK  Name = ZINCrg00000fSphM.0
REMARK                            x       y       z     vdW  Elec       q    Type
REMARK                         _______ _______ _______ _____ _____    ______ ____
ROOT
ATOM      1  N   LIG    1       -5.912  -2.297  -0.575  0.00  0.00    -0.450 N 
ATOM      2  C   LIG    1       -4.606  -2.951  -0.733  0.00  0.00    +0.230 C 
ATOM      3  C   LIG    1       -3.635  -2.405   0.319  0.00  0.00    +0.300 C 
ATOM      4  N   LIG    1       -3.611  -0.938   0.215  0.00  0.00    -0.630 N 
ATOM      5  C   LIG    1       -4.894  -0.218   0.234  0.00  0.00    +0.330 C 
ATOM      6  C   LIG    1       -2.445  -0.270   0.113  0.00  0.00    +0.720 C 
ATOM      7  N   LIG    1       -1.287  -0.950  -0.003  0.00  0.00    -0.670 N 
ATOM      8  H   LIG    1       -1.298  -1.917  -0.079  0.00  0.00    +0.410 HD
ATOM      9  O   LIG    1       -2.437   0.946   0.124  0.00  0.00    -0.570 OA
ATOM     10  C   LIG    1       -5.816  -0.851  -0.820  0.00  0.00    +0.180 C 
ENDROOT
BRANCH   1  15
ATOM     11  C   LIG    1      -10.149  -3.374  -2.902  0.00  0.00    +0.200 C 
ATOM     12  C   LIG    1       -8.717  -3.365  -2.431  0.00  0.00    +0.180 A 
ATOM     13  N   LIG    1       -7.768  -4.163  -2.831  0.00  0.00    -0.280 NA
ATOM     14  N   LIG    1       -6.670  -3.880  -2.225  0.00  0.00    -0.320 NA
ATOM     15  C   LIG    1       -6.862  -2.878  -1.399  0.00  0.00    +0.360 A 
ATOM     16  N   LIG    1       -8.175  -2.522  -1.501  0.00  0.00    -0.480 N 
ATOM     17  C   LIG    1       -8.861  -1.455  -0.768  0.00  0.00    +0.350 C 
ENDBRANCH   1  15
BRANCH   7  18
ATOM     18  C   LIG    1       -0.068  -0.261  -0.014  0.00  0.00    +0.130 A 
ATOM     19  C   LIG    1        0.027   0.995  -0.602  0.00  0.00    +0.100 A 
ATOM     20  C   LIG    1        1.254   1.642  -0.583  0.00  0.00    -0.010 A 
ATOM     21  C   LIG    1        2.337   1.022   0.009  0.00  0.00    +0.280 A 
ATOM     22  N   LIG    1        2.221  -0.173   0.555  0.00  0.00    -0.480 NA
ATOM     23  C   LIG    1        1.071  -0.826   0.560  0.00  0.00    +0.340 A 
BRANCH  23  24
ATOM     24  N   LIG    1        0.995  -2.092   1.150  0.00  0.00    -0.330 N 
ATOM     25  C   LIG    1        2.026  -2.960   1.318  0.00  0.00    +0.260 A 
ATOM     26  C   LIG    1        1.536  -4.065   1.927  0.00  0.00    -0.100 A 
ATOM     27  C   LIG    1        0.167  -3.870   2.139  0.00  0.00    +0.260 A 
ATOM     28  N   LIG    1       -0.157  -2.688   1.680  0.00  0.00    -0.300 NA
ENDBRANCH  23  24
ENDBRANCH   7  18
TORSDOF 3
