REMARK  Name = ZINCvU0000000GJQ.0
REMARK                            x       y       z     vdW  Elec       q    Type
REMARK                         _______ _______ _______ _____ _____    ______ ____
ROOT
ATOM      1  N   LIG    1       -0.984  -0.979   0.006  0.00  0.00    -0.420 N 
ATOM      2  C   LIG    1        0.002  -0.004   0.002  0.00  0.00    +0.060 A 
ATOM      3  C   LIG    1       -0.017   1.382   0.010  0.00  0.00    +0.010 A 
ATOM      4  C   LIG    1        1.171   2.085   0.002  0.00  0.00    +0.030 A 
ATOM      5  C   LIG    1        2.384   1.414  -0.012  0.00  0.00    +0.010 A 
ATOM      6  C   LIG    1        2.422   0.037  -0.020  0.00  0.00    +0.060 A 
ATOM      7  C   LIG    1        1.229  -0.689  -0.013  0.00  0.00    +0.060 A 
ATOM      8  N   LIG    1        0.946  -2.018  -0.018  0.00  0.00    -0.490 NA
ATOM      9  C   LIG    1       -0.353  -2.193  -0.006  0.00  0.00    +0.250 A 
ENDROOT
BRANCH   1  13
ATOM     10  C   LIG    1       -5.105  -0.331   0.047  0.00  0.00    +0.150 A 
ATOM     11  C   LIG    1       -4.509  -0.935  -1.050  0.00  0.00    +0.000 A 
ATOM     12  C   LIG    1       -3.145  -1.150  -1.065  0.00  0.00    +0.080 A 
ATOM     13  C   LIG    1       -2.370  -0.761   0.020  0.00  0.00    +0.070 A 
ATOM     14  C   LIG    1       -2.968  -0.162   1.120  0.00  0.00    +0.070 A 
ATOM     15  C   LIG    1       -4.331   0.058   1.131  0.00  0.00    -0.060 A 
BRANCH  10  16
ATOM     16  O   LIG    1       -6.448  -0.121   0.061  0.00  0.00    -0.310 OA
BRANCH  16  18
ATOM     17  C   LIG    1       -8.508   0.658   1.056  0.00  0.00    +0.070 C 
ATOM     18  C   LIG    1       -6.995   0.506   1.223  0.00  0.00    +0.190 C 
ENDBRANCH  16  18
ENDBRANCH  10  16
ENDBRANCH   1  13
BRANCH   9  19
ATOM     19  S   LIG    1       -1.165  -3.757  -0.006  0.00  0.00    +0.070 S 
BRANCH  19  20
ATOM     20  C   LIG    1        0.272  -4.857  -0.026  0.00  0.00    +0.120 C 
BRANCH  20  21
ATOM     21  C   LIG    1       -0.193  -6.290  -0.029  0.00  0.00    +0.390 C 
ATOM     22  O   LIG    1       -1.374  -6.542  -0.018  0.00  0.00    -0.400 OA
BRANCH  21  23
ATOM     23  C   LIG    1        0.816  -7.410  -0.045  0.00  0.00    +0.230 C 
BRANCH  23  24
ATOM     24  C   LIG    1        0.231  -8.603  -0.755  0.00  0.00    +0.020 A 
ATOM     25  N   LIG    1        0.725  -9.146  -1.817  0.00  0.00    -0.440 NA
ATOM     26  C   LIG    1        0.087 -10.187  -2.311  0.00  0.00    +0.060 A 
ATOM     27  C   LIG    1       -1.006 -10.543  -1.630  0.00  0.00    -0.080 A 
ATOM     28  C   LIG    1        0.552 -10.918  -3.545  0.00  0.00    +0.160 C 
ATOM     29  S   LIG    1       -1.179  -9.438  -0.268  0.00  0.00    +0.200 S 
ENDBRANCH  23  24
BRANCH  23  30
ATOM     30  C   LIG    1        1.159  -7.781   1.338  0.00  0.00    +0.200 C 
ATOM     31  N   LIG    1        1.423  -8.068   2.405  0.00  0.00    -0.370 NA
ENDBRANCH  23  30
ENDBRANCH  21  23
ENDBRANCH  20  21
ENDBRANCH  19  20
ENDBRANCH   9  19
TORSDOF 9
