REMARK  Name = ZINCrH000004q6FM.0
REMARK                            x       y       z     vdW  Elec       q    Type
REMARK                         _______ _______ _______ _____ _____    ______ ____
ROOT
ATOM      1  C   LIG    1       -7.793  -2.796  -7.137  0.00  0.00    +0.120 C 
ATOM      2  C   LIG    1       -6.604  -2.538  -6.248  0.00  0.00    -0.110 A 
ATOM      3  C   LIG    1       -5.375  -2.165  -6.640  0.00  0.00    +0.040 A 
ATOM      4  N   LIG    1       -4.570  -2.030  -5.541  0.00  0.00    -0.440 N 
ATOM      5  C   LIG    1       -5.269  -2.316  -4.412  0.00  0.00    +0.310 A 
ATOM      6  C   LIG    1       -4.949  -1.931  -8.067  0.00  0.00    +0.150 C 
ATOM      7  C   LIG    1       -6.563  -2.652  -4.785  0.00  0.00    -0.100 A 
ENDROOT
BRANCH   5   8
ATOM      8  N   LIG    1       -4.775  -2.284  -3.116  0.00  0.00    -0.670 N 
ATOM      9  H   LIG    1       -4.478  -1.445  -2.731  0.00  0.00    +0.410 HD
ATOM     10  C   LIG    1       -4.707  -3.419  -2.393  0.00  0.00    +0.520 C 
ATOM     11  O   LIG    1       -5.076  -4.469  -2.875  0.00  0.00    -0.480 OA
BRANCH  10  12
ATOM     12  C   LIG    1       -4.173  -3.384  -0.984  0.00  0.00    +0.220 C 
BRANCH  12  13
ATOM     13  N   LIG    1       -4.348  -4.702  -0.360  0.00  0.00    -0.520 NA
ATOM     14  C   LIG    1       -5.758  -4.944  -0.027  0.00  0.00    +0.200 C 
BRANCH  13  15
ATOM     15  C   LIG    1       -3.495  -4.841   0.827  0.00  0.00    +0.260 C 
BRANCH  15  16
ATOM     16  C   LIG    1       -3.512  -6.274   1.294  0.00  0.00    -0.090 A 
ATOM     17  C   LIG    1       -4.402  -6.730   2.177  0.00  0.00    -0.050 A 
ATOM     18  S   LIG    1       -4.113  -8.438   2.477  0.00  0.00    +0.100 S 
ATOM     19  C   LIG    1       -2.759  -8.437   1.354  0.00  0.00    -0.050 A 
ATOM     20  C   LIG    1       -2.606  -7.216   0.840  0.00  0.00    +0.020 A 
ENDBRANCH  15  16
ENDBRANCH  13  15
ENDBRANCH  12  13
ENDBRANCH  10  12
ENDBRANCH   5   8
BRANCH   7  21
ATOM     21  C   LIG    1       -7.639  -3.030  -3.919  0.00  0.00    +0.290 C 
ATOM     22  N   LIG    1       -8.492  -3.329  -3.232  0.00  0.00    -0.430 NA
ENDBRANCH   7  21
BRANCH   4  23
ATOM     23  C   LIG    1       -3.160  -1.636  -5.577  0.00  0.00    +0.430 C 
BRANCH  23  24
ATOM     24  C   LIG    1       -2.303  -2.856  -5.799  0.00  0.00    -0.050 A 
ATOM     25  C   LIG    1       -1.840  -3.287  -6.986  0.00  0.00    -0.020 A 
ATOM     26  C   LIG    1       -1.086  -4.455  -6.732  0.00  0.00    -0.070 A 
ATOM     27  C   LIG    1       -1.133  -4.669  -5.405  0.00  0.00    +0.180 A 
ATOM     28  O   LIG    1       -1.867  -3.694  -4.844  0.00  0.00    -0.170 OA
ENDBRANCH  23  24
ENDBRANCH   4  23
TORSDOF 8
