REMARK  Name = ZINCrD000000CHEC.0
REMARK                            x       y       z     vdW  Elec       q    Type
REMARK                         _______ _______ _______ _____ _____    ______ ____
ROOT
ATOM      1  O   LIG    1        1.057  -0.597  -0.113  0.00  0.00    -0.520 OA
ATOM      2  C   LIG    1        0.002  -0.004   0.002  0.00  0.00    +0.600 C 
ATOM      3  N   LIG    1       -1.150  -0.694   0.111  0.00  0.00    -0.640 N 
ATOM      4  C   LIG    1       -2.582  -0.362   0.169  0.00  0.00    +0.270 C 
ATOM      5  C   LIG    1       -2.869  -1.751  -0.425  0.00  0.00    +0.140 C 
ATOM      6  C   LIG    1       -1.530  -2.110   0.231  0.00  0.00    +0.320 C 
ENDROOT
BRANCH   5   7
ATOM      7  C   LIG    1       -2.852  -1.799  -1.932  0.00  0.00    -0.110 A 
ATOM      8  C   LIG    1       -1.685  -1.521  -2.618  0.00  0.00    +0.070 A 
ATOM      9  C   LIG    1       -1.666  -1.570  -3.999  0.00  0.00    -0.010 A 
ATOM     10  C   LIG    1       -2.820  -1.889  -4.696  0.00  0.00    +0.110 A 
ATOM     11  C   LIG    1       -3.990  -2.162  -4.007  0.00  0.00    -0.010 A 
ATOM     12  F   LIG    1       -2.804  -1.932  -6.046  0.00  0.00    -0.130 F 
ATOM     13  C   LIG    1       -4.005  -2.117  -2.626  0.00  0.00    +0.060 A 
ENDBRANCH   5   7
BRANCH   2  14
ATOM     14  C   LIG    1       -0.017   1.474   0.022  0.00  0.00    -0.180 A 
ATOM     15  C   LIG    1        1.150   2.201  -0.220  0.00  0.00    +0.330 A 
ATOM     16  N   LIG    1        1.139   3.518  -0.209  0.00  0.00    -0.480 NA
ATOM     17  C   LIG    1        0.043   4.206   0.039  0.00  0.00    +0.310 A 
ATOM     18  C   LIG    1       -1.165   3.559   0.298  0.00  0.00    -0.100 A 
ATOM     19  C   LIG    1       -1.202   2.165   0.291  0.00  0.00    +0.110 A 
BRANCH  18  20
ATOM     20  C   LIG    1       -2.394   4.344   0.576  0.00  0.00    -0.060 A 
ATOM     21  C   LIG    1       -3.598   3.690   0.828  0.00  0.00    +0.050 A 
ATOM     22  C   LIG    1       -4.737   4.423   1.091  0.00  0.00    -0.010 A 
ATOM     23  C   LIG    1       -4.686   5.808   1.095  0.00  0.00    +0.110 A 
ATOM     24  C   LIG    1       -3.492   6.462   0.841  0.00  0.00    -0.010 A 
ATOM     25  F   LIG    1       -5.805   6.521   1.349  0.00  0.00    -0.130 F 
ATOM     26  C   LIG    1       -2.347   5.737   0.582  0.00  0.00    +0.060 A 
ENDBRANCH  18  20
ENDBRANCH   2  14
BRANCH   5  27
ATOM     27  O   LIG    1       -3.999  -2.413   0.148  0.00  0.00    -0.530 OA
ATOM     28  H   LIG    1       -4.841  -2.184  -0.268  0.00  0.00    +0.390 HD
ENDBRANCH   5  27
TORSDOF 4
