REMARK  Name = ZINCqH0000038DbA.0
REMARK                            x       y       z     vdW  Elec       q    Type
REMARK                         _______ _______ _______ _____ _____    ______ ____
ROOT
ATOM      1  C   LIG    1        1.152   3.171   0.029  0.00  0.00    +0.160 A 
ATOM      2  C   LIG    1        1.170   1.781   0.015  0.00  0.00    -0.020 A 
ATOM      3  C   LIG    1       -0.013   1.076   0.016  0.00  0.00    +0.140 A 
ATOM      4  C   LIG    1       -1.232   1.759   0.025  0.00  0.00    -0.180 A 
ATOM      5  C   LIG    1       -1.245   3.156   0.044  0.00  0.00    +0.090 A 
ATOM      6  C   LIG    1       -0.058   3.854   0.043  0.00  0.00    -0.080 A 
ENDROOT
BRANCH   4   7
ATOM      7  C   LIG    1       -2.501   1.007   0.019  0.00  0.00    +0.560 C 
ATOM      8  N   LIG    1       -3.676   1.667   0.028  0.00  0.00    -0.660 N 
ATOM      9  H   LIG    1       -3.688   2.634   0.106  0.00  0.00    +0.410 HD
ATOM     10  O   LIG    1       -2.488  -0.209   0.007  0.00  0.00    -0.520 OA
BRANCH   8  11
ATOM     11  C   LIG    1       -4.880   0.958  -0.076  0.00  0.00    +0.030 A 
ATOM     12  C   LIG    1       -5.010  -0.301   0.508  0.00  0.00    +0.120 A 
ATOM     13  C   LIG    1       -6.215  -0.966   0.380  0.00  0.00    -0.080 A 
ATOM     14  C   LIG    1       -7.252  -0.360  -0.323  0.00  0.00    +0.390 A 
ATOM     15  N   LIG    1       -7.093   0.837  -0.865  0.00  0.00    -0.520 NA
ATOM     16  C   LIG    1       -5.958   1.502  -0.757  0.00  0.00    +0.290 A 
BRANCH  14  17
ATOM     17  N   LIG    1       -8.470  -1.020  -0.458  0.00  0.00    -0.620 N 
ATOM     18  C   LIG    1       -9.530  -0.441  -1.287  0.00  0.00    +0.290 C 
ATOM     19  C   LIG    1       -8.692  -2.295   0.230  0.00  0.00    +0.300 C 
ENDBRANCH  14  17
ENDBRANCH   8  11
ENDBRANCH   4   7
BRANCH   1  20
ATOM     20  O   LIG    1        2.320   3.863   0.027  0.00  0.00    -0.310 OA
BRANCH  20  21
ATOM     21  C   LIG    1        2.229   5.289   0.041  0.00  0.00    +0.320 C 
BRANCH  21  25
ATOM     22  C   LIG    1        5.518   9.005   0.056  0.00  0.00    +0.180 C 
ATOM     23  C   LIG    1        5.066   7.567   0.045  0.00  0.00    +0.050 A 
ATOM     24  N   LIG    1        3.836   7.179   0.049  0.00  0.00    -0.470 NA
ATOM     25  C   LIG    1        3.615   5.880   0.037  0.00  0.00    +0.060 A 
ATOM     26  C   LIG    1        4.721   5.130   0.028  0.00  0.00    -0.050 A 
ATOM     27  S   LIG    1        6.111   6.214   0.024  0.00  0.00    +0.130 S 
ENDBRANCH  21  25
ENDBRANCH  20  21
ENDBRANCH   1  20
TORSDOF 6
