REMARK  Name = ZINCqH0000004EiD.0
REMARK                            x       y       z     vdW  Elec       q    Type
REMARK                         _______ _______ _______ _____ _____    ______ ____
ROOT
ATOM      1  C   LIG    1        1.282   1.641  -0.140  0.00  0.00    +0.240 C 
ATOM      2  C   LIG    1        1.716   2.192  -1.500  0.00  0.00    +0.050 C 
ENDROOT
BRANCH   1   5
ATOM      3  N   LIG    1        3.597   1.349   0.679  0.00  0.00    -0.670 N 
ATOM      4  H   LIG    1        3.777   2.264   0.411  0.00  0.00    +0.410 HD
ATOM      5  C   LIG    1        2.390   0.800   0.438  0.00  0.00    +0.510 C 
ATOM      6  O   LIG    1        2.196  -0.371   0.686  0.00  0.00    -0.510 OA
BRANCH   3  10
ATOM      7  C   LIG    1        6.558  -0.883   2.579  0.00  0.00    -0.090 A 
ATOM      8  C   LIG    1        6.907   0.056   1.625  0.00  0.00    +0.030 A 
ATOM      9  C   LIG    1        5.928   0.797   0.994  0.00  0.00    -0.010 A 
ATOM     10  C   LIG    1        4.592   0.599   1.317  0.00  0.00    +0.140 A 
ATOM     11  C   LIG    1        4.245  -0.341   2.280  0.00  0.00    +0.010 A 
ATOM     12  C   LIG    1        5.229  -1.083   2.904  0.00  0.00    +0.030 A 
BRANCH   7  14
ATOM     13  C   LIG    1        8.091  -0.956   4.527  0.00  0.00    +0.030 C 
ATOM     14  C   LIG    1        7.629  -1.690   3.266  0.00  0.00    +0.050 C 
ENDBRANCH   7  14
ENDBRANCH   3  10
ENDBRANCH   1   5
BRANCH   1  15
ATOM     15  N   LIG    1        0.081   0.819  -0.308  0.00  0.00    -0.720 N 
ATOM     16  H   LIG    1        0.162  -0.142  -0.412  0.00  0.00    +0.410 HD
BRANCH  15  17
ATOM     17  C   LIG    1       -1.182   1.421  -0.323  0.00  0.00    +0.290 A 
ATOM     18  C   LIG    1       -1.298   2.796  -0.168  0.00  0.00    -0.180 A 
ATOM     19  C   LIG    1       -2.548   3.393  -0.188  0.00  0.00    +0.190 A 
ATOM     20  C   LIG    1       -3.687   2.614  -0.353  0.00  0.00    -0.030 A 
ATOM     21  C   LIG    1       -3.571   1.238  -0.503  0.00  0.00    +0.200 A 
ATOM     22  C   LIG    1       -2.320   0.642  -0.487  0.00  0.00    -0.170 A 
BRANCH  21  23
ATOM     23  O   LIG    1       -4.685   0.475  -0.664  0.00  0.00    -0.300 OA
ATOM     24  C   LIG    1       -4.492  -0.933  -0.811  0.00  0.00    +0.240 C 
ENDBRANCH  21  23
BRANCH  20  25
ATOM     25  O   LIG    1       -4.917   3.200  -0.368  0.00  0.00    -0.310 OA
ATOM     26  C   LIG    1       -5.586   3.335   0.888  0.00  0.00    +0.200 C 
ENDBRANCH  20  25
BRANCH  19  27
ATOM     27  O   LIG    1       -2.661   4.740  -0.042  0.00  0.00    -0.300 OA
ATOM     28  C   LIG    1       -1.449   5.479   0.123  0.00  0.00    +0.240 C 
ENDBRANCH  19  27
ENDBRANCH  15  17
ENDBRANCH   1  15
TORSDOF 8
