REMARK  Name = ZINCvU00000009Xn.0
REMARK                            x       y       z     vdW  Elec       q    Type
REMARK                         _______ _______ _______ _____ _____    ______ ____
ROOT
ATOM      1  C   LIG    1       -4.757   0.951  -0.038  0.00  0.00    +0.150 A 
ATOM      2  N   LIG    1       -4.029  -0.138  -0.144  0.00  0.00    -0.290 NA
ATOM      3  N   LIG    1       -2.782   0.169  -0.202  0.00  0.00    -0.250 NA
ATOM      4  C   LIG    1       -2.637   1.472  -0.126  0.00  0.00    +0.220 A 
ATOM      5  N   LIG    1       -3.898   2.013  -0.023  0.00  0.00    -0.440 N 
ENDROOT
BRANCH   4   6
ATOM      6  C   LIG    1       -1.361   2.217  -0.153  0.00  0.00    -0.010 A 
ATOM      7  C   LIG    1       -1.107   3.208   0.795  0.00  0.00    +0.040 A 
ATOM      8  C   LIG    1        0.084   3.903   0.761  0.00  0.00    +0.030 A 
ATOM      9  C   LIG    1        1.029   3.617  -0.208  0.00  0.00    +0.050 A 
ATOM     10  C   LIG    1        0.787   2.632  -1.149  0.00  0.00    +0.030 A 
ATOM     11  C   LIG    1       -0.400   1.928  -1.126  0.00  0.00    -0.000 A 
ATOM     12 CL   LIG    1       -0.702   0.693  -2.308  0.00  0.00    -0.040 Cl
ENDBRANCH   4   6
BRANCH   5  13
ATOM     13  C   LIG    1       -4.246   3.432   0.081  0.00  0.00    +0.230 C 
ATOM     14  C   LIG    1       -4.963   3.703   1.419  0.00  0.00    +0.030 C 
ATOM     15  C   LIG    1       -6.038   4.761   1.066  0.00  0.00    +0.030 C 
ATOM     16  C   LIG    1       -6.519   4.306  -0.334  0.00  0.00    +0.030 C 
ATOM     17  C   LIG    1       -5.235   3.815  -1.034  0.00  0.00    +0.020 C 
ENDBRANCH   5  13
BRANCH   1  18
ATOM     18  S   LIG    1       -6.514   1.027   0.064  0.00  0.00    +0.100 S 
BRANCH  18  19
ATOM     19  C   LIG    1       -6.910  -0.737  -0.018  0.00  0.00    +0.100 C 
BRANCH  19  21
ATOM     20  N   LIG    1       -8.935  -2.159   0.010  0.00  0.00    -0.610 N 
ATOM     21  C   LIG    1       -8.405  -0.920   0.054  0.00  0.00    +0.540 C 
ATOM     22  O   LIG    1       -9.130   0.047   0.152  0.00  0.00    -0.520 OA
ATOM     23  C   LIG    1       -8.058  -3.327  -0.108  0.00  0.00    +0.300 C 
BRANCH  20  24
ATOM     24  C   LIG    1      -10.387  -2.337   0.081  0.00  0.00    +0.350 C 
BRANCH  24  31
ATOM     25  C   LIG    1      -13.246  -2.491  -0.312  0.00  0.00    +0.090 C 
ATOM     26  C   LIG    1      -12.321  -2.479  -1.502  0.00  0.00    -0.080 A 
ATOM     27  C   LIG    1      -12.840  -2.537  -2.782  0.00  0.00    +0.000 A 
ATOM     28  C   LIG    1      -11.992  -2.530  -3.873  0.00  0.00    +0.000 A 
ATOM     29  C   LIG    1      -10.624  -2.462  -3.685  0.00  0.00    +0.000 A 
ATOM     30  C   LIG    1      -10.105  -2.399  -2.405  0.00  0.00    +0.010 A 
ATOM     31  C   LIG    1      -10.953  -2.405  -1.314  0.00  0.00    -0.100 A 
ENDBRANCH  24  31
ENDBRANCH  20  24
ENDBRANCH  19  21
ENDBRANCH  18  19
ENDBRANCH   1  18
TORSDOF 7
