REMARK  Name = ZINCqH0000038bGi.0
REMARK                            x       y       z     vdW  Elec       q    Type
REMARK                         _______ _______ _______ _____ _____    ______ ____
ROOT
ATOM      1  C   LIG    1       -3.480   2.657  -0.636  0.00  0.00    +0.100 C 
ATOM      2  C   LIG    1       -3.313   1.160  -0.646  0.00  0.00    -0.060 A 
ATOM      3  C   LIG    1       -4.421   0.341  -0.731  0.00  0.00    +0.020 A 
ATOM      4  C   LIG    1       -4.269  -1.034  -0.733  0.00  0.00    +0.110 A 
ATOM      5  C   LIG    1       -3.007  -1.593  -0.657  0.00  0.00    -0.670 A 
ATOM      6  C   LIG    1       -1.893  -0.779  -0.578  0.00  0.00    +0.140 A 
ATOM      7  C   LIG    1       -2.043   0.602  -0.575  0.00  0.00    +0.120 A 
ENDROOT
BRANCH   7   8
ATOM      8  N   LIG    1       -0.918   1.428  -0.495  0.00  0.00    -0.670 N 
ATOM      9  H   LIG    1       -0.914   2.287  -0.945  0.00  0.00    +0.410 HD
ATOM     10  C   LIG    1        0.162   1.031   0.208  0.00  0.00    +0.560 C 
ATOM     11  O   LIG    1        0.191  -0.080   0.701  0.00  0.00    -0.510 OA
BRANCH  10  12
ATOM     12  C   LIG    1        1.312   1.944   0.375  0.00  0.00    -0.150 A 
ATOM     13  C   LIG    1        1.341   3.165  -0.300  0.00  0.00    +0.040 A 
ATOM     14  C   LIG    1        2.416   4.015  -0.137  0.00  0.00    +0.000 A 
ATOM     15  C   LIG    1        3.467   3.655   0.687  0.00  0.00    +0.050 A 
ATOM     16  C   LIG    1        3.447   2.443   1.356  0.00  0.00    +0.000 A 
ATOM     17  C   LIG    1        2.376   1.587   1.205  0.00  0.00    -0.020 A 
ATOM     18  C   LIG    1        2.356   0.268   1.934  0.00  0.00    +0.100 C 
ENDBRANCH  10  12
ENDBRANCH   7   8
BRANCH   5  19
ATOM     19  S   LIG    1       -2.818  -3.345  -0.660  0.00  0.00    +2.690 S 
ATOM     20  O   LIG    1       -1.500  -3.605  -1.123  0.00  0.00    -0.950 OA
ATOM     21  O   LIG    1       -3.980  -3.872  -1.286  0.00  0.00    -0.950 OA
BRANCH  19  22
ATOM     22  N   LIG    1       -2.868  -3.846   0.917  0.00  0.00    -0.990 NA
ATOM     23  C   LIG    1       -1.635  -3.944   1.710  0.00  0.00    +0.290 C 
ATOM     24  C   LIG    1       -1.820  -3.135   3.003  0.00  0.00    +0.010 C 
ATOM     25  C   LIG    1       -3.075  -3.626   3.729  0.00  0.00    +0.010 C 
ATOM     26  C   LIG    1       -4.301  -3.401   2.841  0.00  0.00    +0.010 C 
ATOM     27  C   LIG    1       -4.144  -4.208   1.548  0.00  0.00    +0.290 C 
ENDBRANCH  19  22
ENDBRANCH   5  19
TORSDOF 4
