REMARK  Name = ZINCrD00000hQ66Y.0
REMARK                            x       y       z     vdW  Elec       q    Type
REMARK                         _______ _______ _______ _____ _____    ______ ____
ROOT
ATOM      1  N   LIG    1       -5.215   4.627  -2.613  0.00  0.00    -0.710 N 
ATOM      2  H   LIG    1       -5.295   3.764  -3.050  0.00  0.00    +0.410 HD
ATOM      3  C   LIG    1       -4.354   4.785  -1.588  0.00  0.00    +0.550 C 
ATOM      4  O   LIG    1       -4.253   5.862  -1.041  0.00  0.00    -0.530 OA
ENDROOT
BRANCH   3   5
ATOM      5  C   LIG    1       -3.516   3.622  -1.122  0.00  0.00    -0.050 C 
ATOM      6  C   LIG    1       -3.825   3.036   0.257  0.00  0.00    +0.090 C 
ATOM      7  C   LIG    1       -2.557   3.865   0.046  0.00  0.00    +0.040 C 
BRANCH   7   8
ATOM      8  C   LIG    1       -1.241   3.132   0.030  0.00  0.00    -0.060 A 
ATOM      9  C   LIG    1       -1.220   1.750   0.017  0.00  0.00    +0.040 A 
ATOM     10  C   LIG    1       -0.013   1.076   0.008  0.00  0.00    +0.050 A 
ATOM     11  C   LIG    1        1.175   1.782   0.000  0.00  0.00    +0.020 A 
ATOM     12  C   LIG    1        1.157   3.166   0.008  0.00  0.00    +0.070 A 
ATOM     13  F   LIG    1        2.318   3.858  -0.000  0.00  0.00    -0.130 F 
ATOM     14  C   LIG    1       -0.053   3.842   0.022  0.00  0.00    +0.080 A 
ATOM     15  F   LIG    1       -0.073   5.193   0.029  0.00  0.00    -0.120 F 
ENDBRANCH   7   8
ENDBRANCH   3   5
BRANCH   1  16
ATOM     16  C   LIG    1       -6.030   5.757  -3.066  0.00  0.00    +0.290 C 
BRANCH  16  17
ATOM     17  C   LIG    1       -7.275   5.848  -2.222  0.00  0.00    +0.450 C 
ATOM     18  O   LIG    1       -7.463   5.051  -1.334  0.00  0.00    -0.490 OA
BRANCH  17  19
ATOM     19  O   LIG    1       -8.176   6.815  -2.458  0.00  0.00    -0.350 OA
BRANCH  19  21
ATOM     20  C   LIG    1      -10.256   8.004  -2.023  0.00  0.00    +0.070 C 
ATOM     21  C   LIG    1       -9.352   6.842  -1.607  0.00  0.00    +0.200 C 
ENDBRANCH  19  21
ENDBRANCH  17  19
ENDBRANCH  16  17
BRANCH  16  22
ATOM     22  C   LIG    1       -6.420   5.549  -4.530  0.00  0.00    +0.080 C 
BRANCH  22  23
ATOM     23  C   LIG    1       -5.163   5.581  -5.402  0.00  0.00    +0.180 C 
BRANCH  23  24
ATOM     24  O   LIG    1       -5.527   5.388  -6.771  0.00  0.00    -0.370 OA
BRANCH  24  25
ATOM     25  C   LIG    1       -4.420   5.401  -7.674  0.00  0.00    +0.110 C 
ATOM     26  C   LIG    1       -3.703   6.750  -7.584  0.00  0.00    +0.020 C 
ATOM     27  C   LIG    1       -4.925   5.186  -9.102  0.00  0.00    +0.050 C 
ATOM     28  C   LIG    1       -3.446   4.280  -7.303  0.00  0.00    +0.020 C 
ENDBRANCH  24  25
ENDBRANCH  23  24
ENDBRANCH  22  23
ENDBRANCH  16  22
ENDBRANCH   1  16
TORSDOF 10
