REMARK  Name = ZINCrH000004tosO.0
REMARK                            x       y       z     vdW  Elec       q    Type
REMARK                         _______ _______ _______ _____ _____    ______ ____
ROOT
ATOM      1  C   LIG    1        3.588   6.352  -0.212  0.00  0.00    +0.020 A 
ATOM      2  N   LIG    1        4.806   5.846  -0.233  0.00  0.00    -0.250 NA
ATOM      3  N   LIG    1        5.673   6.787  -0.351  0.00  0.00    -0.220 N 
ATOM      4  C   LIG    1        5.049   7.994  -0.405  0.00  0.00    -0.010 A 
ATOM      5  C   LIG    1        5.306   9.479  -0.524  0.00  0.00    +0.130 C 
ATOM      6  C   LIG    1        3.946  10.090  -0.931  0.00  0.00    +0.050 C 
ATOM      7  C   LIG    1        2.948   9.051  -0.372  0.00  0.00    +0.120 C 
ATOM      8  C   LIG    1        3.722   7.756  -0.319  0.00  0.00    -0.140 A 
ENDROOT
BRANCH   3   9
ATOM      9  C   LIG    1        7.061   6.597  -0.409  0.00  0.00    +0.150 A 
ATOM     10  C   LIG    1        7.654   5.579   0.325  0.00  0.00    +0.080 A 
ATOM     11  C   LIG    1        9.022   5.393   0.267  0.00  0.00    +0.060 A 
ATOM     12  C   LIG    1        9.802   6.220  -0.522  0.00  0.00    +0.080 A 
ATOM     13  C   LIG    1        9.211   7.239  -1.257  0.00  0.00    +0.090 A 
ATOM     14  F   LIG    1        9.974   8.046  -2.027  0.00  0.00    -0.120 F 
ATOM     15  F   LIG    1       11.139   6.036  -0.578  0.00  0.00    -0.120 F 
ATOM     16  C   LIG    1        7.842   7.424  -1.205  0.00  0.00    +0.030 A 
ENDBRANCH   3   9
BRANCH   1  19
ATOM     17  N   LIG    1        2.350   4.253   0.002  0.00  0.00    -0.660 N 
ATOM     18  H   LIG    1        3.199   3.787   0.069  0.00  0.00    +0.420 HD
ATOM     19  C   LIG    1        2.325   5.597  -0.093  0.00  0.00    +0.610 C 
ATOM     20  O   LIG    1        1.263   6.188  -0.080  0.00  0.00    -0.500 OA
BRANCH  17  25
ATOM     21  C   LIG    1       -1.122   3.255  -0.729  0.00  0.00    -0.010 A 
ATOM     22  C   LIG    1       -1.217   2.083   0.024  0.00  0.00    +0.060 A 
ATOM     23  C   LIG    1       -0.131   1.640   0.751  0.00  0.00    +0.040 A 
ATOM     24  C   LIG    1        1.050   2.359   0.746  0.00  0.00    +0.030 A 
ATOM     25  C   LIG    1        1.153   3.530   0.004  0.00  0.00    +0.150 A 
ATOM     26  C   LIG    1        0.070   3.980  -0.735  0.00  0.00    +0.060 A 
BRANCH  21  28
ATOM     27  N   LIG    1       -3.137   4.078  -2.092  0.00  0.00    -0.410 NA
ATOM     28  C   LIG    1       -2.246   3.714  -1.489  0.00  0.00    +0.250 C 
ENDBRANCH  21  28
ENDBRANCH  17  25
ENDBRANCH   1  19
TORSDOF 4
