REMARK  Name = ZINCrD00000l0YtI.0
REMARK                            x       y       z     vdW  Elec       q    Type
REMARK                         _______ _______ _______ _____ _____    ______ ____
ROOT
ATOM      1  C   LIG    1       -2.996  -5.704   1.147  0.00  0.00    +0.630 A 
ATOM      2  N   LIG    1       -1.782  -5.160   1.135  0.00  0.00    -0.610 NA
ATOM      3  C   LIG    1       -1.192  -4.881  -0.014  0.00  0.00    +0.430 A 
ATOM      4  N   LIG    1       -1.801  -5.150  -1.155  0.00  0.00    -0.620 NA
ATOM      5  C   LIG    1       -3.014  -5.699  -1.152  0.00  0.00    +0.630 A 
ATOM      6  N   LIG    1       -3.612  -5.976   0.002  0.00  0.00    -0.630 NA
ENDROOT
BRANCH   5   7
ATOM      7  N   LIG    1       -3.648  -5.980  -2.344  0.00  0.00    -0.800 N 
ATOM      8  H   LIG    1       -4.532  -6.379  -2.341  0.00  0.00    +0.420 HD
ATOM      9  H   LIG    1       -3.211  -5.777  -3.186  0.00  0.00    +0.420 HD
ENDBRANCH   5   7
BRANCH   1  10
ATOM     10  N   LIG    1       -3.614  -5.990   2.349  0.00  0.00    -0.610 N 
ATOM     11  H   LIG    1       -3.132  -5.871   3.182  0.00  0.00    +0.430 HD
BRANCH  10  17
ATOM     12  C   LIG    1       -5.397  -7.217   3.434  0.00  0.00    +0.100 A 
ATOM     13  C   LIG    1       -6.707  -7.666   3.446  0.00  0.00    -0.060 A 
ATOM     14  C   LIG    1       -7.551  -7.365   2.393  0.00  0.00    +0.030 A 
ATOM     15  C   LIG    1       -7.094  -6.610   1.329  0.00  0.00    -0.010 A 
ATOM     16  C   LIG    1       -5.789  -6.153   1.312  0.00  0.00    +0.070 A 
ATOM     17  C   LIG    1       -4.936  -6.451   2.364  0.00  0.00    +0.130 A 
BRANCH  12  19
ATOM     18  C   LIG    1       -5.104  -8.306   5.527  0.00  0.00    +0.250 C 
ATOM     19  O   LIG    1       -4.564  -7.517   4.465  0.00  0.00    -0.320 OA
ENDBRANCH  12  19
ENDBRANCH  10  17
ENDBRANCH   1  10
BRANCH   3  20
ATOM     20  C   LIG    1        0.181  -4.260  -0.023  0.00  0.00    +0.360 C 
BRANCH  20  21
ATOM     21  O   LIG    1        0.059  -2.813  -0.019  0.00  0.00    -0.340 OA
BRANCH  21  22
ATOM     22  C   LIG    1        1.203  -2.103  -0.026  0.00  0.00    +0.500 C 
ATOM     23  O   LIG    1        2.274  -2.676  -0.035  0.00  0.00    -0.470 OA
BRANCH  22  24
ATOM     24  C   LIG    1        1.156  -0.627  -0.023  0.00  0.00    -0.100 A 
ATOM     25  C   LIG    1       -0.074   0.035  -0.012  0.00  0.00    +0.100 A 
ATOM     26  C   LIG    1       -0.111   1.414  -0.010  0.00  0.00    +0.020 A 
ATOM     27  C   LIG    1        1.066   2.142  -0.018  0.00  0.00    +0.060 A 
ATOM     28  C   LIG    1        2.288   1.494  -0.028  0.00  0.00    +0.040 A 
ATOM     29  C   LIG    1        2.341   0.114  -0.030  0.00  0.00    -0.040 A 
ATOM     30 BR   LIG    1        4.012  -0.771  -0.044  0.00  0.00    -0.010 Br
ENDBRANCH  22  24
ENDBRANCH  21  22
ENDBRANCH  20  21
ENDBRANCH   3  20
TORSDOF 8
