REMARK  Name = ZINCpe000000XQSI.0
REMARK                            x       y       z     vdW  Elec       q    Type
REMARK                         _______ _______ _______ _____ _____    ______ ____
ROOT
ATOM      1  C   LIG    1       -0.258  -4.254   4.608  0.00  0.00    +0.170 C 
ATOM      2  N   LIG    1       -1.266  -3.572   5.437  0.00  0.00    -0.710 N 
ATOM      3  H   LIG    1       -1.954  -3.993   5.976  0.00  0.00    +0.440 HD
ATOM      4  C   LIG    1       -1.043  -2.251   5.307  0.00  0.00    +0.710 C 
ATOM      5  N   LIG    1       -0.018  -1.985   4.488  0.00  0.00    -0.560 N 
ATOM      6  O   LIG    1       -1.700  -1.396   5.867  0.00  0.00    -0.540 OA
ATOM      7  C   LIG    1        0.641  -5.142   5.470  0.00  0.00    +0.100 C 
ATOM      8  C   LIG    1        0.539  -3.113   4.006  0.00  0.00    +0.540 C 
ATOM      9  O   LIG    1        1.482  -3.198   3.249  0.00  0.00    -0.460 OA
ENDROOT
BRANCH   1  14
ATOM     10  C   LIG    1       -2.806  -7.366   0.459  0.00  0.00    +0.090 C 
ATOM     11  C   LIG    1       -2.142  -6.553   1.540  0.00  0.00    -0.070 A 
ATOM     12  C   LIG    1       -2.729  -6.452   2.788  0.00  0.00    +0.010 A 
ATOM     13  C   LIG    1       -2.120  -5.707   3.780  0.00  0.00    +0.030 A 
ATOM     14  C   LIG    1       -0.922  -5.065   3.526  0.00  0.00    -0.100 A 
ATOM     15  C   LIG    1       -0.338  -5.162   2.277  0.00  0.00    +0.040 A 
ATOM     16  C   LIG    1       -0.945  -5.910   1.286  0.00  0.00    +0.010 A 
ENDBRANCH   1  14
BRANCH   5  17
ATOM     17  C   LIG    1        0.444  -0.634   4.162  0.00  0.00    +0.360 C 
BRANCH  17  18
ATOM     18  C   LIG    1       -0.285  -0.134   2.941  0.00  0.00    +0.500 C 
ATOM     19  N   LIG    1       -0.020   1.094   2.454  0.00  0.00    -0.720 N 
ATOM     20  H   LIG    1        0.639   1.657   2.889  0.00  0.00    +0.400 HD
ATOM     21  O   LIG    1       -1.109  -0.838   2.397  0.00  0.00    -0.520 OA
BRANCH  19  22
ATOM     22  C   LIG    1       -0.729   1.579   1.267  0.00  0.00    +0.240 C 
ATOM     23  C   LIG    1       -0.013   1.086   0.008  0.00  0.00    +0.030 C 
BRANCH  22  24
ATOM     24  C   LIG    1       -0.750   3.109   1.275  0.00  0.00    -0.010 C 
ATOM     25  C   LIG    1        0.679   3.639   1.139  0.00  0.00    +0.030 C 
BRANCH  24  26
ATOM     26  C   LIG    1       -1.595   3.614   0.104  0.00  0.00    +0.180 C 
BRANCH  26  27
ATOM     27  O   LIG    1       -1.711   5.036   0.179  0.00  0.00    -0.570 OA
ATOM     28  H   LIG    1       -2.235   5.426  -0.534  0.00  0.00    +0.380 HD
ENDBRANCH  26  27
ENDBRANCH  24  26
ENDBRANCH  22  24
ENDBRANCH  19  22
ENDBRANCH  17  18
ENDBRANCH   5  17
TORSDOF 7
