REMARK  Name = ZINCtV000002GYtW.0
REMARK                            x       y       z     vdW  Elec       q    Type
REMARK                         _______ _______ _______ _____ _____    ______ ____
ROOT
ATOM      1  N   LIG    1       -2.521   5.238   0.052  0.00  0.00    -0.630 N 
ATOM      2  H   LIG    1       -1.683   5.726   0.047  0.00  0.00    +0.420 HD
ATOM      3  C   LIG    1       -2.515   3.890   0.046  0.00  0.00    +0.550 C 
ATOM      4  O   LIG    1       -3.566   3.278   0.052  0.00  0.00    -0.440 OA
ENDROOT
BRANCH   3   5
ATOM      5  C   LIG    1       -1.237   3.159   0.030  0.00  0.00    -0.130 A 
ATOM      6  C   LIG    1       -0.027   3.857   0.022  0.00  0.00    +0.070 A 
ATOM      7  C   LIG    1        1.166   3.167   0.007  0.00  0.00    +0.000 A 
ATOM      8  C   LIG    1        1.173   1.781   0.000  0.00  0.00    +0.070 A 
ATOM      9  C   LIG    1       -0.013   1.076   0.008  0.00  0.00    -0.010 A 
ATOM     10  C   LIG    1       -1.226   1.754   0.017  0.00  0.00    -0.040 A 
BRANCH  10  11
ATOM     11  S   LIG    1       -2.742   0.856   0.020  0.00  0.00    +0.030 S 
BRANCH  11  12
ATOM     12  C   LIG    1       -2.193  -0.873   0.009  0.00  0.00    +0.110 C 
BRANCH  12  13
ATOM     13  C   LIG    1       -3.395  -1.782   0.010  0.00  0.00    +0.080 A 
ATOM     14  C   LIG    1       -3.977  -2.212  -1.113  0.00  0.00    -0.060 A 
ATOM     15  S   LIG    1       -5.334  -3.242  -0.661  0.00  0.00    +0.140 S 
ATOM     16  C   LIG    1       -4.983  -2.991   0.994  0.00  0.00    +0.230 A 
ATOM     17  N   LIG    1       -3.955  -2.222   1.119  0.00  0.00    -0.460 NA
ENDBRANCH  12  13
ENDBRANCH  11  12
ENDBRANCH  10  11
ENDBRANCH   3   5
BRANCH   1  21
ATOM     18  C   LIG    1       -5.631   7.485   0.093  0.00  0.00    -0.200 A 
ATOM     19  C   LIG    1       -5.941   6.172   0.090  0.00  0.00    +0.270 A 
ATOM     20  N   LIG    1       -4.897   5.370   0.076  0.00  0.00    -0.470 NA
ATOM     21  C   LIG    1       -3.725   5.927   0.067  0.00  0.00    +0.260 A 
ATOM     22  S   LIG    1       -3.876   7.629   0.084  0.00  0.00    +0.140 S 
BRANCH  18  27
ATOM     23  C   LIG    1       -9.385  11.847   0.151  0.00  0.00    +0.090 C 
ATOM     24  C   LIG    1       -8.402  10.704   0.136  0.00  0.00    -0.070 A 
ATOM     25  C   LIG    1       -8.547   9.684  -0.786  0.00  0.00    +0.010 A 
ATOM     26  C   LIG    1       -7.647   8.638  -0.810  0.00  0.00    +0.040 A 
ATOM     27  C   LIG    1       -6.596   8.605   0.108  0.00  0.00    -0.020 A 
ATOM     28  C   LIG    1       -6.456   9.639   1.036  0.00  0.00    -0.060 A 
ATOM     29  C   LIG    1       -5.321   9.615   2.027  0.00  0.00    +0.090 C 
ATOM     30  C   LIG    1       -7.359  10.681   1.045  0.00  0.00    +0.010 A 
ENDBRANCH  18  27
ENDBRANCH   1  21
TORSDOF 6
