REMARK  Name = ZINCpe00000TxCxx.0
REMARK                            x       y       z     vdW  Elec       q    Type
REMARK                         _______ _______ _______ _____ _____    ______ ____
ROOT
ATOM      1  N   LIG    1       -1.948   2.191  -0.710  0.00  0.00    -0.510 NA
ATOM      2  C   LIG    1       -1.579   2.692   0.639  0.00  0.00    +0.160 C 
ATOM      3  C   LIG    1       -0.738   1.531   1.232  0.00  0.00    +0.040 C 
ATOM      4  C   LIG    1        0.054   1.019   0.007  0.00  0.00    +0.250 C 
ATOM      5  C   LIG    1       -0.752   1.485  -1.219  0.00  0.00    +0.190 C 
ENDROOT
BRANCH   4   6
ATOM      6  N   LIG    1        1.396   1.607  -0.013  0.00  0.00    -0.610 N 
ATOM      7  C   LIG    1        2.482   0.809  -0.020  0.00  0.00    +0.600 C 
ATOM      8  O   LIG    1        2.350  -0.396   0.069  0.00  0.00    -0.530 OA
ATOM      9  C   LIG    1        1.557   3.064  -0.025  0.00  0.00    +0.280 C 
BRANCH   7  10
ATOM     10  C   LIG    1        3.828   1.398  -0.136  0.00  0.00    -0.290 A 
ATOM     11  C   LIG    1        4.248   2.597   0.404  0.00  0.00    +0.270 A 
ATOM     12  N   LIG    1        5.538   2.760   0.069  0.00  0.00    -0.360 N 
ATOM     13  N   LIG    1        5.939   1.659  -0.697  0.00  0.00    -0.300 NA
ATOM     14  C   LIG    1        6.381   3.899   0.438  0.00  0.00    +0.360 C 
ATOM     15  C   LIG    1        4.930   0.843  -0.825  0.00  0.00    +0.130 A 
ATOM     16  C   LIG    1        4.937  -0.463  -1.577  0.00  0.00    +0.180 C 
ENDBRANCH   7  10
ENDBRANCH   4   6
BRANCH   1  17
ATOM     17  C   LIG    1       -2.323   3.299  -1.599  0.00  0.00    +0.270 C 
BRANCH  17  21
ATOM     18  C   LIG    1       -6.120   4.723  -0.518  0.00  0.00    +0.260 A 
ATOM     19  C   LIG    1       -5.015   5.387   0.009  0.00  0.00    +0.030 A 
ATOM     20  C   LIG    1       -3.754   4.927  -0.339  0.00  0.00    +0.070 A 
ATOM     21  C   LIG    1       -3.671   3.835  -1.190  0.00  0.00    +0.050 A 
ATOM     22  N   LIG    1       -4.772   3.270  -1.647  0.00  0.00    -0.180 NA
ATOM     23  N   LIG    1       -5.941   3.689  -1.323  0.00  0.00    -0.300 NA
BRANCH  18  25
ATOM     24  C   LIG    1       -8.459   4.407  -0.785  0.00  0.00    +0.250 C 
ATOM     25  O   LIG    1       -7.375   5.136  -0.207  0.00  0.00    -0.300 OA
ENDBRANCH  18  25
ENDBRANCH  17  21
ENDBRANCH   1  17
TORSDOF 5
