REMARK  Name = ZINCvU00000005cN.0
REMARK                            x       y       z     vdW  Elec       q    Type
REMARK                         _______ _______ _______ _____ _____    ______ ____
ROOT
ATOM      1  N   LIG    1       -4.421  -1.290   1.117  0.00  0.00    -0.440 N 
ATOM      2  C   LIG    1       -3.684  -0.961   0.014  0.00  0.00    +0.180 A 
ATOM      3  N   LIG    1       -4.398  -1.259  -1.034  0.00  0.00    -0.250 NA
ATOM      4  N   LIG    1       -5.531  -1.747  -0.671  0.00  0.00    -0.290 NA
ATOM      5  C   LIG    1       -5.600  -1.786   0.639  0.00  0.00    +0.160 A 
ENDROOT
BRANCH   1   6
ATOM      6  C   LIG    1       -4.029  -1.140   2.521  0.00  0.00    +0.350 C 
BRANCH   6   8
ATOM      7  C   LIG    1       -5.207   0.317   4.086  0.00  0.00    +0.070 C 
ATOM      8  C   LIG    1       -4.454   0.217   3.019  0.00  0.00    -0.070 C 
ENDBRANCH   6   8
ENDBRANCH   1   6
BRANCH   2   9
ATOM      9  C   LIG    1       -2.298  -0.368   0.011  0.00  0.00    +0.330 C 
BRANCH   9  10
ATOM     10  O   LIG    1       -2.390   1.058   0.019  0.00  0.00    -0.300 OA
BRANCH  10  11
ATOM     11  C   LIG    1       -1.222   1.752   0.017  0.00  0.00    +0.140 A 
ATOM     12  C   LIG    1       -0.013   1.076   0.008  0.00  0.00    -0.080 A 
ATOM     13  C   LIG    1        1.175   1.782   0.000  0.00  0.00    +0.050 A 
ATOM     14  C   LIG    1        1.165   3.166   0.007  0.00  0.00    -0.020 A 
ATOM     15  C   LIG    1       -0.033   3.852   0.022  0.00  0.00    +0.060 A 
ATOM     16  C   LIG    1       -1.236   3.150   0.030  0.00  0.00    -0.070 A 
BRANCH  16  17
ATOM     17  C   LIG    1       -2.526   3.882   0.046  0.00  0.00    -0.040 A 
ATOM     18  C   LIG    1       -3.523   3.562  -0.873  0.00  0.00    +0.030 A 
ATOM     19  C   LIG    1       -4.723   4.244  -0.851  0.00  0.00    +0.000 A 
ATOM     20  C   LIG    1       -4.933   5.249   0.076  0.00  0.00    +0.000 A 
ATOM     21  C   LIG    1       -3.945   5.574   0.988  0.00  0.00    +0.000 A 
ATOM     22  C   LIG    1       -2.743   4.896   0.977  0.00  0.00    +0.010 A 
ENDBRANCH  16  17
ENDBRANCH  10  11
ENDBRANCH   9  10
ENDBRANCH   2   9
BRANCH   5  23
ATOM     23  S   LIG    1       -6.956  -2.374   1.599  0.00  0.00    +0.080 S 
BRANCH  23  24
ATOM     24  C   LIG    1       -8.095  -2.852   0.276  0.00  0.00    +0.080 C 
BRANCH  24  25
ATOM     25  C   LIG    1       -9.363  -3.399   0.878  0.00  0.00    +0.440 C 
ATOM     26  O   LIG    1       -9.485  -3.461   2.084  0.00  0.00    -0.440 OA
BRANCH  25  27
ATOM     27  C   LIG    1      -10.411  -3.841   0.038  0.00  0.00    -0.100 A 
ATOM     28  C   LIG    1      -11.625  -4.364   0.448  0.00  0.00    +0.070 A 
ATOM     29  C   LIG    1      -12.349  -4.665  -0.707  0.00  0.00    -0.070 A 
ATOM     30  C   LIG    1      -11.586  -4.330  -1.777  0.00  0.00    +0.230 A 
ATOM     31  N   LIG    1      -10.414  -3.825  -1.341  0.00  0.00    -0.530 N 
ATOM     32  H   LIG    1       -9.691  -3.506  -1.904  0.00  0.00    +0.420 HD
ENDBRANCH  25  27
ENDBRANCH  24  25
ENDBRANCH  23  24
ENDBRANCH   5  23
TORSDOF 10
