REMARK  Name = ZINCvU000000070n.0
REMARK                            x       y       z     vdW  Elec       q    Type
REMARK                         _______ _______ _______ _____ _____    ______ ____
ROOT
ATOM      1  N   LIG    1       -6.045   0.809  -3.025  0.00  0.00    -0.590 N 
ATOM      2  C   LIG    1       -5.630   1.660  -2.066  0.00  0.00    +0.610 C 
ATOM      3  O   LIG    1       -5.015   2.664  -2.368  0.00  0.00    -0.520 OA
ENDROOT
BRANCH   2   4
ATOM      4  C   LIG    1       -5.921   1.372  -0.646  0.00  0.00    -0.000 A 
ATOM      5  N   LIG    1       -5.770   0.213  -0.029  0.00  0.00    -0.260 NA
ATOM      6  N   LIG    1       -6.120   0.320   1.207  0.00  0.00    -0.380 N 
ATOM      7  H   LIG    1       -6.094  -0.401   1.856  0.00  0.00    +0.450 HD
ATOM      8  C   LIG    1       -6.525   1.574   1.464  0.00  0.00    +0.020 A 
ATOM      9  C   LIG    1       -7.024   2.161   2.759  0.00  0.00    +0.110 C 
ATOM     10  C   LIG    1       -7.743   3.480   2.447  0.00  0.00    +0.040 C 
ATOM     11  C   LIG    1       -6.853   4.353   1.558  0.00  0.00    -0.010 C 
ATOM     12  C   LIG    1       -6.759   3.732   0.158  0.00  0.00    +0.120 C 
ATOM     13  C   LIG    1       -6.412   2.277   0.310  0.00  0.00    -0.150 A 
BRANCH  11  14
ATOM     14  C   LIG    1       -7.456   5.755   1.455  0.00  0.00    -0.020 C 
ATOM     15  C   LIG    1       -7.549   6.375   2.851  0.00  0.00    +0.010 C 
ATOM     16  C   LIG    1       -6.566   6.629   0.567  0.00  0.00    +0.010 C 
ENDBRANCH  11  14
ENDBRANCH   2   4
BRANCH   1  18
ATOM     17  C   LIG    1       -5.771  -1.492  -2.244  0.00  0.00    +0.020 C 
ATOM     18  C   LIG    1       -6.770  -0.410  -2.659  0.00  0.00    +0.270 C 
ENDBRANCH   1  18
BRANCH   1  19
ATOM     19  C   LIG    1       -5.771   1.103  -4.434  0.00  0.00    +0.360 C 
BRANCH  19  20
ATOM     20  C   LIG    1       -7.072   1.210  -5.186  0.00  0.00    -0.090 A 
ATOM     21  C   LIG    1       -8.273   1.139  -4.505  0.00  0.00    +0.040 A 
ATOM     22  C   LIG    1       -9.466   1.242  -5.194  0.00  0.00    +0.030 A 
ATOM     23  C   LIG    1       -9.459   1.405  -6.568  0.00  0.00    -0.030 A 
ATOM     24  C   LIG    1       -8.257   1.470  -7.250  0.00  0.00    +0.040 A 
ATOM     25 CL   LIG    1      -10.958   1.528  -7.436  0.00  0.00    -0.070 Cl
ATOM     26  C   LIG    1       -7.064   1.373  -6.559  0.00  0.00    +0.040 A 
ENDBRANCH  19  20
BRANCH  19  27
ATOM     27  C   LIG    1       -4.937  -0.004  -5.025  0.00  0.00    -0.150 A 
ATOM     28  C   LIG    1       -3.582   0.183  -5.253  0.00  0.00    +0.080 A 
ATOM     29  C   LIG    1       -2.853  -0.866  -5.793  0.00  0.00    -0.030 A 
ATOM     30  C   LIG    1       -3.499  -2.049  -6.096  0.00  0.00    +0.260 A 
ATOM     31  N   LIG    1       -4.791  -2.189  -5.870  0.00  0.00    -0.480 NA
ATOM     32  C   LIG    1       -5.515  -1.216  -5.353  0.00  0.00    +0.280 A 
ENDBRANCH  19  27
ENDBRANCH   1  19
TORSDOF 6
