REMARK  Name = ZINCqH0000035uva.1
REMARK                            x       y       z     vdW  Elec       q    Type
REMARK                         _______ _______ _______ _____ _____    ______ ____
ROOT
ATOM      1  N   LIG    1       -0.896  -0.260   0.026  0.00  0.00    -0.700 N 
ATOM      2  H   LIG    1       -1.033  -0.759  -0.794  0.00  0.00    +0.410 HD
ATOM      3  C   LIG    1       -1.139  -0.841   1.217  0.00  0.00    +0.610 C 
ATOM      4  O   LIG    1       -0.967  -0.215   2.245  0.00  0.00    -0.510 OA
ENDROOT
BRANCH   3   5
ATOM      5  C   LIG    1       -1.613  -2.238   1.274  0.00  0.00    -0.030 A 
ATOM      6  N   LIG    1       -1.852  -3.046   0.253  0.00  0.00    -0.240 NA
ATOM      7  N   LIG    1       -2.247  -4.181   0.709  0.00  0.00    -0.230 N 
ATOM      8  H   LIG    1       -2.482  -4.941   0.153  0.00  0.00    +0.480 HD
ATOM      9  N   LIG    1       -2.296  -4.180   1.993  0.00  0.00    -0.270 NA
ATOM     10  C   LIG    1       -1.914  -2.997   2.434  0.00  0.00    +0.110 A 
BRANCH  10  11
ATOM     11  C   LIG    1       -1.820  -2.554   3.847  0.00  0.00    -0.030 A 
ATOM     12  C   LIG    1       -0.806  -1.682   4.240  0.00  0.00    +0.080 A 
ATOM     13  C   LIG    1       -0.726  -1.268   5.554  0.00  0.00    +0.000 A 
ATOM     14  C   LIG    1       -1.643  -1.727   6.483  0.00  0.00    +0.020 A 
ATOM     15  C   LIG    1       -2.648  -2.596   6.099  0.00  0.00    +0.000 A 
ATOM     16  C   LIG    1       -2.741  -3.012   4.787  0.00  0.00    +0.030 A 
ENDBRANCH  10  11
ENDBRANCH   3   5
BRANCH   1  17
ATOM     17  C   LIG    1       -0.426   1.126  -0.031  0.00  0.00    +0.240 C 
ATOM     18  C   LIG    1        1.096   1.156   0.128  0.00  0.00    +0.040 C 
BRANCH  17  19
ATOM     19  C   LIG    1       -0.810   1.741  -1.378  0.00  0.00    +0.210 C 
BRANCH  19  20
ATOM     20  C   LIG    1       -2.310   1.729  -1.527  0.00  0.00    -0.080 A 
ATOM     21  C   LIG    1       -2.957   0.571  -1.915  0.00  0.00    +0.050 A 
ATOM     22  C   LIG    1       -4.332   0.558  -2.047  0.00  0.00    +0.040 A 
ATOM     23  C   LIG    1       -5.061   1.707  -1.799  0.00  0.00    -0.090 A 
ATOM     24  C   LIG    1       -4.413   2.868  -1.416  0.00  0.00    +0.050 A 
ATOM     25 BR   LIG    1       -6.943   1.692  -1.985  0.00  0.00    -0.050 Br
ATOM     26  C   LIG    1       -3.038   2.878  -1.279  0.00  0.00    +0.030 A 
ENDBRANCH  19  20
BRANCH  19  28
ATOM     27  C   LIG    1        0.882   1.626  -3.072  0.00  0.00    +0.220 C 
ATOM     28  O   LIG    1       -0.221   0.979  -2.434  0.00  0.00    -0.380 OA
ENDBRANCH  19  28
ENDBRANCH  17  19
ENDBRANCH   1  17
TORSDOF 6
