REMARK  Name = ZINCqH0000035uva.0
REMARK                            x       y       z     vdW  Elec       q    Type
REMARK                         _______ _______ _______ _____ _____    ______ ____
ROOT
ATOM      1  N   LIG    1        3.745  -3.445  -2.465  0.00  0.00    -0.710 N 
ATOM      2  H   LIG    1        3.472  -4.373  -2.398  0.00  0.00    +0.400 HD
ATOM      3  C   LIG    1        3.077  -2.495  -1.781  0.00  0.00    +0.600 C 
ATOM      4  O   LIG    1        3.420  -1.331  -1.864  0.00  0.00    -0.500 OA
ENDROOT
BRANCH   3   5
ATOM      5  C   LIG    1        1.934  -2.866  -0.935  0.00  0.00    -0.070 A 
ATOM      6  C   LIG    1        1.076  -2.008  -0.252  0.00  0.00    +0.110 A 
ATOM      7  N   LIG    1        0.190  -2.798   0.374  0.00  0.00    -0.250 NA
ATOM      8  N   LIG    1        0.460  -4.028   0.120  0.00  0.00    -0.040 NA
ATOM      9  N   LIG    1        1.487  -4.130  -0.648  0.00  0.00    -0.370 N 
ATOM     10  H   LIG    1        1.874  -4.957  -0.973  0.00  0.00    +0.450 HD
BRANCH   6  11
ATOM     11  C   LIG    1        1.127  -0.527  -0.227  0.00  0.00    -0.030 A 
ATOM     12  C   LIG    1        1.335   0.186  -1.406  0.00  0.00    +0.060 A 
ATOM     13  C   LIG    1        1.381   1.565  -1.376  0.00  0.00    +0.010 A 
ATOM     14  C   LIG    1        1.221   2.239  -0.179  0.00  0.00    +0.020 A 
ATOM     15  C   LIG    1        1.014   1.537   0.995  0.00  0.00    +0.000 A 
ATOM     16  C   LIG    1        0.967   0.158   0.977  0.00  0.00    +0.050 A 
ENDBRANCH   6  11
ENDBRANCH   3   5
BRANCH   1  17
ATOM     17  C   LIG    1        4.885  -3.076  -3.308  0.00  0.00    +0.270 C 
ATOM     18  C   LIG    1        6.152  -3.007  -2.452  0.00  0.00    +0.050 C 
BRANCH  17  19
ATOM     19  C   LIG    1        5.068  -4.125  -4.406  0.00  0.00    +0.210 C 
BRANCH  19  20
ATOM     20  C   LIG    1        3.823  -4.186  -5.254  0.00  0.00    -0.100 A 
ATOM     21  C   LIG    1        2.722  -4.897  -4.814  0.00  0.00    +0.040 A 
ATOM     22  C   LIG    1        1.578  -4.949  -5.589  0.00  0.00    +0.040 A 
ATOM     23  C   LIG    1        1.540  -4.300  -6.809  0.00  0.00    -0.090 A 
ATOM     24  C   LIG    1        2.644  -3.594  -7.252  0.00  0.00    +0.050 A 
ATOM     25 BR   LIG    1       -0.022  -4.378  -7.873  0.00  0.00    -0.040 Br
ATOM     26  C   LIG    1        3.785  -3.537  -6.474  0.00  0.00    +0.030 A 
ENDBRANCH  19  20
BRANCH  19  28
ATOM     27  C   LIG    1        6.194  -6.235  -4.554  0.00  0.00    +0.220 C 
ATOM     28  O   LIG    1        5.302  -5.402  -3.811  0.00  0.00    -0.380 OA
ENDBRANCH  19  28
ENDBRANCH  17  19
ENDBRANCH   1  17
TORSDOF 6
