REMARK  Name = ZINCrH000004tLZX.0
REMARK                            x       y       z     vdW  Elec       q    Type
REMARK                         _______ _______ _______ _____ _____    ______ ____
ROOT
ATOM      1  N   LIG    1       -1.750   2.377  -0.765  0.00  0.00    -0.470 NA
ATOM      2  C   LIG    1       -0.602   1.629  -1.324  0.00  0.00    +0.180 C 
ATOM      3  C   LIG    1        0.088   0.916  -0.146  0.00  0.00    +0.020 C 
ATOM      4  C   LIG    1       -0.716   1.330   1.107  0.00  0.00    +0.050 C 
ATOM      5  C   LIG    1       -1.407   2.643   0.655  0.00  0.00    +0.130 C 
ENDROOT
BRANCH   5   6
ATOM      6  C   LIG    1       -2.654   2.895   1.464  0.00  0.00    +0.530 C 
ATOM      7  N   LIG    1       -2.559   3.158   2.783  0.00  0.00    -0.670 N 
ATOM      8  H   LIG    1       -1.688   3.269   3.194  0.00  0.00    +0.410 HD
ATOM      9  O   LIG    1       -3.741   2.861   0.929  0.00  0.00    -0.490 OA
BRANCH   7  10
ATOM     10  C   LIG    1       -3.719   3.270   3.559  0.00  0.00    +0.170 A 
ATOM     11  C   LIG    1       -4.888   2.638   3.159  0.00  0.00    +0.060 A 
ATOM     12  C   LIG    1       -6.031   2.749   3.926  0.00  0.00    +0.070 A 
ATOM     13  C   LIG    1       -6.012   3.491   5.094  0.00  0.00    -0.050 A 
ATOM     14  C   LIG    1       -4.848   4.123   5.497  0.00  0.00    +0.070 A 
ATOM     15 CL   LIG    1       -7.450   3.629   6.056  0.00  0.00    -0.060 Cl
ATOM     16  C   LIG    1       -3.700   4.009   4.736  0.00  0.00    -0.060 A 
ATOM     17 CL   LIG    1       -2.239   4.796   5.245  0.00  0.00    -0.050 Cl
ENDBRANCH   7  10
ENDBRANCH   5   6
BRANCH   1  18
ATOM     18  C   LIG    1       -1.968   3.631  -1.499  0.00  0.00    +0.200 C 
BRANCH  18  20
ATOM     19  O   LIG    1       -2.202   2.181  -3.346  0.00  0.00    -0.520 OA
ATOM     20  C   LIG    1       -2.151   3.331  -2.964  0.00  0.00    +0.520 C 
ATOM     21  N   LIG    1       -2.259   4.340  -3.850  0.00  0.00    -0.730 N 
ATOM     22  H   LIG    1       -2.218   5.260  -3.545  0.00  0.00    +0.400 HD
BRANCH  21  23
ATOM     23  C   LIG    1       -2.437   4.049  -5.275  0.00  0.00    +0.320 C 
BRANCH  23  24
ATOM     24  C   LIG    1       -2.529   5.341  -6.045  0.00  0.00    -0.110 A 
ATOM     25  C   LIG    1       -3.760   5.935  -6.255  0.00  0.00    +0.020 A 
ATOM     26  C   LIG    1       -3.843   7.122  -6.957  0.00  0.00    +0.010 A 
ATOM     27  C   LIG    1       -2.697   7.712  -7.457  0.00  0.00    +0.010 A 
ATOM     28  C   LIG    1       -1.467   7.116  -7.251  0.00  0.00    +0.000 A 
ATOM     29  C   LIG    1       -1.383   5.930  -6.545  0.00  0.00    +0.020 A 
ENDBRANCH  23  24
ENDBRANCH  21  23
ENDBRANCH  18  20
ENDBRANCH   1  18
TORSDOF 6
