REMARK  Name = ZINCtV00000tROM9.0
REMARK                            x       y       z     vdW  Elec       q    Type
REMARK                         _______ _______ _______ _____ _____    ______ ____
ROOT
ATOM      1  P   LIG    1        3.810   1.944  -0.024  0.00  0.00    +2.420 P 
ATOM      2  O   LIG    1        4.949   0.998  -0.040  0.00  0.00    -1.010 OA
ENDROOT
BRANCH   1   3
ATOM      3  N   LIG    1        2.402   1.104  -0.015  0.00  0.00    -1.100 N 
ATOM      4  H   LIG    1        2.416   0.134  -0.020  0.00  0.00    +0.430 HD
BRANCH   3   8
ATOM      5  C   LIG    1       -1.237   3.137   0.030  0.00  0.00    +0.100 A 
ATOM      6  C   LIG    1       -1.218   1.750   0.017  0.00  0.00    -0.030 A 
ATOM      7  C   LIG    1       -0.013   1.076   0.008  0.00  0.00    +0.020 A 
ATOM      8  C   LIG    1        1.180   1.787   0.000  0.00  0.00    +0.130 A 
ATOM      9  C   LIG    1        1.160   3.175   0.007  0.00  0.00    -0.040 A 
ATOM     10  C   LIG    1       -0.046   3.848   0.022  0.00  0.00    +0.040 A 
BRANCH   5  11
ATOM     11  O   LIG    1       -2.424   3.800   0.044  0.00  0.00    -0.310 OA
BRANCH  11  12
ATOM     12  C   LIG    1       -3.611   3.005   0.051  0.00  0.00    +0.180 C 
BRANCH  12  13
ATOM     13  C   LIG    1       -4.838   3.920   0.066  0.00  0.00    +0.020 C 
BRANCH  13  14
ATOM     14  C   LIG    1       -6.109   3.069   0.074  0.00  0.00    +0.020 C 
BRANCH  14  16
ATOM     15  C   LIG    1       -8.607   3.132   0.097  0.00  0.00    +0.010 C 
ATOM     16  C   LIG    1       -7.335   3.983   0.089  0.00  0.00    +0.000 C 
ENDBRANCH  14  16
ENDBRANCH  13  14
ENDBRANCH  12  13
ENDBRANCH  11  12
ENDBRANCH   5  11
ENDBRANCH   3   8
ENDBRANCH   1   3
BRANCH   1  17
ATOM     17  O   LIG    1        3.895   2.864   1.295  0.00  0.00    -0.640 OA
BRANCH  17  18
ATOM     18  C   LIG    1        4.175   2.175   2.432  0.00  0.00    +0.090 A 
ATOM     19  C   LIG    1        3.144   1.663   3.207  0.00  0.00    -0.010 A 
ATOM     20  C   LIG    1        3.431   0.959   4.359  0.00  0.00    +0.030 A 
ATOM     21  C   LIG    1        4.745   0.772   4.748  0.00  0.00    +0.010 A 
ATOM     22  C   LIG    1        5.774   1.285   3.981  0.00  0.00    +0.040 A 
ATOM     23  C   LIG    1        5.493   1.986   2.824  0.00  0.00    +0.030 A 
ENDBRANCH  17  18
ENDBRANCH   1  17
BRANCH   1  24
ATOM     24  O   LIG    1        3.870   2.878  -1.334  0.00  0.00    -0.640 OA
BRANCH  24  25
ATOM     25  C   LIG    1        4.021   2.190  -2.497  0.00  0.00    +0.090 A 
ATOM     26  C   LIG    1        5.292   1.921  -2.984  0.00  0.00    +0.030 A 
ATOM     27  C   LIG    1        5.443   1.217  -4.163  0.00  0.00    +0.040 A 
ATOM     28  C   LIG    1        4.329   0.790  -4.863  0.00  0.00    +0.010 A 
ATOM     29  C   LIG    1        3.061   1.062  -4.382  0.00  0.00    +0.030 A 
ATOM     30  C   LIG    1        2.905   1.761  -3.200  0.00  0.00    -0.010 A 
ENDBRANCH  24  25
ENDBRANCH   1  24
TORSDOF 11
