REMARK  Name = ZINCqH0000038c1Y.0
REMARK                            x       y       z     vdW  Elec       q    Type
REMARK                         _______ _______ _______ _____ _____    ______ ____
ROOT
ATOM      1  C   LIG    1        0.005  -0.004   0.028  0.00  0.00    +0.520 C 
ATOM      2  N   LIG    1       -0.014   1.343   0.025  0.00  0.00    -0.550 N 
ATOM      3  C   LIG    1       -1.289   2.072   0.064  0.00  0.00    +0.290 C 
ATOM      4  C   LIG    1       -1.147   3.211   1.083  0.00  0.00    +0.060 C 
ATOM      5  C   LIG    1       -0.069   4.178   0.595  0.00  0.00    +0.040 C 
ATOM      6  C   LIG    1        1.195   3.432   0.255  0.00  0.00    -0.110 A 
ATOM      7  C   LIG    1        2.392   4.127   0.213  0.00  0.00    +0.020 A 
ATOM      8  C   LIG    1        3.567   3.471  -0.099  0.00  0.00    -0.020 A 
ATOM      9  C   LIG    1        3.556   2.115  -0.370  0.00  0.00    +0.030 A 
ATOM     10  C   LIG    1        2.366   1.415  -0.329  0.00  0.00    +0.020 A 
ATOM     11  C   LIG    1        1.183   2.073  -0.009  0.00  0.00    +0.160 A 
ATOM     12  O   LIG    1        1.059  -0.596  -0.071  0.00  0.00    -0.510 OA
ENDROOT
BRANCH   5  13
ATOM     13  C   LIG    1        0.224   5.184   1.678  0.00  0.00    +0.530 C 
ATOM     14  O   LIG    1        0.184   4.849   2.843  0.00  0.00    -0.530 OA
ATOM     15  N   LIG    1        0.529   6.456   1.353  0.00  0.00    -0.860 N 
ATOM     16  H   LIG    1        0.646   7.120   2.050  0.00  0.00    +0.400 HD
ATOM     17  H   LIG    1        0.632   6.707   0.421  0.00  0.00    +0.400 HD
ENDBRANCH   5  13
BRANCH   1  18
ATOM     18  C   LIG    1       -1.283  -0.776   0.154  0.00  0.00    +0.100 C 
BRANCH  18  19
ATOM     19  C   LIG    1       -0.975  -2.271   0.255  0.00  0.00    +0.100 C 
BRANCH  19  20
ATOM     20  S   LIG    1       -2.525  -3.200   0.407  0.00  0.00    -0.110 S 
BRANCH  20  25
ATOM     21  C   LIG    1       -0.650  -8.926   0.759  0.00  0.00    +0.090 C 
ATOM     22  C   LIG    1       -1.118  -7.497   0.671  0.00  0.00    -0.090 A 
ATOM     23  C   LIG    1       -0.195  -6.475   0.544  0.00  0.00    +0.030 A 
ATOM     24  C   LIG    1       -0.620  -5.163   0.464  0.00  0.00    +0.000 A 
ATOM     25  C   LIG    1       -1.978  -4.871   0.510  0.00  0.00    -0.080 A 
ATOM     26  C   LIG    1       -2.903  -5.900   0.643  0.00  0.00    +0.030 A 
ATOM     27  C   LIG    1       -2.470  -7.209   0.718  0.00  0.00    -0.070 A 
ATOM     28  C   LIG    1       -3.473  -8.326   0.858  0.00  0.00    +0.090 C 
ENDBRANCH  20  25
ENDBRANCH  19  20
ENDBRANCH  18  19
ENDBRANCH   1  18
TORSDOF 5
