REMARK  Name = ZINCrD000000CCLF.0
REMARK                            x       y       z     vdW  Elec       q    Type
REMARK                         _______ _______ _______ _____ _____    ______ ____
ROOT
ATOM      1  O   LIG    1        0.954   2.611  -3.767  0.00  0.00    -0.520 OA
ATOM      2  C   LIG    1        1.406   1.484  -3.709  0.00  0.00    +0.570 C 
ATOM      3  N   LIG    1        2.342   1.180  -2.789  0.00  0.00    -0.600 N 
ATOM      4  C   LIG    1        2.926   2.272  -1.986  0.00  0.00    +0.280 C 
ATOM      5  C   LIG    1        3.079   1.884  -0.503  0.00  0.00    +0.040 C 
ATOM      6  C   LIG    1        1.870   1.108  -0.043  0.00  0.00    +0.030 C 
ATOM      7  C   LIG    1        2.124  -0.384  -0.233  0.00  0.00    +0.270 C 
ATOM      8  C   LIG    1        1.818  -0.884  -1.582  0.00  0.00    +0.020 C 
ATOM      9  C   LIG    1        2.733  -0.203  -2.629  0.00  0.00    +0.310 C 
ENDROOT
BRANCH   2  10
ATOM     10  C   LIG    1        0.929   0.449  -4.647  0.00  0.00    -0.230 A 
ATOM     11  C   LIG    1        0.421   0.807  -5.904  0.00  0.00    +0.180 A 
ATOM     12  C   LIG    1       -0.012  -0.197  -6.746  0.00  0.00    -0.040 A 
ATOM     13  C   LIG    1        0.068  -1.520  -6.325  0.00  0.00    +0.340 A 
ATOM     14  N   LIG    1        0.553  -1.827  -5.131  0.00  0.00    -0.530 NA
ATOM     15  C   LIG    1        0.983  -0.902  -4.298  0.00  0.00    +0.330 A 
BRANCH  13  16
ATOM     16  O   LIG    1       -0.356  -2.510  -7.147  0.00  0.00    -0.240 OA
BRANCH  16  17
ATOM     17  C   LIG    1       -0.378  -3.779  -6.660  0.00  0.00    +0.090 A 
ATOM     18  C   LIG    1        0.531  -4.718  -7.127  0.00  0.00    +0.010 A 
ATOM     19  C   LIG    1        0.512  -6.005  -6.626  0.00  0.00    +0.020 A 
ATOM     20  C   LIG    1       -0.420  -6.361  -5.669  0.00  0.00    +0.010 A 
ATOM     21  C   LIG    1       -1.331  -5.429  -5.207  0.00  0.00    +0.030 A 
ATOM     22  C   LIG    1       -1.312  -4.139  -5.700  0.00  0.00    +0.000 A 
ENDBRANCH  16  17
ENDBRANCH  13  16
ENDBRANCH   2  10
BRANCH   7  23
ATOM     23  N   LIG    1        1.307  -1.122   0.734  0.00  0.00    -0.290 N 
ATOM     24  C   LIG    1        0.013  -1.481   0.567  0.00  0.00    +0.140 A 
ATOM     25  C   LIG    1       -0.343  -2.142   1.694  0.00  0.00    +0.140 A 
ATOM     26  N   LIG    1        0.735  -2.148   2.487  0.00  0.00    -0.270 NA
ATOM     27  N   LIG    1        1.695  -1.536   1.889  0.00  0.00    -0.080 NA
ENDBRANCH   7  23
TORSDOF 4
