REMARK  Name = ZINCkj000005kur3.0
REMARK                            x       y       z     vdW  Elec       q    Type
REMARK                         _______ _______ _______ _____ _____    ______ ____
ROOT
ATOM      1  C   UNK A  0       -0.475   1.835   0.971  0.00  0.00    +0.230 C 
ENDROOT
BRANCH   1   8
ATOM      2  C   UNK A  0       -2.769   3.047   2.242  0.00  0.00    +0.100 C 
ATOM      3  C   UNK A  0       -1.835   3.889   1.413  0.00  0.00    -0.050 A 
ATOM      4  C   UNK A  0       -2.073   5.243   1.264  0.00  0.00    +0.040 A 
ATOM      5  C   UNK A  0       -1.218   6.015   0.500  0.00  0.00    +0.050 A 
ATOM      6  C   UNK A  0       -0.123   5.434  -0.113  0.00  0.00    +0.030 A 
ATOM      7  C   UNK A  0        0.117   4.081   0.040  0.00  0.00    -0.010 A 
ATOM      8  C   UNK A  0       -0.737   3.309   0.805  0.00  0.00    -0.140 A 
ENDBRANCH   1   8
BRANCH   1   9
ATOM      9  N   ALA A  1        0.407   1.369  -0.108  0.00  0.00    -0.500 N 
ATOM     10  H1  ALA A  1        1.239   1.939  -0.131  0.00  0.00    +0.420 HD
ATOM     11  H2  ALA A  1        0.661   0.407   0.057  0.00  0.00    +0.440 HD
BRANCH   9  12
ATOM     12  CA  ALA A  1       -0.295   1.476  -1.394  0.00  0.00    +0.170 C 
ATOM     13  CB  ALA A  1       -1.485   0.514  -1.407  0.00  0.00    +0.100 C 
BRANCH  12  14
ATOM     14  C   ALA A  1        0.664   1.115  -2.530  0.00  0.00    +0.220 C 
BRANCH  14  15
ATOM     15  O   ALA A  1        1.041  -0.259  -2.418  0.00  0.00    -0.580 OA
ATOM     16  H   ALA A  1        1.650  -0.557  -3.107  0.00  0.00    +0.410 HD
ENDBRANCH  14  15
ENDBRANCH  12  14
ENDBRANCH   9  12
ENDBRANCH   1   9
BRANCH   1  17
ATOM     17  C   UNK A  0        0.197   1.585   2.322  0.00  0.00    +0.220 C 
BRANCH  17  18
ATOM     18  N   UNK A  0        0.559   0.166   2.434  0.00  0.00    -0.560 NA
ATOM     19  C   UNK A  0       -0.635  -0.669   2.630  0.00  0.00    +0.140 C 
ATOM     20  C   UNK A  0       -0.220  -2.141   2.682  0.00  0.00    +0.230 C 
ATOM     21  O   UNK A  0        0.744  -2.323   3.723  0.00  0.00    -0.380 OA
ATOM     22  C   UNK A  0        1.921  -1.526   3.563  0.00  0.00    +0.230 C 
ATOM     23  C   UNK A  0        1.527  -0.047   3.520  0.00  0.00    +0.170 C 
ENDBRANCH  17  18
ENDBRANCH   1  17
TORSDOF 7
