REMARK  Name = ZINCvU00000009Wn.0
REMARK                            x       y       z     vdW  Elec       q    Type
REMARK                         _______ _______ _______ _____ _____    ______ ____
ROOT
ATOM      1  C   LIG    1        1.958  -4.162  -0.039  0.00  0.00    -0.270 A 
ATOM      2  C   LIG    1        2.348  -2.838  -0.041  0.00  0.00    +0.340 A 
ATOM      3  N   LIG    1        1.237  -2.081  -0.021  0.00  0.00    -0.300 N 
ATOM      4  N   LIG    1        0.108  -2.905  -0.014  0.00  0.00    -0.270 NA
ATOM      5  C   LIG    1        0.491  -4.161  -0.025  0.00  0.00    +0.200 A 
ENDROOT
BRANCH   3   6
ATOM      6  C   LIG    1        1.215  -0.680  -0.013  0.00  0.00    +0.140 A 
ATOM      7  C   LIG    1        0.002  -0.004   0.002  0.00  0.00    +0.030 A 
ATOM      8  C   LIG    1       -0.017   1.377   0.010  0.00  0.00    +0.040 A 
ATOM      9  C   LIG    1        1.171   2.086   0.002  0.00  0.00    +0.010 A 
ATOM     10  C   LIG    1        2.380   1.415  -0.013  0.00  0.00    +0.050 A 
ATOM     11  C   LIG    1        2.405   0.035  -0.021  0.00  0.00    -0.010 A 
ENDBRANCH   3   6
BRANCH   5  12
ATOM     12  C   LIG    1       -0.391  -5.353  -0.022  0.00  0.00    -0.040 A 
ATOM     13  C   LIG    1       -0.024  -6.497  -0.728  0.00  0.00    +0.080 A 
ATOM     14  C   LIG    1       -0.846  -7.605  -0.717  0.00  0.00    +0.000 A 
ATOM     15  C   LIG    1       -2.039  -7.577  -0.018  0.00  0.00    +0.020 A 
ATOM     16  C   LIG    1       -2.412  -6.442   0.680  0.00  0.00    +0.000 A 
ATOM     17  C   LIG    1       -1.594  -5.330   0.682  0.00  0.00    +0.050 A 
ENDBRANCH   5  12
BRANCH   1  19
ATOM     18  O   LIG    1        2.360  -6.457  -0.056  0.00  0.00    -0.490 OA
ATOM     19  C   LIG    1        2.839  -5.340  -0.054  0.00  0.00    +0.550 C 
BRANCH  19  20
ATOM     20  O   LIG    1        4.177  -5.181  -0.066  0.00  0.00    -0.350 OA
BRANCH  20  21
ATOM     21  C   LIG    1        4.984  -6.388  -0.081  0.00  0.00    +0.410 C 
BRANCH  21  22
ATOM     22  C   LIG    1        6.444  -6.016  -0.093  0.00  0.00    +0.160 A 
ATOM     23  N   LIG    1        7.200  -5.832   0.953  0.00  0.00    -0.240 NA
ATOM     24  N   LIG    1        8.391  -5.526   0.576  0.00  0.00    -0.270 NA
ATOM     25  C   LIG    1        8.438  -5.503  -0.738  0.00  0.00    +0.260 A 
ATOM     26  O   LIG    1        7.205  -5.819  -1.186  0.00  0.00    -0.210 OA
BRANCH  25  27
ATOM     27  C   LIG    1        9.614  -5.197  -1.565  0.00  0.00    -0.160 A 
ATOM     28  C   LIG    1       10.852  -4.886  -1.090  0.00  0.00    +0.110 A 
ATOM     29  C   LIG    1       11.792  -4.639  -2.065  0.00  0.00    +0.020 A 
ATOM     30  C   LIG    1       11.348  -4.742  -3.322  0.00  0.00    -0.010 A 
ATOM     31  S   LIG    1        9.646  -5.183  -3.324  0.00  0.00    +0.180 S 
ENDBRANCH  25  27
ENDBRANCH  21  22
ENDBRANCH  20  21
ENDBRANCH  19  20
ENDBRANCH   1  19
TORSDOF 7
