REMARK  Name = ZINCvU0000000FEv.1
REMARK                            x       y       z     vdW  Elec       q    Type
REMARK                         _______ _______ _______ _____ _____    ______ ____
ROOT
ATOM      1  C   LIG    1        2.310   0.028  -0.020  0.00  0.00    +0.440 A 
ATOM      2  N   LIG    1        1.188  -0.635  -0.013  0.00  0.00    -0.550 NA
ATOM      3  C   LIG    1        0.002  -0.004   0.002  0.00  0.00    +0.540 A 
ATOM      4  C   LIG    1       -0.018   1.471   0.010  0.00  0.00    -0.220 A 
ATOM      5  C   LIG    1        1.203   2.122   0.002  0.00  0.00    +0.060 A 
ATOM      6  S   LIG    1        0.956   3.862   0.014  0.00  0.00    +0.190 S 
ATOM      7  C   LIG    1       -0.788   3.686   0.029  0.00  0.00    -0.040 A 
ATOM      8  C   LIG    1       -1.139   2.400   0.020  0.00  0.00    +0.010 A 
ATOM      9  O   LIG    1       -1.040  -0.640   0.008  0.00  0.00    -0.470 OA
ATOM     10  N   LIG    1        2.357   1.369  -0.013  0.00  0.00    -0.590 N 
ATOM     11  H   LIG    1        3.218   1.817  -0.019  0.00  0.00    +0.420 HD
ENDROOT
BRANCH   8  12
ATOM     12  C   LIG    1       -2.553   1.953   0.024  0.00  0.00    -0.050 A 
ATOM     13  C   LIG    1       -2.991   1.012  -0.907  0.00  0.00    +0.100 A 
ATOM     14  C   LIG    1       -4.306   0.595  -0.896  0.00  0.00    -0.010 A 
ATOM     15  C   LIG    1       -5.194   1.119   0.030  0.00  0.00    +0.110 A 
ATOM     16  C   LIG    1       -4.764   2.057   0.954  0.00  0.00    -0.020 A 
ATOM     17  F   LIG    1       -6.482   0.712   0.033  0.00  0.00    -0.140 F 
ATOM     18  C   LIG    1       -3.449   2.476   0.954  0.00  0.00    +0.060 A 
ENDBRANCH   8  12
BRANCH   1  19
ATOM     19  C   LIG    1        3.606  -0.741  -0.036  0.00  0.00    +0.280 C 
BRANCH  19  20
ATOM     20  N   LIG    1        3.319  -2.182  -0.040  0.00  0.00    -0.660 NA
ATOM     21  H   LIG    1        2.726  -2.430  -0.818  0.00  0.00    +0.360 HD
BRANCH  20  23
ATOM     22  C   LIG    1        5.047  -3.124  -1.498  0.00  0.00    +0.010 C 
ATOM     23  C   LIG    1        4.562  -2.966  -0.056  0.00  0.00    +0.220 C 
BRANCH  23  24
ATOM     24  C   LIG    1        4.305  -4.326   0.540  0.00  0.00    -0.070 A 
ATOM     25  C   LIG    1        3.131  -4.997   0.256  0.00  0.00    +0.030 A 
ATOM     26  C   LIG    1        2.902  -6.241   0.808  0.00  0.00    +0.000 A 
ATOM     27  C   LIG    1        3.843  -6.825   1.647  0.00  0.00    -0.080 A 
ATOM     28  C   LIG    1        3.522  -8.178   2.226  0.00  0.00    +0.070 C 
ATOM     29  C   LIG    1        4.789  -8.852   2.749  0.00  0.00    +0.010 C 
ATOM     30  C   LIG    1        5.515  -7.866   3.672  0.00  0.00    +0.020 C 
ATOM     31  C   LIG    1        6.083  -6.735   2.817  0.00  0.00    +0.060 C 
ATOM     32  C   LIG    1        5.015  -6.158   1.925  0.00  0.00    -0.080 A 
ATOM     33  C   LIG    1        5.245  -4.908   1.366  0.00  0.00    +0.000 A 
ENDBRANCH  23  24
ENDBRANCH  20  23
ENDBRANCH  19  20
ENDBRANCH   1  19
TORSDOF 5
