REMARK  Name = ZINCrg000000qNlR.0
REMARK                            x       y       z     vdW  Elec       q    Type
REMARK                         _______ _______ _______ _____ _____    ______ ____
ROOT
ATOM      1  C   LIG    1       -0.067  -2.700  -5.851  0.00  0.00    +0.580 C 
ATOM      2  N   LIG    1        0.362  -2.031  -4.762  0.00  0.00    -0.710 N 
ATOM      3  H   LIG    1        1.259  -1.663  -4.742  0.00  0.00    +0.410 HD
ATOM      4  O   LIG    1       -1.192  -3.162  -5.876  0.00  0.00    -0.510 OA
ENDROOT
BRANCH   1   9
ATOM      5  C   LIG    1        2.506  -4.138  -8.192  0.00  0.00    +0.100 A 
ATOM      6  C   LIG    1        2.508  -3.188  -9.199  0.00  0.00    +0.000 A 
ATOM      7  C   LIG    1        1.677  -2.083  -9.120  0.00  0.00    +0.040 A 
ATOM      8  C   LIG    1        0.839  -1.917  -8.036  0.00  0.00    +0.110 A 
ATOM      9  C   LIG    1        0.826  -2.871  -7.011  0.00  0.00    -0.150 A 
ATOM     10  F   LIG    1        0.031  -0.837  -7.965  0.00  0.00    -0.130 F 
ATOM     11  C   LIG    1        1.672  -3.984  -7.090  0.00  0.00    +0.130 A 
BRANCH   5  13
ATOM     12  C   LIG    1        4.161  -5.312  -9.434  0.00  0.00    +0.250 C 
ATOM     13  O   LIG    1        3.326  -5.221  -8.278  0.00  0.00    -0.300 OA
ENDBRANCH   5  13
BRANCH  11  14
ATOM     14  O   LIG    1        1.673  -4.912  -6.099  0.00  0.00    -0.320 OA
ATOM     15  C   LIG    1        0.762  -6.004  -6.232  0.00  0.00    +0.240 C 
ENDBRANCH  11  14
ENDBRANCH   1   9
BRANCH   2  16
ATOM     16  C   LIG    1       -0.526  -1.862  -3.609  0.00  0.00    +0.310 C 
BRANCH  16  17
ATOM     17  C   LIG    1        0.201  -1.073  -2.518  0.00  0.00    -0.380 C 
BRANCH  17  18
ATOM     18  S   LIG    1       -0.899  -0.863  -1.091  0.00  0.00    +2.620 S 
ATOM     19  O   LIG    1       -1.976   0.004  -1.415  0.00  0.00    -0.940 OA
ATOM     20  O   LIG    1       -1.129  -2.111  -0.451  0.00  0.00    -0.940 OA
BRANCH  18  21
ATOM     21  N   LIG    1        0.002  -0.004   0.002  0.00  0.00    -1.000 NA
ATOM     22  C   LIG    1       -0.018   1.467   0.010  0.00  0.00    +0.280 C 
ATOM     23  C   LIG    1        1.430   1.970  -0.001  0.00  0.00    +0.190 C 
ATOM     24  O   LIG    1        2.156   1.340   1.057  0.00  0.00    -0.370 OA
ATOM     25  C   LIG    1        2.252  -0.082   0.934  0.00  0.00    +0.140 C 
ATOM     26  C   LIG    1        3.098  -0.637   2.081  0.00  0.00    +0.070 C 
ATOM     27  C   LIG    1        2.080   1.627  -1.343  0.00  0.00    +0.010 C 
ATOM     28  C   LIG    1        0.847  -0.690   0.993  0.00  0.00    +0.280 C 
ENDBRANCH  18  21
ENDBRANCH  17  18
ENDBRANCH  16  17
ENDBRANCH   2  16
TORSDOF 7
