REMARK  Name = ZINCrD00000F5LD0.0
REMARK                            x       y       z     vdW  Elec       q    Type
REMARK                         _______ _______ _______ _____ _____    ______ ____
ROOT
ATOM      1  C   LIG    1       -2.453   1.382   2.132  0.00  0.00    +0.250 A 
ATOM      2  C   LIG    1       -2.946   0.295   1.413  0.00  0.00    -0.080 A 
ATOM      3  C   LIG    1       -3.743  -0.628   2.028  0.00  0.00    +0.110 A 
ATOM      4  C   LIG    1       -4.073  -0.474   3.383  0.00  0.00    -0.180 A 
ATOM      5  C   LIG    1       -3.578   0.626   4.100  0.00  0.00    +0.090 A 
ATOM      6  C   LIG    1       -2.778   1.540   3.478  0.00  0.00    -0.070 A 
ENDROOT
BRANCH   4   7
ATOM      7  C   LIG    1       -4.931  -1.457   4.046  0.00  0.00    +0.260 C 
ATOM      8  C   LIG    1       -5.741  -1.071   5.092  0.00  0.00    -0.160 C 
BRANCH   8   9
ATOM      9  C   LIG    1       -6.489  -2.081   5.855  0.00  0.00    +0.580 C 
ATOM     10  N   LIG    1       -7.281  -1.704   6.878  0.00  0.00    -0.720 N 
ATOM     11  H   LIG    1       -7.358  -0.765   7.112  0.00  0.00    +0.400 HD
ATOM     12  O   LIG    1       -6.393  -3.258   5.562  0.00  0.00    -0.530 OA
BRANCH  10  13
ATOM     13  C   LIG    1       -8.026  -2.711   7.638  0.00  0.00    +0.290 C 
BRANCH  13  14
ATOM     14  C   LIG    1       -8.841  -2.022   8.735  0.00  0.00    +0.170 C 
BRANCH  14  15
ATOM     15  O   LIG    1       -9.835  -1.187   8.137  0.00  0.00    -0.390 OA
ATOM     16  C   LIG    1      -10.655  -0.494   9.080  0.00  0.00    +0.200 C 
ENDBRANCH  14  15
ENDBRANCH  13  14
ENDBRANCH  10  13
ENDBRANCH   8   9
BRANCH   8  17
ATOM     17  C   LIG    1       -5.854   0.315   5.437  0.00  0.00    +0.250 C 
ATOM     18  N   LIG    1       -5.944   1.414   5.710  0.00  0.00    -0.420 NA
ENDBRANCH   8  17
ENDBRANCH   4   7
BRANCH   1  19
ATOM     19  N   LIG    1       -1.639   2.315   1.502  0.00  0.00    -0.610 N 
BRANCH  19  21
ATOM     20  C   LIG    1       -2.109   4.628   2.144  0.00  0.00    +0.020 C 
ATOM     21  C   LIG    1       -1.123   3.463   2.254  0.00  0.00    +0.270 C 
ENDBRANCH  19  21
BRANCH  19  22
ATOM     22  C   LIG    1       -1.295   2.152   0.088  0.00  0.00    +0.340 C 
BRANCH  22  23
ATOM     23  C   LIG    1       -0.030   1.342  -0.032  0.00  0.00    -0.110 A 
ATOM     24  C   LIG    1        1.198   1.976  -0.051  0.00  0.00    +0.010 A 
ATOM     25  C   LIG    1        2.358   1.233  -0.168  0.00  0.00    +0.000 A 
ATOM     26  C   LIG    1        2.290  -0.144  -0.264  0.00  0.00    +0.000 A 
ATOM     27  C   LIG    1        1.062  -0.778  -0.244  0.00  0.00    +0.000 A 
ATOM     28  C   LIG    1       -0.098  -0.035  -0.128  0.00  0.00    +0.020 A 
ENDBRANCH  22  23
ENDBRANCH  19  22
ENDBRANCH   1  19
TORSDOF 10
