REMARK  Name = ZINCpe00000bR6Sy.1
REMARK                            x       y       z     vdW  Elec       q    Type
REMARK                         _______ _______ _______ _____ _____    ______ ____
ROOT
ATOM      1  C   LIG    1       -2.839  -5.489   0.899  0.00  0.00    +0.050 C 
ATOM      2  C   LIG    1       -1.481  -5.792   0.263  0.00  0.00    +0.210 C 
ATOM      3  C   LIG    1       -0.660  -6.669   1.207  0.00  0.00    +0.020 C 
ATOM      4  C   LIG    1        0.747  -6.853   0.634  0.00  0.00    +0.240 C 
ATOM      5  C   LIG    1        1.435  -5.491   0.518  0.00  0.00    +0.010 C 
ATOM      6  C   LIG    1        0.636  -4.600  -0.439  0.00  0.00    +0.290 C 
ATOM      7  N   LIG    1       -0.757  -4.536   0.026  0.00  0.00    -0.600 N 
ATOM      8  C   LIG    1       -1.356  -3.347   0.236  0.00  0.00    +0.610 C 
ATOM      9  O   LIG    1       -2.457  -3.304   0.751  0.00  0.00    -0.540 OA
ENDROOT
BRANCH   8  10
ATOM     10  C   LIG    1       -0.677  -2.100  -0.157  0.00  0.00    -0.070 A 
ATOM     11  C   LIG    1       -1.102  -0.831   0.113  0.00  0.00    +0.230 A 
ATOM     12  N   LIG    1       -0.191   0.007  -0.423  0.00  0.00    -0.450 N 
ATOM     13  C   LIG    1       -0.202   1.473  -0.395  0.00  0.00    +0.290 C 
ATOM     14  C   LIG    1        1.203   1.983  -0.733  0.00  0.00    +0.030 C 
ATOM     15  C   LIG    1        1.698   1.308  -2.015  0.00  0.00    +0.030 C 
ATOM     16  C   LIG    1        1.975  -0.174  -1.732  0.00  0.00    +0.150 C 
ATOM     17  C   LIG    1        0.776  -0.749  -1.015  0.00  0.00    +0.210 A 
ATOM     18  N   LIG    1        0.485  -2.004  -0.855  0.00  0.00    -0.460 NA
ENDBRANCH   8  10
BRANCH   4  19
ATOM     19  N   LIG    1        0.658  -7.469  -0.692  0.00  0.00    -0.730 N 
ATOM     20  H   LIG    1       -0.149  -7.367  -1.221  0.00  0.00    +0.400 HD
ATOM     21  C   LIG    1        1.696  -8.179  -1.177  0.00  0.00    +0.520 C 
ATOM     22  O   LIG    1        2.704  -8.307  -0.515  0.00  0.00    -0.520 OA
BRANCH  21  23
ATOM     23  C   LIG    1        1.604  -8.813  -2.541  0.00  0.00    +0.190 C 
BRANCH  23  24
ATOM     24  N   LIG    1        2.855  -9.525  -2.835  0.00  0.00    -0.530 NA
ATOM     25  C   LIG    1        2.899  -9.953  -4.239  0.00  0.00    +0.190 C 
ATOM     26  C   LIG    1        3.036 -10.668  -1.930  0.00  0.00    +0.200 C 
ENDBRANCH  23  24
ENDBRANCH  21  23
ENDBRANCH   4  19
TORSDOF 4
