REMARK  Name = ZINCvU00000008dv.0
REMARK                            x       y       z     vdW  Elec       q    Type
REMARK                         _______ _______ _______ _____ _____    ______ ____
ROOT
ATOM      1  C   LIG    1        2.213   4.410  -0.012  0.00  0.00    -0.150 A 
ATOM      2  C   LIG    1        3.513   3.903  -0.122  0.00  0.00    +0.090 A 
ATOM      3  C   LIG    1        4.587   4.763  -0.128  0.00  0.00    +0.020 A 
ATOM      4  C   LIG    1        4.383   6.135  -0.014  0.00  0.00    +0.160 A 
ATOM      5  C   LIG    1        3.093   6.644   0.101  0.00  0.00    +0.040 A 
ATOM      6  C   LIG    1        2.013   5.791   0.102  0.00  0.00    +0.110 A 
ENDROOT
BRANCH   4   7
ATOM      7  N   LIG    1        5.477   7.004  -0.014  0.00  0.00    -0.330 N 
ATOM      8  N   LIG    1        5.598   8.206  -0.728  0.00  0.00    -0.050 NA
ATOM      9  N   LIG    1        6.750   8.717  -0.467  0.00  0.00    -0.220 NA
ATOM     10  C   LIG    1        7.419   7.936   0.379  0.00  0.00    +0.150 A 
ATOM     11  C   LIG    1        6.646   6.856   0.687  0.00  0.00    +0.100 A 
BRANCH  11  12
ATOM     12  C   LIG    1        7.000   5.744   1.595  0.00  0.00    -0.040 A 
ATOM     13  C   LIG    1        5.997   5.013   2.232  0.00  0.00    +0.040 A 
ATOM     14  C   LIG    1        6.332   3.973   3.074  0.00  0.00    +0.040 A 
ATOM     15  C   LIG    1        7.663   3.661   3.296  0.00  0.00    -0.020 A 
ATOM     16  C   LIG    1        8.664   4.386   2.671  0.00  0.00    +0.030 A 
ATOM     17 CL   LIG    1        8.078   2.356   4.363  0.00  0.00    -0.060 Cl
ATOM     18  C   LIG    1        8.339   5.424   1.823  0.00  0.00    +0.070 A 
ENDBRANCH  11  12
ENDBRANCH   4   7
BRANCH   1  20
ATOM     19  O   LIG    1       -0.063   3.938   0.089  0.00  0.00    -0.420 OA
ATOM     20  C   LIG    1        1.062   3.496  -0.011  0.00  0.00    +0.400 C 
BRANCH  20  21
ATOM     21  C   LIG    1        1.280   2.010  -0.134  0.00  0.00    +0.240 C 
BRANCH  21  22
ATOM     22  O   LIG    1       -0.002   1.329  -0.108  0.00  0.00    -0.330 OA
BRANCH  22  23
ATOM     23  C   LIG    1        0.017  -0.014  -0.208  0.00  0.00    +0.510 C 
ATOM     24  O   LIG    1        1.076  -0.600  -0.316  0.00  0.00    -0.500 OA
BRANCH  23  25
ATOM     25  C   LIG    1       -1.249  -0.774  -0.189  0.00  0.00    -0.120 A 
ATOM     26  C   LIG    1       -2.467  -0.103  -0.060  0.00  0.00    +0.100 A 
ATOM     27  C   LIG    1       -3.646  -0.818  -0.048  0.00  0.00    +0.050 A 
ATOM     28  C   LIG    1       -3.623  -2.199  -0.151  0.00  0.00    -0.060 A 
ATOM     29  C   LIG    1       -2.418  -2.870  -0.274  0.00  0.00    +0.050 A 
ATOM     30 BR   LIG    1       -5.245  -3.172  -0.125  0.00  0.00    -0.030 Br
ATOM     31  C   LIG    1       -1.233  -2.167  -0.293  0.00  0.00    +0.100 A 
ENDBRANCH  23  25
ENDBRANCH  22  23
ENDBRANCH  21  22
ENDBRANCH  20  21
ENDBRANCH   1  20
TORSDOF 7
