REMARK  Name = ZINCrH000004nEj8.0
REMARK                            x       y       z     vdW  Elec       q    Type
REMARK                         _______ _______ _______ _____ _____    ______ ____
ROOT
ATOM      1  N   LIG    1        3.760  -3.782  -3.774  0.00  0.00    -0.610 N 
ATOM      2  C   LIG    1        3.659  -3.693  -2.433  0.00  0.00    +0.520 C 
ATOM      3  O   LIG    1        3.493  -4.695  -1.770  0.00  0.00    -0.520 OA
ATOM      4  C   LIG    1        3.961  -2.572  -4.575  0.00  0.00    +0.280 C 
ENDROOT
BRANCH   1   5
ATOM      5  C   LIG    1        3.671  -5.088  -4.431  0.00  0.00    +0.290 C 
ATOM      6  C   LIG    1        3.977  -4.932  -5.922  0.00  0.00    +0.060 C 
BRANCH   5  12
ATOM      7  C   LIG    1        2.071  -7.013  -4.278  0.00  0.00    +0.140 A 
ATOM      8  C   LIG    1        0.789  -7.520  -4.120  0.00  0.00    -0.080 A 
ATOM      9  C   LIG    1       -0.276  -6.658  -3.943  0.00  0.00    +0.040 A 
ATOM     10  C   LIG    1       -0.066  -5.292  -3.925  0.00  0.00    -0.030 A 
ATOM     11  C   LIG    1        1.212  -4.785  -4.078  0.00  0.00    +0.050 A 
ATOM     12  C   LIG    1        2.279  -5.642  -4.260  0.00  0.00    -0.120 A 
BRANCH   7  14
ATOM     13  C   LIG    1        2.831  -9.259  -4.460  0.00  0.00    +0.250 C 
ATOM     14  O   LIG    1        3.120  -7.859  -4.451  0.00  0.00    -0.320 OA
ENDBRANCH   7  14
ENDBRANCH   5  12
ENDBRANCH   1   5
BRANCH   2  15
ATOM     15  C   LIG    1        3.751  -2.349  -1.758  0.00  0.00    +0.040 C 
BRANCH  15  16
ATOM     16  C   LIG    1        3.606  -2.527  -0.245  0.00  0.00    +0.320 C 
BRANCH  16  17
ATOM     17  N   LIG    1        3.696  -1.221   0.411  0.00  0.00    -0.540 N 
ATOM     18  C   LIG    1        2.580  -0.498   0.478  0.00  0.00    +0.520 C 
ATOM     19  C   LIG    1        2.506   0.853   1.134  0.00  0.00    +0.150 C 
ATOM     20  S   LIG    1        3.617   0.874   2.571  0.00  0.00    -0.080 S 
ATOM     21  C   LIG    1        5.067   0.111   1.917  0.00  0.00    -0.130 A 
ATOM     22  C   LIG    1        6.317   0.460   2.401  0.00  0.00    +0.080 A 
ATOM     23  C   LIG    1        7.450  -0.139   1.882  0.00  0.00    +0.000 A 
ATOM     24  C   LIG    1        7.332  -1.086   0.882  0.00  0.00    +0.050 A 
ATOM     25  C   LIG    1        6.089  -1.440   0.396  0.00  0.00    -0.010 A 
ATOM     26  O   LIG    1        1.570  -0.953  -0.016  0.00  0.00    -0.510 OA
ATOM     27  C   LIG    1        4.941  -0.846   0.909  0.00  0.00    +0.160 A 
ENDBRANCH  16  17
ENDBRANCH  15  16
ENDBRANCH   2  15
TORSDOF 6
