REMARK  Name = ZINCrg000000p4d1.0
REMARK                            x       y       z     vdW  Elec       q    Type
REMARK                         _______ _______ _______ _____ _____    ______ ____
ROOT
ATOM      1  C   LIG    1        0.133   4.230  -2.909  0.00  0.00    +0.570 C 
ATOM      2  N   LIG    1       -0.548   3.764  -1.844  0.00  0.00    -0.700 N 
ATOM      3  H   LIG    1       -1.306   3.173  -1.974  0.00  0.00    +0.410 HD
ATOM      4  O   LIG    1        1.136   4.896  -2.745  0.00  0.00    -0.520 OA
ENDROOT
BRANCH   1  11
ATOM      5  C   LIG    1       -0.287   4.040 -10.370  0.00  0.00    +0.340 C 
ATOM      6  N   LIG    1       -0.438   3.921  -8.918  0.00  0.00    -0.580 N 
ATOM      7  C   LIG    1       -1.432   3.251  -8.309  0.00  0.00    +0.570 C 
ATOM      8  C   LIG    1       -1.244   3.359  -6.844  0.00  0.00    -0.110 A 
ATOM      9  C   LIG    1       -1.941   2.882  -5.745  0.00  0.00    +0.100 A 
ATOM     10  C   LIG    1       -1.491   3.167  -4.467  0.00  0.00    +0.090 A 
ATOM     11  C   LIG    1       -0.340   3.931  -4.280  0.00  0.00    -0.110 A 
ATOM     12  C   LIG    1        0.365   4.420  -5.383  0.00  0.00    +0.170 A 
ATOM     13  C   LIG    1       -0.080   4.132  -6.662  0.00  0.00    -0.150 A 
ATOM     14  O   LIG    1       -2.333   2.658  -8.867  0.00  0.00    -0.450 OA
ATOM     15  C   LIG    1        0.400   4.468  -8.019  0.00  0.00    +0.580 C 
ATOM     16  O   LIG    1        1.386   5.127  -8.279  0.00  0.00    -0.450 OA
ENDBRANCH   1  11
BRANCH   2  17
ATOM     17  C   LIG    1       -0.144   4.149  -0.490  0.00  0.00    +0.150 C 
ATOM     18  C   LIG    1       -1.114   3.542   0.531  0.00  0.00    +0.270 C 
ATOM     19  O   LIG    1       -1.163   2.130   0.321  0.00  0.00    -0.310 OA
ATOM     20  C   LIG    1        0.015   1.461   0.226  0.00  0.00    +0.120 A 
ATOM     21  C   LIG    1        0.009   0.079   0.386  0.00  0.00    -0.010 A 
ATOM     22  C   LIG    1        1.185  -0.636   0.287  0.00  0.00    +0.040 A 
ATOM     23  C   LIG    1        2.374   0.021   0.028  0.00  0.00    -0.020 A 
ATOM     24  C   LIG    1        2.383   1.393  -0.130  0.00  0.00    +0.040 A 
ATOM     25  C   LIG    1        1.207   2.117  -0.030  0.00  0.00    -0.150 A 
ATOM     26  C   LIG    1        1.260   3.614  -0.198  0.00  0.00    +0.110 C 
BRANCH  17  27
ATOM     27  C   LIG    1       -0.151   5.674  -0.365  0.00  0.00    +0.200 C 
BRANCH  27  28
ATOM     28  O   LIG    1       -1.447   6.174  -0.700  0.00  0.00    -0.570 OA
ATOM     29  H   LIG    1       -1.524   7.136  -0.642  0.00  0.00    +0.390 HD
ENDBRANCH  27  28
ENDBRANCH  17  27
ENDBRANCH   2  17
TORSDOF 4
