REMARK  Name = ZINCb80000002tcZ.0
REMARK                            x       y       z     vdW  Elec       q    Type
REMARK                         _______ _______ _______ _____ _____    ______ ____
ROOT
ATOM      1  N   LIG    1        3.719   1.748  -0.024  0.00  0.00    -0.540 NA
ATOM      2  C   LIG    1        3.878   2.497  -1.279  0.00  0.00    +0.140 C 
ATOM      3  C   LIG    1        5.173   3.311  -1.221  0.00  0.00    +0.220 C 
ATOM      4  O   LIG    1        6.273   2.430  -0.973  0.00  0.00    -0.390 OA
ATOM      5  C   LIG    1        6.151   1.685   0.242  0.00  0.00    +0.220 C 
ATOM      6  C   LIG    1        4.865   0.855   0.199  0.00  0.00    +0.150 C 
ENDROOT
BRANCH   1   7
ATOM      7  C   LIG    1        2.457   0.996  -0.016  0.00  0.00    +0.180 C 
BRANCH   7   8
ATOM      8  C   LIG    1        1.280   1.975   0.000  0.00  0.00    +0.040 C 
BRANCH   8  10
ATOM      9  C   LIG    1       -1.329   1.939   0.019  0.00  0.00    +0.050 C 
ATOM     10  C   LIG    1       -0.014   1.203   0.009  0.00  0.00    +0.350 C 
ATOM     11  O   LIG    1        0.002  -0.004   0.002  0.00  0.00    -0.460 OA
ENDBRANCH   8  10
ENDBRANCH   7   8
ENDBRANCH   1   7
TORSDOF 3
