REMARK  Name = ZINCrD000000BYoM.0
REMARK                            x       y       z     vdW  Elec       q    Type
REMARK                         _______ _______ _______ _____ _____    ______ ____
ROOT
ATOM      1  O   LIG    1        0.048   3.438   3.222  0.00  0.00    -0.570 OA
ATOM      2  C   LIG    1       -0.528   3.922   2.267  0.00  0.00    +0.710 C 
ATOM      3  N   LIG    1       -0.949   3.129   1.261  0.00  0.00    -0.630 N 
ATOM      4  C   LIG    1       -0.823   1.668   1.358  0.00  0.00    +0.330 C 
ATOM      5  C   LIG    1       -0.079   1.155   0.121  0.00  0.00    +0.050 C 
ATOM      6  C   LIG    1       -0.795   1.643  -1.140  0.00  0.00    -0.450 C 
ATOM      7  C   LIG    1       -0.789   3.173  -1.173  0.00  0.00    +0.060 C 
ATOM      8  C   LIG    1       -1.542   3.709   0.049  0.00  0.00    +0.280 C 
ATOM      9  N   LIG    1       -0.746   5.251   2.213  0.00  0.00    -0.690 N 
ATOM     10  H   LIG    1       -1.266   5.628   1.487  0.00  0.00    +0.410 HD
ENDROOT
BRANCH   9  11
ATOM     11  C   LIG    1       -0.222   6.086   3.206  0.00  0.00    +0.150 A 
ATOM     12  C   LIG    1       -0.147   5.643   4.520  0.00  0.00    +0.030 A 
ATOM     13  C   LIG    1        0.377   6.468   5.497  0.00  0.00    +0.030 A 
ATOM     14  C   LIG    1        0.815   7.738   5.169  0.00  0.00    -0.070 A 
ATOM     15  C   LIG    1        0.736   8.184   3.863  0.00  0.00    +0.040 A 
ATOM     16  C   LIG    1        0.219   7.362   2.881  0.00  0.00    -0.020 A 
BRANCH  14  17
ATOM     17  C   LIG    1        1.379   8.638   6.238  0.00  0.00    -0.010 C 
ATOM     18  C   LIG    1        1.629   8.025   7.618  0.00  0.00    +0.020 C 
ATOM     19  C   LIG    1        0.466   8.999   7.412  0.00  0.00    +0.030 C 
ENDBRANCH  14  17
ENDBRANCH   9  11
BRANCH   6  20
ATOM     20  S   LIG    1        0.060   1.004  -2.607  0.00  0.00    +2.610 S 
ATOM     21  O   LIG    1       -0.100  -0.405  -2.703  0.00  0.00    -0.950 OA
ATOM     22  O   LIG    1        1.340   1.607  -2.740  0.00  0.00    -0.950 OA
BRANCH  20  23
ATOM     23  N   LIG    1       -0.808   1.601  -3.885  0.00  0.00    -1.000 NA
ATOM     24  C   LIG    1       -0.402   2.847  -4.548  0.00  0.00    +0.290 C 
ATOM     25  C   LIG    1       -0.265   2.576  -6.054  0.00  0.00    +0.020 C 
ATOM     26  C   LIG    1       -1.572   1.982  -6.581  0.00  0.00    +0.010 C 
ATOM     27  C   LIG    1       -1.851   0.652  -5.876  0.00  0.00    +0.020 C 
ATOM     28  C   LIG    1       -2.003   0.898  -4.372  0.00  0.00    +0.280 C 
ENDBRANCH  20  23
ENDBRANCH   6  20
TORSDOF 4
