REMARK  Name = ZINCc70000002zKt.0
REMARK                            x       y       z     vdW  Elec       q    Type
REMARK                         _______ _______ _______ _____ _____    ______ ____
ROOT
ATOM      1  C   LIG    1       -1.161   2.233  -0.715  0.00  0.00    +0.170 C 
ATOM      2  O   LIG    1       -1.074   2.180   0.711  0.00  0.00    -0.300 OA
ATOM      3  C   LIG    1       -0.019   1.528   0.010  0.00  0.00    +0.010 C 
ATOM      4  C   LIG    1        0.002  -0.004   0.002  0.00  0.00    +0.070 C 
ATOM      5  C   LIG    1        0.944  -0.481   1.115  0.00  0.00    +0.020 C 
ATOM      6  C   LIG    1        2.305   0.198   0.943  0.00  0.00    +0.210 C 
ATOM      7  O   LIG    1        2.156   1.615   1.042  0.00  0.00    -0.370 OA
ATOM      8  C   LIG    1        1.360   2.192   0.001  0.00  0.00    +0.270 C 
ENDROOT
BRANCH   1   9
ATOM      9  C   LIG    1       -2.202   1.376  -1.388  0.00  0.00    +0.480 C 
ATOM     10  O   LIG    1       -3.344   1.389  -0.992  0.00  0.00    -0.480 OA
BRANCH   9  12
ATOM     11  C   LIG    1       -2.915  -0.202  -3.025  0.00  0.00    +0.280 C 
ATOM     12  O   LIG    1       -1.861   0.597  -2.426  0.00  0.00    -0.350 OA
ENDBRANCH   9  12
ENDBRANCH   1   9
TORSDOF 2
