REMARK  Name = ZINCpk00000ebOOC.0
REMARK                            x       y       z     vdW  Elec       q    Type
REMARK                         _______ _______ _______ _____ _____    ______ ____
ROOT
ATOM      1  C   LIG    1       -1.547   3.850  -0.232  0.00  0.00    +0.300 C 
ENDROOT
BRANCH   1   2
ATOM      2  N   LIG    1       -1.844   3.944  -1.667  0.00  0.00    -0.520 NA
ATOM      3  C   LIG    1       -0.691   4.471  -2.411  0.00  0.00    +0.130 C 
ATOM      4  C   LIG    1       -1.022   4.496  -3.906  0.00  0.00    +0.230 C 
ATOM      5  O   LIG    1       -2.203   5.275  -4.114  0.00  0.00    -0.360 OA
ATOM      6  C   LIG    1       -3.346   4.789  -3.405  0.00  0.00    +0.160 C 
ATOM      7  C   LIG    1       -3.038   4.768  -1.906  0.00  0.00    +0.180 C 
BRANCH   6   8
ATOM      8  C   LIG    1       -4.540   5.710  -3.669  0.00  0.00    +0.360 C 
BRANCH   8   9
ATOM      9  N   LIG    1       -4.909   5.638  -5.085  0.00  0.00    -0.380 N 
ATOM     10  C   LIG    1       -6.117   5.333  -5.588  0.00  0.00    +0.470 A 
ATOM     11  N   LIG    1       -6.037   5.378  -6.893  0.00  0.00    -0.550 NA
ATOM     12  C   LIG    1       -4.796   5.698  -7.258  0.00  0.00    +0.410 A 
ATOM     13  N   LIG    1       -4.068   5.867  -6.186  0.00  0.00    -0.290 NA
ENDBRANCH   8   9
ENDBRANCH   6   8
ENDBRANCH   1   2
BRANCH   1  18
ATOM     14  N   LIG    1        0.843   3.057   0.124  0.00  0.00    -0.450 N 
ATOM     15  C   LIG    1        1.462   1.851   0.313  0.00  0.00    +0.120 A 
ATOM     16  C   LIG    1        0.498   0.911   0.291  0.00  0.00    +0.140 A 
ATOM     17  N   LIG    1       -0.677   1.525   0.089  0.00  0.00    -0.470 NA
ATOM     18  C   LIG    1       -0.479   2.812  -0.007  0.00  0.00    +0.210 A 
BRANCH  14  19
ATOM     19  C   LIG    1        1.492   4.369   0.073  0.00  0.00    +0.340 C 
BRANCH  19  23
ATOM     20  C   LIG    1        1.387   6.162   3.950  0.00  0.00    +0.020 A 
ATOM     21  C   LIG    1        2.399   5.278   3.624  0.00  0.00    +0.010 A 
ATOM     22  C   LIG    1        2.433   4.698   2.369  0.00  0.00    +0.020 A 
ATOM     23  C   LIG    1        1.455   5.001   1.441  0.00  0.00    -0.120 A 
ATOM     24  C   LIG    1        0.445   5.888   1.765  0.00  0.00    +0.020 A 
ATOM     25  C   LIG    1        0.409   6.465   3.021  0.00  0.00    +0.010 A 
ENDBRANCH  19  23
ENDBRANCH  14  19
ENDBRANCH   1  18
TORSDOF 6
