REMARK  Name = ZINCtj00001n1kbE.0
REMARK                            x       y       z     vdW  Elec       q    Type
REMARK                         _______ _______ _______ _____ _____    ______ ____
ROOT
ATOM      1  O   LIG    1        1.989   1.596  -3.135  0.00  0.00    -0.530 OA
ATOM      2  C   LIG    1        2.560   0.514  -3.008  0.00  0.00    +0.560 C 
ATOM      3  C   LIG    1        2.492  -0.430  -4.132  0.00  0.00    -0.140 A 
ATOM      4  C   LIG    1        3.575  -1.199  -4.543  0.00  0.00    +0.060 A 
ATOM      5  C   LIG    1        3.445  -2.095  -5.584  0.00  0.00    +0.000 A 
ATOM      6  C   LIG    1        2.236  -2.226  -6.246  0.00  0.00    +0.060 A 
ATOM      7  C   LIG    1        1.153  -1.455  -5.870  0.00  0.00    -0.050 A 
ATOM      8  C   LIG    1        1.269  -0.558  -4.822  0.00  0.00    +0.160 A 
ATOM      9  O   LIG    1        0.210   0.205  -4.454  0.00  0.00    -0.300 OA
ATOM     10  C   LIG    1       -1.026  -0.468  -4.211  0.00  0.00    +0.240 C 
ATOM     11  C   LIG    1       -1.839   0.310  -3.210  0.00  0.00    -0.030 C 
ATOM     12  C   LIG    1       -1.244   0.996  -2.262  0.00  0.00    +0.000 C 
ATOM     13  C   LIG    1       -2.079   1.763  -1.271  0.00  0.00    +0.070 C 
ATOM     14  C   LIG    1       -1.329   1.948   0.045  0.00  0.00    +0.090 C 
ATOM     15  C   LIG    1       -0.014   1.208   0.009  0.00  0.00    +0.550 C 
ATOM     16  N   LIG    1        1.145   1.914   0.001  0.00  0.00    -0.700 N 
ATOM     17  H   LIG    1        1.151   2.872  -0.155  0.00  0.00    +0.420 HD
ATOM     18  C   LIG    1        2.396   1.180   0.263  0.00  0.00    +0.280 C 
ATOM     19  C   LIG    1        3.362   1.395  -0.900  0.00  0.00    +0.280 C 
ATOM     20  O   LIG    1        0.002  -0.004   0.002  0.00  0.00    -0.510 OA
ATOM     21  C   LIG    1       -2.171   1.393   1.198  0.00  0.00    +0.280 C 
ATOM     22  N   LIG    1       -3.404   2.176   1.340  0.00  0.00    -0.500 N 
ATOM     23  C   LIG    1       -3.065   3.579   1.615  0.00  0.00    +0.240 C 
ATOM     24  C   LIG    1       -2.241   4.137   0.453  0.00  0.00    +0.270 C 
ATOM     25  H   LIG    1       -3.945   2.120   0.491  0.00  0.00    +0.430 HD
ATOM     26  H   LIG    1       -3.949   1.808   2.107  0.00  0.00    +0.440 HD
ATOM     27  O   LIG    1       -1.076   3.337   0.264  0.00  0.00    -0.350 OA
ATOM     28  N   LIG    1        3.225   0.290  -1.864  0.00  0.00    -0.600 N 
ENDROOT
BRANCH  28  29
ATOM     29  C   LIG    1        3.795  -1.019  -1.532  0.00  0.00    +0.310 C 
BRANCH  29  30
ATOM     30  C   LIG    1        2.748  -1.859  -0.798  0.00  0.00    -0.060 C 
ATOM     31  C   LIG    1        3.050  -2.258   0.648  0.00  0.00    +0.010 C 
ATOM     32  C   LIG    1        3.111  -3.307  -0.465  0.00  0.00    +0.020 C 
ENDBRANCH  29  30
ENDBRANCH  28  29
TORSDOF 2
