REMARK  Name = ZINCqH0000000ZHZ.0
REMARK                            x       y       z     vdW  Elec       q    Type
REMARK                         _______ _______ _______ _____ _____    ______ ____
ROOT
ATOM      1  N   LIG    1       -0.905   1.891   1.429  0.00  0.00    -1.110 NA
ATOM      2  H   LIG    1       -0.869   2.858   1.366  0.00  0.00    +0.420 HD
ENDROOT
BRANCH   1   3
ATOM      3  S   LIG    1        0.475   0.996   1.243  0.00  0.00    +2.690 S 
ATOM      4  O   LIG    1        1.511   1.917   0.929  0.00  0.00    -0.950 OA
ATOM      5  O   LIG    1        0.532   0.111   2.354  0.00  0.00    -0.940 OA
BRANCH   3   6
ATOM      6  C   LIG    1        0.256  -0.012  -0.185  0.00  0.00    -0.690 A 
ATOM      7  C   LIG    1       -0.183  -1.319  -0.056  0.00  0.00    +0.170 A 
ATOM      8  C   LIG    1       -0.364  -2.114  -1.164  0.00  0.00    +0.010 A 
ATOM      9  C   LIG    1       -0.097  -1.623  -2.451  0.00  0.00    +0.190 A 
ATOM     10  N   LIG    1       -0.220  -2.286  -3.658  0.00  0.00    -0.650 N 
ATOM     11  H   LIG    1       -0.524  -3.207  -3.688  0.00  0.00    +0.420 HD
ATOM     12  C   LIG    1        0.087  -1.633  -4.783  0.00  0.00    +0.520 A 
ATOM     13  S   LIG    1        0.587  -0.008  -4.286  0.00  0.00    +0.020 S 
ATOM     14  O   LIG    1        0.035  -2.067  -5.919  0.00  0.00    -0.450 OA
ATOM     15  C   LIG    1        0.349  -0.305  -2.558  0.00  0.00    -0.170 A 
ATOM     16  C   LIG    1        0.525   0.493  -1.442  0.00  0.00    +0.220 A 
ENDBRANCH   3   6
ENDBRANCH   1   3
BRANCH   1  17
ATOM     17  C   LIG    1       -2.183   1.222   1.687  0.00  0.00    +0.310 C 
BRANCH  17  18
ATOM     18  C   LIG    1       -2.440   1.187   3.172  0.00  0.00    -0.110 A 
ATOM     19  C   LIG    1       -2.123   2.282   3.954  0.00  0.00    +0.060 A 
ATOM     20  C   LIG    1       -2.363   2.252   5.315  0.00  0.00    -0.010 A 
ATOM     21  C   LIG    1       -2.910   1.121   5.896  0.00  0.00    +0.100 A 
ATOM     22  C   LIG    1       -3.223   0.023   5.113  0.00  0.00    -0.010 A 
ATOM     23  F   LIG    1       -3.141   1.089   7.227  0.00  0.00    -0.140 F 
ATOM     24  C   LIG    1       -2.987   0.057   3.751  0.00  0.00    +0.060 A 
ENDBRANCH  17  18
BRANCH  17  26
ATOM     25  C   LIG    1       -3.063   2.002  -0.517  0.00  0.00    +0.030 C 
ATOM     26  C   LIG    1       -3.310   1.989   0.993  0.00  0.00    -0.070 C 
ATOM     27  C   LIG    1       -3.347   3.426   1.516  0.00  0.00    +0.040 C 
ATOM     28  C   LIG    1       -4.647   1.305   1.285  0.00  0.00    +0.030 C 
ENDBRANCH  17  26
ENDBRANCH   1  17
TORSDOF 5
