REMARK  Name = ZINCrD000000At0v.0
REMARK                            x       y       z     vdW  Elec       q    Type
REMARK                         _______ _______ _______ _____ _____    ______ ____
ROOT
ATOM      1  O   LIG    1        5.527  -3.172   0.018  0.00  0.00    -0.510 OA
ATOM      2  C   LIG    1        4.402  -3.616   0.111  0.00  0.00    +0.540 C 
ATOM      3  N   LIG    1        4.208  -4.945   0.214  0.00  0.00    -0.610 N 
ATOM      4  C   LIG    1        2.858  -5.513   0.335  0.00  0.00    +0.320 C 
ATOM      5  C   LIG    1        2.862  -6.588   1.381  0.00  0.00    -0.050 C 
ATOM      6  C   LIG    1        3.960  -7.074   1.913  0.00  0.00    -0.030 C 
ATOM      7  C   LIG    1        5.345  -6.618   1.561  0.00  0.00    +0.070 C 
ATOM      8  C   LIG    1        5.341  -5.887   0.216  0.00  0.00    +0.290 C 
ENDROOT
BRANCH   6   9
ATOM      9  C   LIG    1        3.822  -8.141   2.923  0.00  0.00    -0.150 A 
ATOM     10  C   LIG    1        4.073  -9.463   2.746  0.00  0.00    +0.250 A 
ATOM     11  N   LIG    1        3.831 -10.138   3.908  0.00  0.00    -0.590 N 
ATOM     12  H   LIG    1        3.940 -11.094   4.027  0.00  0.00    +0.420 HD
ATOM     13  C   LIG    1        3.410  -9.264   4.887  0.00  0.00    +0.120 A 
ATOM     14  C   LIG    1        3.042  -9.431   6.218  0.00  0.00    -0.040 A 
ATOM     15  C   LIG    1        2.657  -8.339   6.968  0.00  0.00    +0.120 A 
ATOM     16  C   LIG    1        2.631  -7.069   6.405  0.00  0.00    -0.040 A 
ATOM     17  C   LIG    1        2.993  -6.884   5.089  0.00  0.00    +0.090 A 
ATOM     18  F   LIG    1        2.300  -8.506   8.260  0.00  0.00    -0.140 F 
ATOM     19  C   LIG    1        3.391  -7.977   4.322  0.00  0.00    -0.100 A 
ENDBRANCH   6   9
BRANCH   2  20
ATOM     20  C   LIG    1        3.221  -2.679   0.112  0.00  0.00    +0.050 C 
BRANCH  20  21
ATOM     21  S   LIG    1        3.806  -0.969  -0.039  0.00  0.00    +0.110 S 
BRANCH  21  22
ATOM     22  C   LIG    1        2.311  -0.036  -0.020  0.00  0.00    +0.060 C 
ATOM     23  C   LIG    1        1.096  -0.676  -0.239  0.00  0.00    +0.010 C 
ATOM     24  C   LIG    1       -0.070   0.068  -0.222  0.00  0.00    +0.100 C 
ATOM     25  C   LIG    1        0.018   1.433   0.014  0.00  0.00    +0.040 C 
ATOM     26  C   LIG    1        1.258   2.005   0.224  0.00  0.00    +0.280 C 
ATOM     27  N   LIG    1        2.354   1.270   0.202  0.00  0.00    -0.110 NA
ATOM     28  O   LIG    1        3.607   1.892   0.421  0.00  0.00    -0.530 OA
ENDBRANCH  21  22
ENDBRANCH  20  21
ENDBRANCH   2  20
TORSDOF 4
