REMARK  Name = ZINCrg000000tHdz.0
REMARK                            x       y       z     vdW  Elec       q    Type
REMARK                         _______ _______ _______ _____ _____    ______ ____
ROOT
ATOM      1  O   LIG    1       -3.604   1.924  -0.055  0.00  0.00    -0.560 OA
ATOM      2  C   LIG    1       -3.614   3.140  -0.049  0.00  0.00    +0.700 C 
ATOM      3  N   LIG    1       -4.784   3.804  -0.137  0.00  0.00    -0.610 N 
ATOM      4  N   LIG    1       -2.457   3.823   0.045  0.00  0.00    -0.690 N 
ATOM      5  H   LIG    1       -2.469   4.790   0.127  0.00  0.00    +0.400 HD
ENDROOT
BRANCH   4   6
ATOM      6  C   LIG    1       -1.236   3.138   0.024  0.00  0.00    +0.160 A 
ATOM      7  C   LIG    1       -0.161   3.610   0.763  0.00  0.00    -0.010 A 
ATOM      8  C   LIG    1        1.044   2.935   0.736  0.00  0.00    +0.030 A 
ATOM      9  C   LIG    1        1.176   1.784  -0.018  0.00  0.00    +0.030 A 
ATOM     10  C   LIG    1        0.105   1.308  -0.752  0.00  0.00    -0.090 A 
ATOM     11  C   LIG    1       -1.100   1.982  -0.733  0.00  0.00    +0.030 A 
BRANCH  10  12
ATOM     12  C   LIG    1        0.253   0.053  -1.573  0.00  0.00    +0.370 C 
BRANCH  12  13
ATOM     13  N   LIG    1       -0.105  -1.110  -0.756  0.00  0.00    -0.370 N 
ATOM     14  C   LIG    1       -1.029  -2.043  -1.065  0.00  0.00    +0.230 A 
ATOM     15  C   LIG    1       -1.058  -2.944  -0.056  0.00  0.00    -0.120 A 
ATOM     16  C   LIG    1       -0.119  -2.549   0.902  0.00  0.00    +0.220 A 
ATOM     17  N   LIG    1        0.457  -1.452   0.481  0.00  0.00    -0.290 NA
ENDBRANCH  12  13
ENDBRANCH  10  12
ENDBRANCH   4   6
BRANCH   3  18
ATOM     18  C   LIG    1       -6.042   3.062  -0.239  0.00  0.00    +0.320 C 
BRANCH  18  19
ATOM     19  C   LIG    1       -6.593   2.795   1.164  0.00  0.00    +0.150 C 
BRANCH  19  20
ATOM     20  N   LIG    1       -7.855   2.050   1.062  0.00  0.00    -0.530 NA
ATOM     21  C   LIG    1       -8.900   2.870   0.433  0.00  0.00    +0.140 C 
ATOM     22  C   LIG    1      -10.178   2.038   0.292  0.00  0.00    +0.220 C 
ATOM     23  O   LIG    1      -10.570   1.554   1.579  0.00  0.00    -0.390 OA
ATOM     24  C   LIG    1       -9.575   0.751   2.220  0.00  0.00    +0.220 C 
ATOM     25  C   LIG    1       -8.292   1.571   2.381  0.00  0.00    +0.150 C 
ENDBRANCH  19  20
ENDBRANCH  18  19
ENDBRANCH   3  18
BRANCH   3  26
ATOM     26  C   LIG    1       -4.796   5.269  -0.129  0.00  0.00    +0.290 C 
BRANCH  26  27
ATOM     27  C   LIG    1       -4.689   5.787  -1.565  0.00  0.00    +0.170 C 
BRANCH  27  28
ATOM     28  O   LIG    1       -5.853   5.403  -2.299  0.00  0.00    -0.570 OA
ATOM     29  H   LIG    1       -5.853   5.699  -3.219  0.00  0.00    +0.380 HD
ENDBRANCH  27  28
ENDBRANCH  26  27
ENDBRANCH   3  26
TORSDOF 9
