REMARK  Name = ZINCvU0000000C20.0
REMARK                            x       y       z     vdW  Elec       q    Type
REMARK                         _______ _______ _______ _____ _____    ______ ____
ROOT
ATOM      1  O   LIG    1        3.739   3.637   1.663  0.00  0.00    -0.480 OA
ATOM      2  C   LIG    1        4.951   3.655   1.622  0.00  0.00    +0.490 C 
ATOM      3  N   LIG    1        5.612   2.771   0.849  0.00  0.00    -0.610 N 
ATOM      4  C   LIG    1        7.080   2.698   0.880  0.00  0.00    +0.270 C 
ATOM      5  C   LIG    1        7.614   2.833  -0.549  0.00  0.00    +0.020 C 
ATOM      6  C   LIG    1        6.952   1.778  -1.439  0.00  0.00    +0.030 C 
ATOM      7  C   LIG    1        5.439   2.008  -1.465  0.00  0.00    +0.030 C 
ATOM      8  C   LIG    1        4.880   1.864  -0.046  0.00  0.00    +0.330 C 
ENDROOT
BRANCH   8   9
ATOM      9  C   LIG    1        3.416   2.223  -0.041  0.00  0.00    +0.120 A 
ATOM     10  N   LIG    1        2.503   1.513   0.507  0.00  0.00    -0.460 NA
ATOM     11  C   LIG    1        1.234   1.957   0.435  0.00  0.00    +0.090 A 
ATOM     12  C   LIG    1        0.050   1.384   0.942  0.00  0.00    +0.060 A 
ATOM     13  C   LIG    1       -1.150   2.000   0.753  0.00  0.00    +0.020 A 
ATOM     14  C   LIG    1       -1.230   3.204   0.068  0.00  0.00    +0.030 A 
ATOM     15  C   LIG    1       -0.090   3.786  -0.439  0.00  0.00    +0.060 A 
ATOM     16  C   LIG    1        1.145   3.168  -0.260  0.00  0.00    -0.170 A 
ATOM     17  S   LIG    1        2.769   3.626  -0.765  0.00  0.00    +0.120 S 
ENDBRANCH   8   9
BRANCH   2  18
ATOM     18  C   LIG    1        5.718   4.665   2.436  0.00  0.00    +0.340 C 
BRANCH  18  19
ATOM     19  N   LIG    1        4.778   5.503   3.184  0.00  0.00    -0.450 N 
ATOM     20  C   LIG    1        4.293   5.257   4.453  0.00  0.00    +0.080 A 
ATOM     21  C   LIG    1        4.487   4.245   5.383  0.00  0.00    +0.010 A 
ATOM     22  C   LIG    1        3.832   4.296   6.595  0.00  0.00    +0.060 A 
ATOM     23  C   LIG    1        2.981   5.351   6.890  0.00  0.00    +0.010 A 
ATOM     24  C   LIG    1        2.777   6.356   5.987  0.00  0.00    +0.090 A 
ATOM     25  C   LIG    1        3.430   6.325   4.752  0.00  0.00    +0.040 A 
ATOM     26  N   LIG    1        3.435   7.151   3.674  0.00  0.00    -0.420 NA
ATOM     27  C   LIG    1        4.228   6.673   2.760  0.00  0.00    +0.190 A 
BRANCH  27  28
ATOM     28  C   LIG    1        4.494   7.318   1.425  0.00  0.00    +0.560 C 
ATOM     29  F   LIG    1        3.810   6.619   0.424  0.00  0.00    -0.150 F 
ATOM     30  F   LIG    1        5.867   7.290   1.158  0.00  0.00    -0.170 F 
ATOM     31  F   LIG    1        4.051   8.645   1.452  0.00  0.00    -0.140 F 
ENDBRANCH  27  28
ENDBRANCH  18  19
ENDBRANCH   2  18
TORSDOF 4
