REMARK  Name = ZINCrD0000073P5F.0
REMARK                            x       y       z     vdW  Elec       q    Type
REMARK                         _______ _______ _______ _____ _____    ______ ____
ROOT
ATOM      1  C   LIG    1       -0.009   1.209   0.028  0.00  0.00    +0.550 C 
ATOM      2  O   LIG    1        0.010  -0.008   0.028  0.00  0.00    -0.500 OA
ENDROOT
BRANCH   1   6
ATOM      3  C   LIG    1       -2.780   3.488   0.057  0.00  0.00    +0.240 A 
ATOM      4  N   LIG    1       -3.398   2.323   0.064  0.00  0.00    -0.490 NA
ATOM      5  C   LIG    1       -2.507   1.335   0.055  0.00  0.00    +0.320 A 
ATOM      6  C   LIG    1       -1.248   1.897   0.041  0.00  0.00    -0.090 A 
ATOM      7  N   LIG    1       -1.437   3.276   0.049  0.00  0.00    -0.370 N 
BRANCH   7   8
ATOM      8  C   LIG    1       -0.436   4.257   0.045  0.00  0.00    +0.100 A 
ATOM      9  C   LIG    1        0.421   4.381   1.131  0.00  0.00    +0.040 A 
ATOM     10  C   LIG    1        1.409   5.346   1.122  0.00  0.00    +0.030 A 
ATOM     11  C   LIG    1        1.539   6.195   0.038  0.00  0.00    +0.040 A 
ATOM     12  C   LIG    1        0.683   6.078  -1.042  0.00  0.00    +0.030 A 
ATOM     13  C   LIG    1       -0.304   5.112  -1.041  0.00  0.00    +0.040 A 
ENDBRANCH   7   8
BRANCH   3  15
ATOM     14  C   LIG    1       -5.303   4.548   0.083  0.00  0.00    +0.150 C 
ATOM     15  S   LIG    1       -3.568   5.064   0.064  0.00  0.00    +0.010 S 
ENDBRANCH   3  15
ENDBRANCH   1   6
BRANCH   1  16
ATOM     16  O   LIG    1        1.148   1.902   0.011  0.00  0.00    -0.320 OA
BRANCH  16  17
ATOM     17  C   LIG    1        2.359   1.143  -0.008  0.00  0.00    +0.180 C 
ATOM     18  C   LIG    1        2.813   0.873   1.428  0.00  0.00    +0.060 C 
BRANCH  17  19
ATOM     19  C   LIG    1        3.427   1.919  -0.735  0.00  0.00    +0.520 C 
ATOM     20  N   LIG    1        4.593   1.323  -1.056  0.00  0.00    -0.610 N 
ATOM     21  C   LIG    1        4.795  -0.110  -0.804  0.00  0.00    +0.270 C 
ATOM     22  C   LIG    1        6.071  -0.297   0.014  0.00  0.00    +0.020 C 
ATOM     23  C   LIG    1        7.238   0.386  -0.702  0.00  0.00    -0.020 C 
ATOM     24  C   LIG    1        6.956   1.885  -0.825  0.00  0.00    +0.020 C 
ATOM     25  C   LIG    1        8.523   0.174   0.100  0.00  0.00    +0.020 C 
ATOM     26  C   LIG    1        5.688   2.096  -1.658  0.00  0.00    +0.270 C 
ATOM     27  O   LIG    1        3.238   3.080  -1.031  0.00  0.00    -0.510 OA
ENDBRANCH  17  19
ENDBRANCH  16  17
ENDBRANCH   1  16
TORSDOF 6
