REMARK  Name = ZINCqH0000007hpQ.0
REMARK                            x       y       z     vdW  Elec       q    Type
REMARK                         _______ _______ _______ _____ _____    ______ ____
ROOT
ATOM      1  N   LIG    1       -0.017   1.397   0.010  0.00  0.00    -0.560 N 
ATOM      2  C   LIG    1        1.076   2.191   0.004  0.00  0.00    +0.510 C 
ATOM      3  C   LIG    1        0.617   3.624   0.037  0.00  0.00    +0.070 C 
ATOM      4  N   LIG    1       -0.797   3.580   0.453  0.00  0.00    -0.630 NA
ATOM      5  H   LIG    1       -0.883   3.687   1.453  0.00  0.00    +0.370 HD
ATOM      6  C   LIG    1        0.754   4.279  -1.345  0.00  0.00    +0.050 C 
ATOM      7  C   LIG    1        1.144   5.745  -1.028  0.00  0.00    +0.030 C 
ATOM      8  C   LIG    1        2.081   5.596   0.197  0.00  0.00    +0.020 C 
ATOM      9  C   LIG    1        1.450   4.452   1.020  0.00  0.00    +0.050 C 
ATOM     10  O   LIG    1        2.229   1.814  -0.023  0.00  0.00    -0.490 OA
ATOM     11  C   LIG    1       -1.228   2.228   0.019  0.00  0.00    +0.490 C 
ENDROOT
BRANCH   1  15
ATOM     12  C   LIG    1        0.034  -2.776  -0.013  0.00  0.00    +0.080 A 
ATOM     13  C   LIG    1       -1.174  -2.096   0.002  0.00  0.00    +0.000 A 
ATOM     14  C   LIG    1       -1.190  -0.714   0.015  0.00  0.00    -0.010 A 
ATOM     15  C   LIG    1        0.002  -0.004   0.002  0.00  0.00    +0.180 A 
ATOM     16  C   LIG    1        1.214  -0.682  -0.013  0.00  0.00    -0.050 A 
ATOM     17  C   LIG    1        1.231  -2.066  -0.020  0.00  0.00    +0.130 A 
BRANCH  12  19
ATOM     18  C   LIG    1       -1.217  -4.799  -0.013  0.00  0.00    +0.230 C 
ATOM     19  O   LIG    1        0.049  -4.136  -0.021  0.00  0.00    -0.310 OA
ENDBRANCH  12  19
BRANCH  17  20
ATOM     20  O   LIG    1        2.417  -2.732  -0.035  0.00  0.00    -0.300 OA
ATOM     21  C   LIG    1        3.606  -1.940  -0.042  0.00  0.00    +0.250 C 
ENDBRANCH  17  20
ENDBRANCH   1  15
BRANCH  11  22
ATOM     22  C   LIG    1       -1.825   2.289  -1.363  0.00  0.00    +0.030 A 
ATOM     23  N   LIG    1       -1.734   1.355  -2.249  0.00  0.00    -0.440 NA
ATOM     24  C   LIG    1       -2.320   1.569  -3.410  0.00  0.00    +0.120 A 
ATOM     25  C   LIG    1       -2.931   2.754  -3.512  0.00  0.00    -0.070 A 
ATOM     26 CL   LIG    1       -2.292   0.412  -4.704  0.00  0.00    -0.000 Cl
ATOM     27  S   LIG    1       -2.716   3.608  -1.986  0.00  0.00    +0.240 S 
ENDBRANCH  11  22
TORSDOF 4
