REMARK  Name = ZINCrH000004j6Wt.1
REMARK                            x       y       z     vdW  Elec       q    Type
REMARK                         _______ _______ _______ _____ _____    ______ ____
ROOT
ATOM      1  C   LIG    1       -0.133   1.834   2.423  0.00  0.00    -0.310 A 
ATOM      2  C   LIG    1       -0.710   1.563   1.235  0.00  0.00    +0.200 A 
ATOM      3  N   LIG    1       -2.049   1.817   1.337  0.00  0.00    -0.490 N 
ATOM      4  H   LIG    1       -2.704   1.711   0.630  0.00  0.00    +0.440 HD
ATOM      5  N   LIG    1       -2.312   2.254   2.642  0.00  0.00    -0.360 N 
ATOM      6  C   LIG    1        0.002   1.071   0.002  0.00  0.00    +0.170 C 
ATOM      7  C   LIG    1       -1.142   2.270   3.313  0.00  0.00    +0.540 A 
ATOM      8  O   LIG    1       -0.984   2.600   4.475  0.00  0.00    -0.520 OA
ENDROOT
BRANCH   5   9
ATOM      9  C   LIG    1       -3.563   2.614   3.156  0.00  0.00    +0.160 A 
ATOM     10  C   LIG    1       -3.680   3.031   4.475  0.00  0.00    +0.060 A 
ATOM     11  C   LIG    1       -4.914   3.392   4.979  0.00  0.00    +0.030 A 
ATOM     12  C   LIG    1       -6.038   3.327   4.171  0.00  0.00    +0.080 A 
ATOM     13  C   LIG    1       -5.925   2.905   2.857  0.00  0.00    +0.020 A 
ATOM     14  F   LIG    1       -7.245   3.674   4.667  0.00  0.00    -0.140 F 
ATOM     15  C   LIG    1       -4.691   2.550   2.348  0.00  0.00    +0.000 A 
ENDBRANCH   5   9
BRANCH   1  16
ATOM     16  C   LIG    1        1.333   1.696   2.747  0.00  0.00    +0.150 C 
BRANCH  16  17
ATOM     17  C   LIG    1        2.026   3.046   2.558  0.00  0.00    +0.060 C 
BRANCH  17  20
ATOM     18  N   LIG    1        4.307   3.977   2.784  0.00  0.00    -0.680 N 
ATOM     19  H   LIG    1        3.966   4.818   2.442  0.00  0.00    +0.410 HD
ATOM     20  C   LIG    1        3.492   2.908   2.881  0.00  0.00    +0.510 C 
ATOM     21  O   LIG    1        3.937   1.835   3.229  0.00  0.00    -0.520 OA
BRANCH  18  25
ATOM     22  C   LIG    1        8.294   3.668   3.952  0.00  0.00    -0.100 A 
ATOM     23  C   LIG    1        7.663   2.590   3.360  0.00  0.00    +0.020 A 
ATOM     24  C   LIG    1        6.342   2.689   2.972  0.00  0.00    +0.020 A 
ATOM     25  C   LIG    1        5.646   3.873   3.176  0.00  0.00    +0.140 A 
ATOM     26  C   LIG    1        6.284   4.956   3.766  0.00  0.00    -0.020 A 
ATOM     27  C   LIG    1        7.604   4.849   4.157  0.00  0.00    +0.020 A 
BRANCH  22  29
ATOM     28  C   LIG    1       10.641   3.989   3.219  0.00  0.00    +0.030 C 
ATOM     29  C   LIG    1        9.736   3.557   4.375  0.00  0.00    +0.050 C 
ENDBRANCH  22  29
ENDBRANCH  18  25
ENDBRANCH  17  20
ENDBRANCH  16  17
ENDBRANCH   1  16
TORSDOF 6
