REMARK  Name = ZINCtV00000L6k8s.0
REMARK                            x       y       z     vdW  Elec       q    Type
REMARK                         _______ _______ _______ _____ _____    ______ ____
ROOT
ATOM      1  N   LIG    1        0.050   5.807   0.263  0.00  0.00    -0.480 N 
ATOM      2  C   LIG    1       -0.316   4.476   0.384  0.00  0.00    +0.180 A 
ATOM      3  C   LIG    1        0.845   3.707   0.554  0.00  0.00    -0.100 A 
ATOM      4  C   LIG    1        1.980   4.649   0.532  0.00  0.00    +0.110 A 
ATOM      5  N   LIG    1        3.285   4.490   0.645  0.00  0.00    -0.390 NA
ATOM      6  C   LIG    1        4.088   5.556   0.585  0.00  0.00    +0.060 A 
ATOM      7  C   LIG    1        5.484   5.415   0.703  0.00  0.00    +0.070 A 
ATOM      8  C   LIG    1        6.280   6.516   0.639  0.00  0.00    +0.030 A 
ATOM      9  C   LIG    1        5.735   7.787   0.458  0.00  0.00    +0.050 A 
ATOM     10  C   LIG    1        4.391   7.962   0.341  0.00  0.00    +0.040 A 
ATOM     11  C   LIG    1        3.533   6.848   0.401  0.00  0.00    +0.130 A 
ATOM     12  N   LIG    1        2.210   6.997   0.288  0.00  0.00    -0.440 NA
ATOM     13  C   LIG    1        0.752   2.325   0.701  0.00  0.00    +0.110 A 
ATOM     14  C   LIG    1       -0.485   1.715   0.678  0.00  0.00    -0.070 A 
ATOM     15  C   LIG    1       -1.633   2.474   0.505  0.00  0.00    +0.090 A 
ATOM     16 CL   LIG    1       -0.605  -0.007   0.861  0.00  0.00    -0.060 Cl
ATOM     17  C   LIG    1       -1.554   3.843   0.364  0.00  0.00    +0.010 A 
ATOM     18  C   LIG    1        1.421   5.940   0.348  0.00  0.00    +0.330 A 
ENDROOT
BRANCH   1  19
ATOM     19  C   LIG    1       -0.886   6.917   0.072  0.00  0.00    +0.380 C 
BRANCH  19  25
ATOM     20  C   LIG    1       -0.751   8.306   2.156  0.00  0.00    +0.160 A 
ATOM     21  C   LIG    1       -1.253   8.704   3.387  0.00  0.00    -0.090 A 
ATOM     22  C   LIG    1       -2.425   8.152   3.865  0.00  0.00    +0.060 A 
ATOM     23  C   LIG    1       -3.098   7.202   3.119  0.00  0.00    -0.030 A 
ATOM     24  C   LIG    1       -2.603   6.808   1.889  0.00  0.00    +0.070 A 
ATOM     25  C   LIG    1       -1.429   7.353   1.409  0.00  0.00    -0.160 A 
BRANCH  20  26
ATOM     26  O   LIG    1        0.402   8.847   1.684  0.00  0.00    -0.290 OA
BRANCH  26  28
ATOM     27  C   LIG    1        2.584   9.764   2.172  0.00  0.00    +0.060 C 
ATOM     28  C   LIG    1        1.103   9.741   2.552  0.00  0.00    +0.150 C 
ATOM     29  C   LIG    1        0.519  11.148   2.414  0.00  0.00    +0.020 C 
ENDBRANCH  26  28
ENDBRANCH  20  26
ENDBRANCH  19  25
ENDBRANCH   1  19
TORSDOF 4
