REMARK  Name = ZINCpe00000gLJZH.0
REMARK                            x       y       z     vdW  Elec       q    Type
REMARK                         _______ _______ _______ _____ _____    ______ ____
ROOT
ATOM      1  C   LIG    1       -1.133   3.856   4.303  0.00  0.00    +0.420 C 
ENDROOT
BRANCH   1   2
ATOM      2  C   LIG    1       -2.298   4.811   4.322  0.00  0.00    +0.190 A 
ATOM      3  C   LIG    1       -3.446   4.486   5.019  0.00  0.00    -0.160 A 
ATOM      4  C   LIG    1       -4.513   5.390   5.027  0.00  0.00    +0.520 A 
ATOM      5  N   LIG    1       -4.395   6.550   4.346  0.00  0.00    -0.450 N 
ATOM      6  C   LIG    1       -5.431   7.437   4.344  0.00  0.00    +0.330 A 
ATOM      7  C   LIG    1       -5.345   8.604   3.675  0.00  0.00    -0.050 A 
ATOM      8  C   LIG    1       -4.170   8.924   2.962  0.00  0.00    +0.300 A 
ATOM      9  C   LIG    1       -3.115   8.028   2.961  0.00  0.00    -0.100 A 
ATOM     10  C   LIG    1       -3.238   6.825   3.667  0.00  0.00    +0.430 A 
ATOM     11  O   LIG    1       -5.539   5.131   5.637  0.00  0.00    -0.530 OA
ATOM     12  N   LIG    1       -2.223   5.959   3.668  0.00  0.00    -0.560 NA
BRANCH   8  13
ATOM     13  N   LIG    1       -4.074  10.120   2.272  0.00  0.00    -0.840 N 
ATOM     14  H   LIG    1       -4.817  10.744   2.276  0.00  0.00    +0.410 HD
ATOM     15  H   LIG    1       -3.264  10.335   1.783  0.00  0.00    +0.410 HD
ENDBRANCH   8  13
ENDBRANCH   1   2
BRANCH   1  18
ATOM     16  C   LIG    1       -0.724   2.012   1.250  0.00  0.00    -0.010 A 
ATOM     17  C   LIG    1       -0.234   2.866   2.179  0.00  0.00    +0.150 A 
ATOM     18  N   LIG    1       -1.209   3.017   3.104  0.00  0.00    -0.290 N 
ATOM     19  N   LIG    1       -2.213   2.292   2.754  0.00  0.00    -0.080 NA
ATOM     20  N   LIG    1       -1.956   1.680   1.653  0.00  0.00    -0.260 NA
BRANCH  16  21
ATOM     21  C   LIG    1       -0.019   1.526   0.010  0.00  0.00    +0.100 C 
BRANCH  21  22
ATOM     22  C   LIG    1        0.002  -0.004   0.002  0.00  0.00    +0.230 C 
BRANCH  22  24
ATOM     23  C   LIG    1        2.035   0.032  -1.450  0.00  0.00    +0.030 C 
ATOM     24  C   LIG    1        0.606  -0.499  -1.314  0.00  0.00    -0.100 C 
ATOM     25  C   LIG    1       -0.239   0.006  -2.485  0.00  0.00    +0.030 C 
ATOM     26  C   LIG    1        0.627  -2.029  -1.322  0.00  0.00    +0.030 C 
ENDBRANCH  22  24
BRANCH  22  27
ATOM     27  O   LIG    1        0.792  -0.476   1.096  0.00  0.00    -0.550 OA
ATOM     28  H   LIG    1        1.711  -0.178   1.074  0.00  0.00    +0.370 HD
ENDBRANCH  22  27
ENDBRANCH  21  22
ENDBRANCH  16  21
ENDBRANCH   1  18
TORSDOF 7
