REMARK  Name = ZINCvU00000004p7.0
REMARK                            x       y       z     vdW  Elec       q    Type
REMARK                         _______ _______ _______ _____ _____    ______ ____
ROOT
ATOM      1  C   LIG    1       -1.977   7.621  -0.471  0.00  0.00    +0.200 C 
ENDROOT
BRANCH   1   2
ATOM      2  C   LIG    1       -0.754   8.336   0.044  0.00  0.00    -0.110 A 
ATOM      3  C   LIG    1       -0.259   8.043   1.301  0.00  0.00    +0.040 A 
ATOM      4  C   LIG    1        0.865   8.695   1.771  0.00  0.00    +0.010 A 
ATOM      5  C   LIG    1        1.489   9.649   0.988  0.00  0.00    +0.020 A 
ATOM      6  C   LIG    1        0.991   9.946  -0.267  0.00  0.00    +0.010 A 
ATOM      7  C   LIG    1       -0.130   9.290  -0.739  0.00  0.00    +0.020 A 
ENDBRANCH   1   2
BRANCH   1   8
ATOM      8  C   LIG    1       -3.215   8.321   0.028  0.00  0.00    +0.440 C 
ATOM      9  O   LIG    1       -3.819   7.878   0.983  0.00  0.00    -0.440 OA
BRANCH   8  10
ATOM     10  C   LIG    1       -3.674   9.496  -0.618  0.00  0.00    -0.270 A 
ATOM     11  C   LIG    1       -3.099  10.122  -1.703  0.00  0.00    +0.320 A 
ATOM     12  N   LIG    1       -3.823  11.208  -2.035  0.00  0.00    -0.560 N 
ATOM     13  H   LIG    1       -3.615  11.807  -2.769  0.00  0.00    +0.420 HD
ATOM     14  C   LIG    1       -4.899  11.356  -1.183  0.00  0.00    +0.080 A 
ATOM     15  C   LIG    1       -5.922  12.295  -1.099  0.00  0.00    +0.000 A 
ATOM     16  C   LIG    1       -6.881  12.181  -0.117  0.00  0.00    +0.030 A 
ATOM     17  C   LIG    1       -6.840  11.136   0.794  0.00  0.00    +0.000 A 
ATOM     18  C   LIG    1       -5.835  10.195   0.727  0.00  0.00    +0.060 A 
ATOM     19  C   LIG    1       -4.860  10.299  -0.260  0.00  0.00    -0.050 A 
ENDBRANCH   8  10
ENDBRANCH   1   8
BRANCH   1  20
ATOM     20  O   LIG    1       -1.971   6.249   0.005  0.00  0.00    -0.320 OA
BRANCH  20  22
ATOM     21  O   LIG    1       -0.851   5.676  -1.811  0.00  0.00    -0.500 OA
ATOM     22  C   LIG    1       -1.362   5.338  -0.770  0.00  0.00    +0.460 C 
BRANCH  22  23
ATOM     23  C   LIG    1       -1.316   3.880  -0.337  0.00  0.00    +0.050 C 
ATOM     24  C   LIG    1       -2.745   3.417  -0.111  0.00  0.00    +0.070 C 
ATOM     25  C   LIG    1       -2.873   1.903   0.036  0.00  0.00    -0.030 C 
ATOM     26  C   LIG    1       -2.189   1.414   1.310  0.00  0.00    +0.040 C 
ATOM     27  C   LIG    1       -0.680   1.573   1.284  0.00  0.00    +0.010 C 
ATOM     28  C   LIG    1       -0.013   1.094   0.008  0.00  0.00    +0.040 C 
ATOM     29  C   LIG    1       -0.705   1.589  -1.259  0.00  0.00    -0.030 C 
ATOM     30  C   LIG    1       -2.182   1.255  -1.150  0.00  0.00    +0.370 C 
ATOM     31  O   LIG    1       -2.754   0.541  -1.933  0.00  0.00    -0.440 OA
ATOM     32  C   LIG    1       -0.570   3.101  -1.407  0.00  0.00    +0.070 C 
ENDBRANCH  22  23
ENDBRANCH  20  22
ENDBRANCH   1  20
TORSDOF 6
