REMARK  Name = ZINCrH000004uOm2.0
REMARK                            x       y       z     vdW  Elec       q    Type
REMARK                         _______ _______ _______ _____ _____    ______ ____
ROOT
ATOM      1  O   LIG    1        1.029   3.936  -1.883  0.00  0.00    -0.590 OA
ATOM      2  C   LIG    1        1.190   4.350  -0.751  0.00  0.00    +0.700 C 
ATOM      3  N   LIG    1        1.170   5.676  -0.510  0.00  0.00    -0.730 N 
ATOM      4  H   LIG    1        1.299   6.007   0.393  0.00  0.00    +0.410 HD
ATOM      5  N   LIG    1        1.389   3.484   0.262  0.00  0.00    -0.740 N 
ATOM      6  H   LIG    1        1.518   3.815   1.165  0.00  0.00    +0.400 HD
ENDROOT
BRANCH   3   7
ATOM      7  C   LIG    1        0.954   6.618  -1.611  0.00  0.00    +0.320 C 
ATOM      8  C   LIG    1        2.272   6.975  -2.264  0.00  0.00    -0.110 A 
ATOM      9  C   LIG    1        3.341   6.172  -2.626  0.00  0.00    +0.040 A 
ATOM     10  C   LIG    1        4.459   6.728  -3.218  0.00  0.00    +0.000 A 
ATOM     11  C   LIG    1        4.512   8.090  -3.449  0.00  0.00    +0.010 A 
ATOM     12  C   LIG    1        3.447   8.892  -3.088  0.00  0.00    +0.010 A 
ATOM     13  C   LIG    1        2.325   8.337  -2.495  0.00  0.00    -0.090 A 
ATOM     14  C   LIG    1        1.046   8.988  -2.014  0.00  0.00    +0.070 C 
ATOM     15  C   LIG    1        0.393   7.951  -1.074  0.00  0.00    +0.180 C 
BRANCH  15  16
ATOM     16  O   LIG    1        0.800   8.165   0.279  0.00  0.00    -0.560 OA
ATOM     17  H   LIG    1        0.473   8.990   0.663  0.00  0.00    +0.390 HD
ENDBRANCH  15  16
ENDBRANCH   3   7
BRANCH   5  18
ATOM     18  C   LIG    1        1.411   2.043  -0.000  0.00  0.00    +0.260 C 
ATOM     19  C   LIG    1       -0.018   1.497   0.010  0.00  0.00    +0.060 C 
ATOM     20  C   LIG    1        0.002  -0.004   0.002  0.00  0.00    -0.020 C 
ATOM     21  C   LIG    1        1.055  -0.722   0.309  0.00  0.00    -0.090 C 
ATOM     22  C   LIG    1        2.381  -0.137   0.700  0.00  0.00    +0.090 C 
ATOM     23  C   LIG    1        2.212   1.331   1.097  0.00  0.00    +0.020 C 
BRANCH  21  24
ATOM     24  C   LIG    1        0.930  -2.194   0.267  0.00  0.00    -0.060 A 
ATOM     25  C   LIG    1        1.056  -2.941   1.439  0.00  0.00    +0.050 A 
ATOM     26  C   LIG    1        0.933  -4.314   1.396  0.00  0.00    -0.010 A 
ATOM     27  C   LIG    1        0.696  -4.953   0.189  0.00  0.00    +0.100 A 
ATOM     28  C   LIG    1        0.576  -4.216  -0.979  0.00  0.00    -0.010 A 
ATOM     29  F   LIG    1        0.582  -6.298   0.151  0.00  0.00    -0.140 F 
ATOM     30  C   LIG    1        0.692  -2.842  -0.945  0.00  0.00    +0.050 A 
ENDBRANCH  21  24
ENDBRANCH   5  18
TORSDOF 4
