REMARK  Name = ZINCpk00000xI1R2.1
REMARK                            x       y       z     vdW  Elec       q    Type
REMARK                         _______ _______ _______ _____ _____    ______ ____
ROOT
ATOM      1  S   LIG    1       -2.928   4.638   0.698  0.00  0.00    +2.670 S 
ATOM      2  O   LIG    1       -4.301   4.277   0.656  0.00  0.00    -0.950 OA
ATOM      3  O   LIG    1       -2.300   5.426  -0.304  0.00  0.00    -0.970 OA
ENDROOT
BRANCH   1   4
ATOM      4  N   LIG    1       -2.696   5.434   2.131  0.00  0.00    -1.010 NA
ATOM      5  C   LIG    1       -3.068   4.813   3.414  0.00  0.00    +0.290 C 
ATOM      6  C   LIG    1       -3.914   5.805   4.211  0.00  0.00    +0.230 C 
ATOM      7  O   LIG    1       -3.234   7.061   4.282  0.00  0.00    -0.350 OA
ATOM      8  C   LIG    1       -3.029   7.683   3.008  0.00  0.00    +0.220 C 
ATOM      9  C   LIG    1       -4.384   7.828   2.309  0.00  0.00    +0.040 C 
ATOM     10  C   LIG    1       -4.173   8.360   0.891  0.00  0.00    +0.260 C 
ATOM     11  N   LIG    1       -3.341   7.417   0.134  0.00  0.00    -0.370 N 
ATOM     12  C   LIG    1       -2.009   7.336   0.745  0.00  0.00    +0.300 C 
ATOM     13  C   LIG    1       -3.214   7.880  -1.255  0.00  0.00    +0.340 C 
ATOM     14  H   LIG    1       -3.772   6.504   0.145  0.00  0.00    +0.380 HD
ATOM     15  C   LIG    1       -2.118   6.785   2.164  0.00  0.00    +0.240 C 
ENDBRANCH   1   4
BRANCH   1  23
ATOM     16  C   LIG    1        0.087   4.477   0.816  0.00  0.00    +0.130 C 
ATOM     17  C   LIG    1       -0.642   3.158   0.836  0.00  0.00    +0.060 A 
ATOM     18  C   LIG    1        0.076   1.962   0.906  0.00  0.00    -0.140 A 
ATOM     19  C   LIG    1       -0.608   0.744   0.924  0.00  0.00    +0.150 A 
ATOM     20  C   LIG    1       -1.987   0.730   0.873  0.00  0.00    -0.070 A 
ATOM     21  C   LIG    1       -2.692   1.920   0.799  0.00  0.00    +0.130 A 
ATOM     22 CL   LIG    1       -2.839  -0.782   0.895  0.00  0.00    -0.060 Cl
ATOM     23  C   LIG    1       -2.020   3.130   0.786  0.00  0.00    -0.680 A 
BRANCH  18  24
ATOM     24  C   LIG    1        1.551   1.985   0.959  0.00  0.00    +0.520 C 
ATOM     25  O   LIG    1        2.151   3.042   0.822  0.00  0.00    -0.670 OA
ATOM     26  O   LIG    1        2.172   0.948   1.140  0.00  0.00    -0.670 OA
ENDBRANCH  18  24
ENDBRANCH   1  23
TORSDOF 3
