REMARK  Name = ZINCpk00000xI1R2.2
REMARK                            x       y       z     vdW  Elec       q    Type
REMARK                         _______ _______ _______ _____ _____    ______ ____
ROOT
ATOM      1  S   LIG    1        0.019  -1.936   2.601  0.00  0.00    +2.700 S 
ATOM      2  O   LIG    1       -1.389  -2.107   2.684  0.00  0.00    -0.930 OA
ATOM      3  O   LIG    1        0.851  -1.783   3.743  0.00  0.00    -0.950 OA
ENDROOT
BRANCH   1   4
ATOM      4  N   LIG    1        0.273  -0.601   1.655  0.00  0.00    -0.990 NA
ATOM      5  C   LIG    1       -0.741  -0.153   0.687  0.00  0.00    +0.280 C 
ATOM      6  C   LIG    1       -0.997   1.342   0.909  0.00  0.00    +0.240 C 
ATOM      7  O   LIG    1        0.249   2.043   0.896  0.00  0.00    -0.370 OA
ATOM      8  C   LIG    1        1.149   1.651   1.933  0.00  0.00    +0.160 C 
ATOM      9  C   LIG    1        2.412   2.510   1.881  0.00  0.00    +0.110 C 
ATOM     10  C   LIG    1        3.158   2.246   0.572  0.00  0.00    +0.260 C 
ATOM     11  N   LIG    1        3.525   0.826   0.498  0.00  0.00    -0.380 N 
ATOM     12  C   LIG    1        2.311   0.003   0.456  0.00  0.00    +0.250 C 
ATOM     13  C   LIG    1        4.319   0.589  -0.715  0.00  0.00    +0.330 C 
ATOM     14  H   LIG    1        4.070   0.578   1.310  0.00  0.00    +0.420 HD
ATOM     15  C   LIG    1        1.521   0.176   1.755  0.00  0.00    +0.240 C 
ENDBRANCH   1   4
BRANCH   1  23
ATOM     16  C   LIG    1       -1.139  -2.944  -0.001  0.00  0.00    +0.110 C 
ATOM     17  C   LIG    1        0.041  -3.713   0.534  0.00  0.00    +0.060 A 
ATOM     18  C   LIG    1        0.536  -4.814  -0.169  0.00  0.00    -0.140 A 
ATOM     19  C   LIG    1        1.627  -5.525   0.338  0.00  0.00    +0.140 A 
ATOM     20  C   LIG    1        2.212  -5.132   1.524  0.00  0.00    -0.070 A 
ATOM     21  C   LIG    1        1.718  -4.036   2.213  0.00  0.00    +0.120 A 
ATOM     22 CL   LIG    1        3.567  -6.013   2.156  0.00  0.00    -0.070 Cl
ATOM     23  C   LIG    1        0.638  -3.328   1.717  0.00  0.00    -0.700 A 
BRANCH  18  24
ATOM     24  C   LIG    1       -0.094  -5.228  -1.437  0.00  0.00    +0.520 C 
ATOM     25  O   LIG    1       -0.968  -4.536  -1.940  0.00  0.00    -0.670 OA
ATOM     26  O   LIG    1        0.258  -6.263  -1.986  0.00  0.00    -0.670 OA
ENDBRANCH  18  24
ENDBRANCH   1  23
TORSDOF 3
