REMARK  Name = ZINCpe00000RhBTu.0
REMARK                            x       y       z     vdW  Elec       q    Type
REMARK                         _______ _______ _______ _____ _____    ______ ____
ROOT
ATOM      1  N   LIG    1        4.780   0.264  -0.756  0.00  0.00    -0.730 N 
ATOM      2  H   LIG    1        4.728   1.218  -0.589  0.00  0.00    +0.400 HD
ATOM      3  C   LIG    1        3.665  -0.491  -0.708  0.00  0.00    +0.560 C 
ATOM      4  O   LIG    1        3.730  -1.686  -0.918  0.00  0.00    -0.520 OA
ENDROOT
BRANCH   3   5
ATOM      5  C   LIG    1        2.361   0.136  -0.400  0.00  0.00    -0.150 A 
ATOM      6  C   LIG    1        2.274   1.507  -0.157  0.00  0.00    +0.250 A 
ATOM      7  N   LIG    1        1.115   2.068   0.117  0.00  0.00    -0.450 NA
ATOM      8  C   LIG    1       -0.003   1.370   0.175  0.00  0.00    +0.270 A 
ATOM      9  C   LIG    1       -0.002   0.000  -0.053  0.00  0.00    +0.080 A 
ATOM     10  C   LIG    1        1.196  -0.637  -0.347  0.00  0.00    +0.040 A 
BRANCH   9  11
ATOM     11  O   LIG    1       -1.161  -0.708   0.010  0.00  0.00    -0.290 OA
BRANCH  11  12
ATOM     12  C   LIG    1       -1.060  -2.128  -0.110  0.00  0.00    +0.150 C 
ATOM     13  C   LIG    1       -1.513  -2.665  -1.478  0.00  0.00    +0.010 C 
ATOM     14  C   LIG    1       -2.170  -3.828  -0.716  0.00  0.00    +0.030 C 
ATOM     15  C   LIG    1       -2.256  -2.884   0.494  0.00  0.00    +0.050 C 
ENDBRANCH  11  12
ENDBRANCH   9  11
ENDBRANCH   3   5
BRANCH   1  16
ATOM     16  C   LIG    1        6.072  -0.357  -1.062  0.00  0.00    +0.290 C 
BRANCH  16  17
ATOM     17  C   LIG    1        7.166   0.712  -1.054  0.00  0.00    +0.050 C 
BRANCH  17  20
ATOM     18  N   LIG    1        9.610   0.828  -1.417  0.00  0.00    -0.730 N 
ATOM     19  H   LIG    1        9.558   1.782  -1.249  0.00  0.00    +0.400 HD
ATOM     20  C   LIG    1        8.495   0.074  -1.368  0.00  0.00    +0.520 C 
ATOM     21  O   LIG    1        8.559  -1.119  -1.578  0.00  0.00    -0.530 OA
BRANCH  18  22
ATOM     22  C   LIG    1       10.902   0.207  -1.722  0.00  0.00    +0.290 C 
BRANCH  22  23
ATOM     23  C   LIG    1       11.996   1.276  -1.715  0.00  0.00    +0.110 C 
BRANCH  23  24
ATOM     24  C   LIG    1       13.324   0.638  -2.029  0.00  0.00    +0.460 C 
ATOM     25  O   LIG    1       13.389  -0.550  -2.238  0.00  0.00    -0.500 OA
BRANCH  24  27
ATOM     26  C   LIG    1       15.680   0.707  -2.385  0.00  0.00    +0.270 C 
ATOM     27  O   LIG    1       14.435   1.389  -2.077  0.00  0.00    -0.360 OA
ENDBRANCH  24  27
ENDBRANCH  23  24
ENDBRANCH  22  23
ENDBRANCH  18  22
ENDBRANCH  17  20
ENDBRANCH  16  17
ENDBRANCH   1  16
TORSDOF 10
