REMARK  Name = ZINCvU0000000AwQ.0
REMARK                            x       y       z     vdW  Elec       q    Type
REMARK                         _______ _______ _______ _____ _____    ______ ____
ROOT
ATOM      1  C   LIG    1        5.482   4.669  -0.018  0.00  0.00    +0.260 C 
ENDROOT
BRANCH   1   2
ATOM      2  C   LIG    1        5.980   4.593  -1.439  0.00  0.00    -0.100 A 
ATOM      3  C   LIG    1        5.283   5.226  -2.450  0.00  0.00    +0.030 A 
ATOM      4  C   LIG    1        5.742   5.161  -3.753  0.00  0.00    +0.000 A 
ATOM      5  C   LIG    1        6.893   4.454  -4.044  0.00  0.00    +0.010 A 
ATOM      6  C   LIG    1        7.588   3.816  -3.034  0.00  0.00    +0.000 A 
ATOM      7  C   LIG    1        7.131   3.885  -1.731  0.00  0.00    +0.010 A 
ENDBRANCH   1   2
BRANCH   1   8
ATOM      8  N   LIG    1        4.021   4.555  -0.007  0.00  0.00    -0.730 N 
ATOM      9  H   LIG    1        3.473   5.355   0.003  0.00  0.00    +0.410 HD
BRANCH   8  17
ATOM     10  C   LIG    1        0.942  -2.794   0.093  0.00  0.00    +0.110 C 
ATOM     11  C   LIG    1        1.894  -1.631  -0.024  0.00  0.00    +0.520 C 
ATOM     12  N   LIG    1        1.421  -0.369  -0.013  0.00  0.00    -0.550 N 
ATOM     13  C   LIG    1        0.002  -0.004   0.001  0.00  0.00    +0.260 C 
ATOM     14  C   LIG    1       -0.019   1.533   0.010  0.00  0.00    +0.090 C 
ATOM     15  C   LIG    1        1.439   1.935   0.000  0.00  0.00    -0.090 A 
ATOM     16  C   LIG    1        2.033   3.182   0.002  0.00  0.00    -0.030 A 
ATOM     17  C   LIG    1        3.417   3.293  -0.009  0.00  0.00    +0.210 A 
ATOM     18  C   LIG    1        4.200   2.146  -0.023  0.00  0.00    -0.050 A 
ATOM     19  C   LIG    1        3.605   0.902  -0.024  0.00  0.00    +0.060 A 
ATOM     20  C   LIG    1        2.214   0.785  -0.013  0.00  0.00    +0.080 A 
ATOM     21  O   LIG    1        3.086  -1.832  -0.128  0.00  0.00    -0.530 OA
ENDBRANCH   8  17
ENDBRANCH   1   8
BRANCH   1  22
ATOM     22  C   LIG    1        5.888   5.988   0.587  0.00  0.00    +0.430 C 
ATOM     23  O   LIG    1        5.063   6.866   0.738  0.00  0.00    -0.460 OA
BRANCH  22  24
ATOM     24  C   LIG    1        7.232   6.203   0.980  0.00  0.00    -0.270 A 
ATOM     25  C   LIG    1        8.279   5.311   0.874  0.00  0.00    +0.320 A 
ATOM     26  N   LIG    1        9.404   5.876   1.352  0.00  0.00    -0.560 N 
ATOM     27  H   LIG    1       10.270   5.440   1.382  0.00  0.00    +0.420 HD
ATOM     28  C   LIG    1        9.156   7.160   1.794  0.00  0.00    +0.070 A 
ATOM     29  C   LIG    1        9.963   8.141   2.361  0.00  0.00    +0.000 A 
ATOM     30  C   LIG    1        9.422   9.359   2.710  0.00  0.00    +0.030 A 
ATOM     31  C   LIG    1        8.076   9.621   2.502  0.00  0.00    +0.000 A 
ATOM     32  C   LIG    1        7.261   8.661   1.941  0.00  0.00    +0.060 A 
ATOM     33  C   LIG    1        7.796   7.429   1.578  0.00  0.00    -0.060 A 
ENDBRANCH  22  24
ENDBRANCH   1  22
TORSDOF 5
