REMARK  Name = ZINCrH000004jggS.0
REMARK                            x       y       z     vdW  Elec       q    Type
REMARK                         _______ _______ _______ _____ _____    ______ ____
ROOT
ATOM      1  C   LIG    1       -0.096   0.146  -1.852  0.00  0.00    +0.230 A 
ATOM      2  N   LIG    1       -0.144   1.265  -1.174  0.00  0.00    -0.450 NA
ATOM      3  C   LIG    1        1.125   1.637  -0.925  0.00  0.00    +0.160 A 
ATOM      4  N   LIG    1        1.923   0.737  -1.458  0.00  0.00    -0.260 NA
ATOM      5  N   LIG    1        1.204  -0.171  -2.022  0.00  0.00    -0.250 N 
ENDROOT
BRANCH   3   6
ATOM      6  C   LIG    1        1.547   2.845  -0.185  0.00  0.00    +0.600 C 
ATOM      7  N   LIG    1        2.857   3.131  -0.053  0.00  0.00    -0.540 N 
ATOM      8  C   LIG    1        3.868   2.069  -0.161  0.00  0.00    +0.290 C 
ATOM      9  C   LIG    1        4.879   2.262   0.971  0.00  0.00    +0.020 C 
ATOM     10  C   LIG    1        5.584   3.606   0.784  0.00  0.00    +0.080 C 
ATOM     11  C   LIG    1        4.576   4.710   0.602  0.00  0.00    -0.100 A 
ATOM     12  C   LIG    1        4.964   6.018   0.846  0.00  0.00    +0.020 A 
ATOM     13  C   LIG    1        4.066   7.055   0.683  0.00  0.00    +0.010 A 
ATOM     14  C   LIG    1        2.771   6.796   0.274  0.00  0.00    -0.010 A 
ATOM     15  C   LIG    1        2.373   5.492   0.029  0.00  0.00    +0.090 A 
ATOM     16  C   LIG    1        3.279   4.445   0.195  0.00  0.00    +0.140 A 
ATOM     17  O   LIG    1        0.712   3.580   0.305  0.00  0.00    -0.450 OA
BRANCH  15  18
ATOM     18  O   LIG    1        1.101   5.234  -0.374  0.00  0.00    -0.470 OA
ATOM     19  H   LIG    1        0.443   5.304   0.332  0.00  0.00    +0.400 HD
ENDBRANCH  15  18
ENDBRANCH   3   6
BRANCH   5  20
ATOM     20  C   LIG    1        1.691  -1.298  -2.698  0.00  0.00    +0.130 A 
ATOM     21  C   LIG    1        1.200  -2.560  -2.389  0.00  0.00    +0.040 A 
ATOM     22  C   LIG    1        1.678  -3.669  -3.061  0.00  0.00    +0.050 A 
ATOM     23  C   LIG    1        2.652  -3.525  -4.032  0.00  0.00    +0.060 A 
ATOM     24  C   LIG    1        3.147  -2.271  -4.338  0.00  0.00    +0.050 A 
ATOM     25  C   LIG    1        2.669  -1.157  -3.674  0.00  0.00    -0.020 A 
ATOM     26 CL   LIG    1        3.292   0.418  -4.059  0.00  0.00    -0.030 Cl
ENDBRANCH   5  20
BRANCH   1  28
ATOM     27  C   LIG    1       -1.736  -0.076  -3.699  0.00  0.00    +0.050 C 
ATOM     28  C   LIG    1       -1.277  -0.643  -2.353  0.00  0.00    +0.150 C 
ENDBRANCH   1  28
TORSDOF 4
