REMARK  Name = ZINCvU00000005sx.0
REMARK                            x       y       z     vdW  Elec       q    Type
REMARK                         _______ _______ _______ _____ _____    ______ ____
ROOT
ATOM      1  C   LIG    1       -0.016   1.344   0.009  0.00  0.00    +0.580 C 
ATOM      2  N   LIG    1        0.002  -0.004   0.002  0.00  0.00    -0.620 N 
ATOM      3  H   LIG    1       -0.831  -0.500   0.007  0.00  0.00    +0.430 HD
ATOM      4  O   LIG    1        1.029   1.966   0.003  0.00  0.00    -0.440 OA
ENDROOT
BRANCH   2   5
ATOM      5  C   LIG    1        1.210  -0.680  -0.013  0.00  0.00    +0.330 A 
ATOM      6  N   LIG    1        2.368  -0.116  -0.027  0.00  0.00    -0.460 NA
ATOM      7  C   LIG    1        3.457  -0.911  -0.037  0.00  0.00    +0.110 A 
ATOM      8  C   LIG    1        4.819  -0.541  -0.049  0.00  0.00    +0.110 A 
ATOM      9  C   LIG    1        5.796  -1.489  -0.063  0.00  0.00    +0.030 A 
ATOM     10  C   LIG    1        5.471  -2.844  -0.067  0.00  0.00    -0.090 A 
ATOM     11  C   LIG    1        4.143  -3.233  -0.056  0.00  0.00    +0.110 A 
ATOM     12  C   LIG    1        3.136  -2.272  -0.041  0.00  0.00    -0.170 A 
ATOM     13  S   LIG    1        1.381  -2.430  -0.024  0.00  0.00    +0.090 S 
BRANCH  10  14
ATOM     14  S   LIG    1        6.748  -4.059  -0.086  0.00  0.00    -0.080 S 
BRANCH  14  15
ATOM     15  C   LIG    1        8.261  -3.059  -0.096  0.00  0.00    +0.430 C 
ATOM     16  F   LIG    1        8.299  -2.257   1.050  0.00  0.00    -0.180 F 
ATOM     17  F   LIG    1        8.276  -2.246  -1.234  0.00  0.00    -0.180 F 
ENDBRANCH  14  15
ENDBRANCH  10  14
ENDBRANCH   2   5
BRANCH   1  20
ATOM     18  N   LIG    1       -3.645   2.036   0.028  0.00  0.00    -0.400 N 
ATOM     19  N   LIG    1       -2.406   1.387   0.016  0.00  0.00    -0.190 NA
ATOM     20  C   LIG    1       -1.296   2.059   0.019  0.00  0.00    +0.080 C 
ATOM     21  C   LIG    1       -1.305   3.565   0.028  0.00  0.00    +0.120 C 
ATOM     22  C   LIG    1       -2.504   4.076  -0.774  0.00  0.00    +0.100 C 
ATOM     23  C   LIG    1       -3.741   3.326  -0.348  0.00  0.00    +0.500 C 
ATOM     24  O   LIG    1       -4.818   3.882  -0.344  0.00  0.00    -0.490 OA
BRANCH  18  30
ATOM     25  C   LIG    1       -8.225   0.520  -0.923  0.00  0.00    +0.090 C 
ATOM     26  C   LIG    1       -7.026   0.590  -0.012  0.00  0.00    -0.080 A 
ATOM     27  C   LIG    1       -7.059  -0.033   1.222  0.00  0.00    +0.020 A 
ATOM     28  C   LIG    1       -5.961   0.028   2.060  0.00  0.00    +0.020 A 
ATOM     29  C   LIG    1       -4.826   0.708   1.665  0.00  0.00    -0.080 A 
ATOM     30  C   LIG    1       -4.792   1.341   0.429  0.00  0.00    +0.150 A 
ATOM     31  C   LIG    1       -3.627   0.769   2.577  0.00  0.00    +0.090 C 
ATOM     32  C   LIG    1       -5.896   1.277  -0.411  0.00  0.00    +0.040 A 
ENDBRANCH  18  30
ENDBRANCH   1  20
TORSDOF 5
