REMARK  Name = ZINCrD0000074MIE.0
REMARK                            x       y       z     vdW  Elec       q    Type
REMARK                         _______ _______ _______ _____ _____    ______ ____
ROOT
ATOM      1  C   LIG    1       -6.839   4.578   0.120  0.00  0.00    +0.540 C 
ATOM      2  N   LIG    1       -7.289   5.848   0.122  0.00  0.00    -0.710 N 
ATOM      3  H   LIG    1       -6.659   6.586   0.114  0.00  0.00    +0.420 HD
ATOM      4  O   LIG    1       -7.627   3.656   0.130  0.00  0.00    -0.520 OA
ENDROOT
BRANCH   1   5
ATOM      5  C   LIG    1       -5.357   4.303   0.106  0.00  0.00    +0.120 C 
BRANCH   5   6
ATOM      6  S   LIG    1       -5.075   2.515   0.107  0.00  0.00    +0.080 S 
BRANCH   6  14
ATOM      7  C   LIG    1        2.464   3.925   0.026  0.00  0.00    +0.100 C 
ATOM      8  C   LIG    1        1.161   3.167   0.042  0.00  0.00    -0.090 A 
ATOM      9  C   LIG    1        1.171   1.781   0.045  0.00  0.00    +0.030 A 
ATOM     10  C   LIG    1       -0.014   1.073   0.059  0.00  0.00    +0.020 A 
ATOM     11  C   LIG    1       -1.222   1.752   0.064  0.00  0.00    +0.050 A 
ATOM     12  N   LIG    1       -2.548   1.351   0.084  0.00  0.00    -0.580 N 
ATOM     13  H   LIG    1       -2.873   0.437   0.089  0.00  0.00    +0.430 HD
ATOM     14  C   LIG    1       -3.313   2.483   0.089  0.00  0.00    +0.250 A 
ATOM     15  N   LIG    1       -2.541   3.542   0.079  0.00  0.00    -0.490 NA
ATOM     16  C   LIG    1       -1.238   3.157   0.066  0.00  0.00    +0.060 A 
ATOM     17  C   LIG    1       -0.030   3.858   0.052  0.00  0.00    +0.060 A 
ENDBRANCH   6  14
ENDBRANCH   5   6
ENDBRANCH   1   5
BRANCH   2  18
ATOM     18  C   LIG    1       -8.729   6.115   0.136  0.00  0.00    +0.320 C 
BRANCH  18  19
ATOM     19  C   LIG    1       -8.964   7.604   0.135  0.00  0.00    +0.510 C 
ATOM     20  N   LIG    1      -10.222   8.088   0.146  0.00  0.00    -0.660 N 
ATOM     21  H   LIG    1      -10.976   7.481   0.074  0.00  0.00    +0.410 HD
ATOM     22  O   LIG    1       -8.021   8.367   0.124  0.00  0.00    -0.510 OA
BRANCH  20  23
ATOM     23  C   LIG    1      -10.441   9.465   0.262  0.00  0.00    +0.150 A 
ATOM     24  C   LIG    1       -9.486  10.273   0.864  0.00  0.00    +0.010 A 
ATOM     25  C   LIG    1       -9.702  11.633   0.972  0.00  0.00    +0.030 A 
ATOM     26  C   LIG    1      -10.874  12.188   0.491  0.00  0.00    -0.010 A 
ATOM     27  C   LIG    1      -11.830  11.385  -0.103  0.00  0.00    -0.070 A 
ATOM     28  C   LIG    1      -13.105  11.994  -0.626  0.00  0.00    +0.090 C 
ATOM     29  C   LIG    1      -11.617  10.025  -0.219  0.00  0.00    -0.120 A 
ATOM     30  C   LIG    1      -12.659   9.151  -0.868  0.00  0.00    +0.090 C 
ENDBRANCH  20  23
ENDBRANCH  18  19
ENDBRANCH   2  18
TORSDOF 6
