REMARK  Name = ZINCrD0000074MIE.1
REMARK                            x       y       z     vdW  Elec       q    Type
REMARK                         _______ _______ _______ _____ _____    ______ ____
ROOT
ATOM      1  C   LIG    1        1.583   3.339  -0.022  0.00  0.00    +0.540 C 
ATOM      2  N   LIG    1        1.355   2.010  -0.017  0.00  0.00    -0.710 N 
ATOM      3  H   LIG    1        2.101   1.390  -0.021  0.00  0.00    +0.420 HD
ATOM      4  O   LIG    1        0.651   4.114  -0.016  0.00  0.00    -0.520 OA
ENDROOT
BRANCH   1   5
ATOM      5  C   LIG    1        2.997   3.861  -0.034  0.00  0.00    +0.120 C 
BRANCH   5   6
ATOM      6  S   LIG    1        2.972   5.670  -0.038  0.00  0.00    +0.080 S 
BRANCH   6  13
ATOM      7  C   LIG    1       10.172   8.404  -0.103  0.00  0.00    +0.100 C 
ATOM      8  C   LIG    1        9.003   7.453  -0.091  0.00  0.00    -0.060 A 
ATOM      9  C   LIG    1        9.229   6.085  -0.090  0.00  0.00    +0.010 A 
ATOM     10  C   LIG    1        8.171   5.202  -0.078  0.00  0.00    +0.070 A 
ATOM     11  C   LIG    1        6.862   5.689  -0.069  0.00  0.00    +0.050 A 
ATOM     12  N   LIG    1        5.643   5.088  -0.057  0.00  0.00    -0.490 NA
ATOM     13  C   LIG    1        4.703   6.000  -0.052  0.00  0.00    +0.250 A 
ATOM     14  N   LIG    1        5.264   7.246  -0.065  0.00  0.00    -0.580 N 
ATOM     15  H   LIG    1        4.789   8.091  -0.068  0.00  0.00    +0.430 HD
ATOM     16  C   LIG    1        6.639   7.076  -0.070  0.00  0.00    +0.060 A 
ATOM     17  C   LIG    1        7.715   7.949  -0.081  0.00  0.00    +0.010 A 
ENDBRANCH   6  13
ENDBRANCH   5   6
ENDBRANCH   1   5
BRANCH   2  18
ATOM     18  C   LIG    1       -0.019   1.503  -0.005  0.00  0.00    +0.320 C 
BRANCH  18  19
ATOM     19  C   LIG    1        0.002  -0.004  -0.001  0.00  0.00    +0.510 C 
ATOM     20  N   LIG    1       -1.156  -0.694   0.009  0.00  0.00    -0.660 N 
ATOM     21  H   LIG    1       -2.000  -0.224   0.096  0.00  0.00    +0.410 HD
ATOM     22  O   LIG    1        1.060  -0.596  -0.008  0.00  0.00    -0.510 OA
BRANCH  20  23
ATOM     23  C   LIG    1       -1.140  -2.088  -0.104  0.00  0.00    +0.150 A 
ATOM     24  C   LIG    1       -0.072  -2.724  -0.723  0.00  0.00    +0.010 A 
ATOM     25  C   LIG    1       -0.057  -4.101  -0.829  0.00  0.00    +0.030 A 
ATOM     26  C   LIG    1       -1.109  -4.846  -0.328  0.00  0.00    -0.010 A 
ATOM     27  C   LIG    1       -2.177  -4.215   0.285  0.00  0.00    -0.070 A 
ATOM     28  C   LIG    1       -3.321  -5.031   0.830  0.00  0.00    +0.090 C 
ATOM     29  C   LIG    1       -2.195  -2.839   0.398  0.00  0.00    -0.120 A 
ATOM     30  C   LIG    1       -3.359  -2.153   1.066  0.00  0.00    +0.090 C 
ENDBRANCH  20  23
ENDBRANCH  18  19
ENDBRANCH   2  18
TORSDOF 6
