REMARK  Name = ZINCpk00000y6y82.1
REMARK                            x       y       z     vdW  Elec       q    Type
REMARK                         _______ _______ _______ _____ _____    ______ ____
ROOT
ATOM      1  O   LIG    1        0.331   0.009   0.047  0.00  0.00    -0.500 OA
ATOM      2  C   LIG    1        0.049   0.825  -0.808  0.00  0.00    +0.550 C 
ATOM      3  N   LIG    1        1.000   1.644  -1.298  0.00  0.00    -0.610 N 
ATOM      4  C   LIG    1        0.720   2.535  -2.436  0.00  0.00    +0.250 C 
ATOM      5  C   LIG    1        1.823   2.342  -3.483  0.00  0.00    +0.220 C 
ATOM      6  O   LIG    1        3.099   2.494  -2.857  0.00  0.00    -0.380 OA
ATOM      7  C   LIG    1        3.372   1.524  -1.843  0.00  0.00    +0.240 C 
ATOM      8  C   LIG    1        2.347   1.679  -0.708  0.00  0.00    +0.200 C 
ENDROOT
BRANCH   2   9
ATOM      9  C   LIG    1       -1.336   0.915  -1.315  0.00  0.00    -0.110 A 
ATOM     10  C   LIG    1       -2.002   2.143  -1.316  0.00  0.00    +0.040 A 
ATOM     11  C   LIG    1       -3.290   2.227  -1.794  0.00  0.00    +0.020 A 
ATOM     12  C   LIG    1       -3.935   1.083  -2.267  0.00  0.00    +0.000 A 
ATOM     13  C   LIG    1       -3.272  -0.146  -2.261  0.00  0.00    +0.080 A 
ATOM     14  C   LIG    1       -1.982  -0.230  -1.789  0.00  0.00    +0.070 A 
BRANCH  12  15
ATOM     15  C   LIG    1       -5.321   1.173  -2.775  0.00  0.00    +0.210 A 
ATOM     16  N   LIG    1       -6.047   0.183  -3.247  0.00  0.00    -0.270 NA
ATOM     17  N   LIG    1       -7.202   0.626  -3.596  0.00  0.00    -0.290 NA
ATOM     18  C   LIG    1       -7.277   1.910  -3.368  0.00  0.00    +0.400 A 
ATOM     19  N   LIG    1       -6.094   2.300  -2.837  0.00  0.00    -0.580 N 
ATOM     20  H   LIG    1       -5.846   3.196  -2.559  0.00  0.00    +0.430 HD
ENDBRANCH  12  15
ENDBRANCH   2   9
BRANCH   8  21
ATOM     21  C   LIG    1        2.502   0.529   0.290  0.00  0.00    +0.040 C 
ATOM     22  C   LIG    1        1.846   0.891   1.638  0.00  0.00    +0.030 C 
ATOM     23  C   LIG    1        2.751   0.308   2.738  0.00  0.00    +0.010 C 
ATOM     24  C   LIG    1        3.925  -0.388   2.019  0.00  0.00    +0.000 C 
ATOM     25  C   LIG    1        3.996   0.313   0.640  0.00  0.00    +0.150 C 
BRANCH  25  26
ATOM     26  O   LIG    1        4.625  -0.532  -0.326  0.00  0.00    -0.560 OA
ATOM     27  H   LIG    1        5.562  -0.698  -0.152  0.00  0.00    +0.380 HD
ENDBRANCH  25  26
ENDBRANCH   8  21
TORSDOF 4
