REMARK  Name = ZINCpk00000y6y82.0
REMARK                            x       y       z     vdW  Elec       q    Type
REMARK                         _______ _______ _______ _____ _____    ______ ____
ROOT
ATOM      1  O   LIG    1       -0.949   2.153  -0.198  0.00  0.00    -0.500 OA
ATOM      2  C   LIG    1       -0.677   1.539   0.816  0.00  0.00    +0.560 C 
ATOM      3  N   LIG    1        0.094   2.110   1.763  0.00  0.00    -0.600 N 
ATOM      4  C   LIG    1        0.492   1.363   2.967  0.00  0.00    +0.250 C 
ATOM      5  C   LIG    1        0.170   2.222   4.196  0.00  0.00    +0.220 C 
ATOM      6  O   LIG    1        0.752   3.517   4.031  0.00  0.00    -0.380 OA
ATOM      7  C   LIG    1        0.239   4.251   2.917  0.00  0.00    +0.220 C 
ATOM      8  C   LIG    1        0.569   3.495   1.619  0.00  0.00    +0.200 C 
ENDROOT
BRANCH   2   9
ATOM      9  C   LIG    1       -1.188   0.166   1.008  0.00  0.00    -0.110 A 
ATOM     10  C   LIG    1       -0.320  -0.923   0.899  0.00  0.00    +0.040 A 
ATOM     11  C   LIG    1       -0.795  -2.202   1.084  0.00  0.00    +0.070 A 
ATOM     12  C   LIG    1       -2.145  -2.411   1.367  0.00  0.00    -0.000 A 
ATOM     13  C   LIG    1       -3.014  -1.324   1.470  0.00  0.00    +0.060 A 
ATOM     14  C   LIG    1       -2.539  -0.044   1.292  0.00  0.00    +0.050 A 
BRANCH  12  15
ATOM     15  C   LIG    1       -2.658  -3.789   1.560  0.00  0.00    +0.260 A 
ATOM     16  N   LIG    1       -3.902  -4.113   1.836  0.00  0.00    -0.300 NA
ATOM     17  N   LIG    1       -3.943  -5.513   1.931  0.00  0.00    -0.480 N 
ATOM     18  H   LIG    1       -4.722  -6.059   2.122  0.00  0.00    +0.450 HD
ATOM     19  C   LIG    1       -2.690  -5.949   1.707  0.00  0.00    +0.500 A 
ATOM     20  N   LIG    1       -1.928  -4.911   1.486  0.00  0.00    -0.530 NA
ENDBRANCH  12  15
ENDBRANCH   2   9
BRANCH   8  21
ATOM     21  C   LIG    1       -0.138   4.163   0.438  0.00  0.00    +0.040 C 
ATOM     22  C   LIG    1        0.582   3.806  -0.879  0.00  0.00    +0.040 C 
ATOM     23  C   LIG    1        0.498   5.103  -1.721  0.00  0.00    +0.010 C 
ATOM     24  C   LIG    1        0.695   6.213  -0.659  0.00  0.00    -0.020 C 
ATOM     25  C   LIG    1       -0.067   5.693   0.577  0.00  0.00    +0.150 C 
BRANCH  25  26
ATOM     26  O   LIG    1       -1.385   6.244   0.608  0.00  0.00    -0.560 OA
ATOM     27  H   LIG    1       -1.407   7.207   0.695  0.00  0.00    +0.380 HD
ENDBRANCH  25  26
ENDBRANCH   8  21
TORSDOF 4
