REMARK  Name = ZINCqH0000034R9D.0
REMARK                            x       y       z     vdW  Elec       q    Type
REMARK                         _______ _______ _______ _____ _____    ______ ____
ROOT
ATOM      1  N   LIG    1        6.752   1.700  -1.713  0.00  0.00    -0.730 N 
ATOM      2  H   LIG    1        7.420   1.720  -1.011  0.00  0.00    +0.410 HD
ATOM      3  C   LIG    1        5.460   1.952  -1.422  0.00  0.00    +0.510 C 
ATOM      4  O   LIG    1        4.639   2.018  -2.312  0.00  0.00    -0.520 OA
ENDROOT
BRANCH   1   5
ATOM      5  C   LIG    1        7.146   1.396  -3.091  0.00  0.00    +0.320 C 
BRANCH   5   6
ATOM      6  C   LIG    1        8.623   1.642  -3.257  0.00  0.00    -0.100 A 
ATOM      7  C   LIG    1        9.461   1.583  -2.159  0.00  0.00    +0.070 A 
ATOM      8  C   LIG    1       10.818   1.804  -2.312  0.00  0.00    +0.010 A 
ATOM      9  C   LIG    1       11.335   2.095  -3.561  0.00  0.00    +0.030 A 
ATOM     10  C   LIG    1       10.497   2.159  -4.658  0.00  0.00    +0.030 A 
ATOM     11  C   LIG    1        9.140   1.933  -4.507  0.00  0.00    -0.030 A 
ATOM     12 CL   LIG    1        8.088   2.014  -5.885  0.00  0.00    -0.060 Cl
ENDBRANCH   5   6
BRANCH   5  13
ATOM     13  C   LIG    1        6.835  -0.070  -3.399  0.00  0.00    +0.110 C 
BRANCH  13  14
ATOM     14  C   LIG    1        7.481  -0.949  -2.358  0.00  0.00    +0.470 C 
ATOM     15  O   LIG    1        8.187  -0.461  -1.509  0.00  0.00    -0.500 OA
BRANCH  14  17
ATOM     16  C   LIG    1        7.924  -3.059  -1.344  0.00  0.00    +0.260 C 
ATOM     17  O   LIG    1        7.271  -2.275  -2.376  0.00  0.00    -0.360 OA
ENDBRANCH  14  17
ENDBRANCH  13  14
ENDBRANCH   5  13
ENDBRANCH   1   5
BRANCH   3  18
ATOM     18  C   LIG    1        5.036   2.153   0.011  0.00  0.00    +0.140 C 
BRANCH  18  19
ATOM     19  C   LIG    1        3.554   2.417   0.063  0.00  0.00    -0.160 A 
ATOM     20  C   LIG    1        2.958   3.620   0.091  0.00  0.00    +0.240 A 
ATOM     21  N   LIG    1        1.599   3.466   0.137  0.00  0.00    -0.590 N 
ATOM     22  H   LIG    1        0.956   4.192   0.163  0.00  0.00    +0.420 HD
ATOM     23  C   LIG    1        1.279   2.127   0.139  0.00  0.00    +0.100 A 
ATOM     24  C   LIG    1        0.076   1.429   0.176  0.00  0.00    -0.010 A 
ATOM     25  C   LIG    1        0.084   0.051   0.167  0.00  0.00    +0.020 A 
ATOM     26  C   LIG    1        1.280  -0.650   0.121  0.00  0.00    -0.020 A 
ATOM     27  C   LIG    1        2.474   0.015   0.085  0.00  0.00    +0.050 A 
ATOM     28  C   LIG    1        2.490   1.411   0.093  0.00  0.00    -0.090 A 
ENDBRANCH  18  19
ENDBRANCH   3  18
TORSDOF 7
