REMARK  Name = ZINCpk00000xI2YN.0
REMARK                            x       y       z     vdW  Elec       q    Type
REMARK                         _______ _______ _______ _____ _____    ______ ____
ROOT
ATOM      1  C   LIG    1       -0.105   0.041  -0.240  0.00  0.00    +0.590 C 
ATOM      2  N   LIG    1       -1.273  -0.631  -0.227  0.00  0.00    -0.610 N 
ATOM      3  C   LIG    1       -2.556   0.087  -0.180  0.00  0.00    +0.290 C 
ATOM      4  C   LIG    1       -3.401  -0.491   0.954  0.00  0.00    +0.190 C 
ATOM      5  N   LIG    1       -3.508  -1.947   0.790  0.00  0.00    -0.530 NA
ATOM      6  C   LIG    1       -2.193  -2.593   0.889  0.00  0.00    +0.270 C 
ATOM      7  C   LIG    1       -4.450  -2.518   1.762  0.00  0.00    +0.200 C 
ATOM      8  C   LIG    1       -1.298  -2.101  -0.253  0.00  0.00    +0.320 C 
ATOM      9  O   LIG    1        0.943  -0.564  -0.361  0.00  0.00    -0.520 OA
ENDROOT
BRANCH   1  12
ATOM     10  C   LIG    1       -0.666   1.675  -2.534  0.00  0.00    +0.150 C 
ATOM     11  C   LIG    1       -0.365   2.308  -1.200  0.00  0.00    +0.210 A 
ATOM     12  C   LIG    1       -0.097   1.510  -0.107  0.00  0.00    -0.240 A 
ATOM     13  C   LIG    1        0.179   2.112   1.144  0.00  0.00    +0.150 A 
ATOM     14  C   LIG    1        0.185   3.468   1.237  0.00  0.00    -0.080 A 
ATOM     15  C   LIG    1       -0.093   4.242   0.095  0.00  0.00    +0.520 A 
ATOM     16  O   LIG    1       -0.094   5.459   0.173  0.00  0.00    -0.540 OA
ATOM     17  N   LIG    1       -0.359   3.649  -1.084  0.00  0.00    -0.590 N 
ATOM     18  H   LIG    1       -0.548   4.197  -1.861  0.00  0.00    +0.420 HD
ENDBRANCH   1  12
BRANCH   6  19
ATOM     19  C   LIG    1       -2.358  -4.088   0.791  0.00  0.00    +0.190 A 
ATOM     20  N   LIG    1       -1.776  -4.989   1.546  0.00  0.00    -0.470 NA
ATOM     21  C   LIG    1       -2.220  -6.177   1.098  0.00  0.00    +0.200 A 
ATOM     22  N   LIG    1       -3.027  -5.942   0.107  0.00  0.00    -0.380 NA
ATOM     23  O   LIG    1       -3.120  -4.748  -0.085  0.00  0.00    +0.100 OA
BRANCH  21  24
ATOM     24  C   LIG    1       -1.845  -7.531   1.641  0.00  0.00    +0.060 C 
ATOM     25  C   LIG    1       -2.302  -8.760   0.853  0.00  0.00    +0.050 C 
ATOM     26  C   LIG    1       -2.972  -8.412   2.183  0.00  0.00    +0.050 C 
ENDBRANCH  21  24
ENDBRANCH   6  19
TORSDOF 3
