REMARK  Name = ZINCnE00000hdcZM.0
REMARK                            x       y       z     vdW  Elec       q    Type
REMARK                         _______ _______ _______ _____ _____    ______ ____
ROOT
ATOM      1  C   LIG    1       -0.738   3.054   0.123  0.00  0.00    -0.220 A 
ATOM      2  C   LIG    1       -1.117   1.730   0.015  0.00  0.00    +0.300 A 
ATOM      3  N   LIG    1       -0.020   0.963   0.151  0.00  0.00    -0.540 N 
ATOM      4  H   LIG    1       -0.005  -0.006   0.117  0.00  0.00    +0.410 HD
ATOM      5  C   LIG    1        1.078   1.771   0.339  0.00  0.00    +0.010 A 
ATOM      6  C   LIG    1        0.664   3.068   0.326  0.00  0.00    +0.110 A 
ENDROOT
BRANCH   5   7
ATOM      7  C   LIG    1        2.464   1.311   0.522  0.00  0.00    +0.380 A 
ATOM      8  N   LIG    1        3.503   2.095   0.700  0.00  0.00    -0.480 NA
ATOM      9  C   LIG    1        4.622   1.343   0.834  0.00  0.00    +0.060 A 
ATOM     10  C   LIG    1        5.970   1.656   1.040  0.00  0.00    +0.060 A 
ATOM     11  C   LIG    1        6.899   0.646   1.137  0.00  0.00    +0.000 A 
ATOM     12  C   LIG    1        6.511  -0.682   1.032  0.00  0.00    +0.020 A 
ATOM     13  C   LIG    1        5.186  -1.009   0.828  0.00  0.00    +0.010 A 
ATOM     14  C   LIG    1        4.234  -0.005   0.728  0.00  0.00    +0.050 A 
ATOM     15  N   LIG    1        2.865   0.001   0.537  0.00  0.00    -0.610 N 
ATOM     16  H   LIG    1        2.295  -0.777   0.431  0.00  0.00    +0.420 HD
ENDBRANCH   5   7
BRANCH   1  18
ATOM     17  O   LIG    1       -1.148   5.349   0.049  0.00  0.00    -0.490 OA
ATOM     18  C   LIG    1       -1.622   4.229   0.038  0.00  0.00    +0.510 C 
BRANCH  18  19
ATOM     19  C   LIG    1       -3.083   4.047  -0.061  0.00  0.00    -0.310 A 
ATOM     20  C   LIG    1       -3.734   4.237  -1.283  0.00  0.00    +0.060 A 
ATOM     21  C   LIG    1       -5.097   4.059  -1.370  0.00  0.00    -0.180 A 
ATOM     22  C   LIG    1       -5.829   3.705  -0.248  0.00  0.00    +0.030 A 
ATOM     23  C   LIG    1       -5.199   3.520   0.968  0.00  0.00    -0.170 A 
ATOM     24  C   LIG    1       -3.827   3.688   1.072  0.00  0.00    +0.300 A 
ATOM     25  O   LIG    1       -3.208   3.506   2.265  0.00  0.00    -0.720 OA
ENDBRANCH  18  19
ENDBRANCH   1  18
TORSDOF 3
