REMARK  Name = ZINCvU0000000Bpj.0
REMARK                            x       y       z     vdW  Elec       q    Type
REMARK                         _______ _______ _______ _____ _____    ______ ____
ROOT
ATOM      1  C   LIG    1        5.365   3.147   0.165  0.00  0.00    +0.540 C 
ATOM      2  N   LIG    1        5.802   4.422   0.156  0.00  0.00    -0.720 N 
ATOM      3  H   LIG    1        5.166   5.153   0.208  0.00  0.00    +0.400 HD
ATOM      4  O   LIG    1        6.150   2.236   0.010  0.00  0.00    -0.520 OA
ENDROOT
BRANCH   1   5
ATOM      5  C   LIG    1        3.901   2.854   0.367  0.00  0.00    +0.100 C 
BRANCH   5   6
ATOM      6  S   LIG    1        3.633   1.064   0.328  0.00  0.00    +0.090 S 
BRANCH   6  11
ATOM      7  N   LIG    1        1.112  -0.114   0.647  0.00  0.00    -0.410 N 
ATOM      8  C   LIG    1       -0.166   0.334   0.854  0.00  0.00    +0.400 A 
ATOM      9  N   LIG    1       -0.117   1.635   0.903  0.00  0.00    -0.280 NA
ATOM     10  N   LIG    1        1.092   2.039   0.744  0.00  0.00    -0.290 NA
ATOM     11  C   LIG    1        1.890   1.009   0.582  0.00  0.00    +0.140 A 
BRANCH   7  16
ATOM     12  C   LIG    1        2.821  -5.504   0.157  0.00  0.00    +0.110 C 
ATOM     13  C   LIG    1        2.368  -4.073   0.287  0.00  0.00    -0.070 A 
ATOM     14  C   LIG    1        2.752  -3.139  -0.657  0.00  0.00    +0.040 A 
ATOM     15  C   LIG    1        2.333  -1.828  -0.543  0.00  0.00    +0.020 A 
ATOM     16  C   LIG    1        1.535  -1.446   0.526  0.00  0.00    +0.100 A 
ATOM     17  C   LIG    1        1.150  -2.386   1.472  0.00  0.00    +0.030 A 
ATOM     18  C   LIG    1        1.567  -3.697   1.351  0.00  0.00    -0.070 A 
ATOM     19  C   LIG    1        1.150  -4.718   2.377  0.00  0.00    +0.110 C 
ENDBRANCH   7  16
ENDBRANCH   6  11
ENDBRANCH   5   6
ENDBRANCH   1   5
BRANCH   2  20
ATOM     20  C   LIG    1        7.237   4.704   0.069  0.00  0.00    +0.300 C 
BRANCH  20  21
ATOM     21  C   LIG    1        7.861   4.558   1.432  0.00  0.00    -0.110 A 
ATOM     22  C   LIG    1        7.194   5.022   2.551  0.00  0.00    +0.050 A 
ATOM     23  C   LIG    1        7.764   4.884   3.803  0.00  0.00    -0.010 A 
ATOM     24  C   LIG    1        9.008   4.291   3.935  0.00  0.00    +0.100 A 
ATOM     25  C   LIG    1        9.678   3.833   2.813  0.00  0.00    -0.010 A 
ATOM     26  F   LIG    1        9.569   4.161   5.157  0.00  0.00    -0.140 F 
ATOM     27  C   LIG    1        9.104   3.967   1.563  0.00  0.00    +0.060 A 
ENDBRANCH  20  21
BRANCH  20  28
ATOM     28  C   LIG    1        7.445   6.133  -0.438  0.00  0.00    -0.010 C 
ATOM     29  C   LIG    1        6.676   7.128   0.456  0.00  0.00    +0.020 C 
ATOM     30  C   LIG    1        6.151   8.198  -0.534  0.00  0.00    +0.010 C 
ATOM     31  C   LIG    1        5.769   7.357  -1.777  0.00  0.00    +0.000 C 
ATOM     32  C   LIG    1        6.869   6.279  -1.857  0.00  0.00    +0.020 C 
ENDBRANCH  20  28
ENDBRANCH   2  20
TORSDOF 7
