REMARK  Name = ZINCrH000004tHGi.0
REMARK                            x       y       z     vdW  Elec       q    Type
REMARK                         _______ _______ _______ _____ _____    ______ ____
ROOT
ATOM      1  O   LIG    1       -1.212   3.343  -1.688  0.00  0.00    -0.530 OA
ATOM      2  C   LIG    1       -0.202   2.680  -1.793  0.00  0.00    +0.520 C 
ATOM      3  N   LIG    1        0.090   2.078  -2.962  0.00  0.00    -0.620 N 
ATOM      4  C   LIG    1        1.314   1.276  -3.106  0.00  0.00    +0.270 C 
ATOM      5  C   LIG    1        0.920  -0.129  -3.590  0.00  0.00    +0.270 C 
ATOM      6  N   LIG    1        0.024   0.008  -4.747  0.00  0.00    -0.610 N 
ATOM      7  C   LIG    1       -1.197   0.814  -4.605  0.00  0.00    +0.290 C 
ATOM      8  C   LIG    1        0.317  -0.594  -5.917  0.00  0.00    +0.570 C 
ATOM      9  O   LIG    1       -0.465  -0.530  -6.845  0.00  0.00    -0.520 OA
ATOM     10  C   LIG    1       -0.806   2.215  -4.119  0.00  0.00    +0.290 C 
ENDROOT
BRANCH   8  11
ATOM     11  C   LIG    1        1.589  -1.332  -6.071  0.00  0.00    -0.100 A 
ATOM     12  C   LIG    1        1.956  -2.298  -5.133  0.00  0.00    +0.070 A 
ATOM     13  C   LIG    1        3.142  -2.988  -5.285  0.00  0.00    -0.030 A 
ATOM     14  C   LIG    1        3.972  -2.715  -6.359  0.00  0.00    +0.070 A 
ATOM     15  C   LIG    1        3.616  -1.753  -7.289  0.00  0.00    -0.030 A 
ATOM     16 CL   LIG    1        4.663  -1.418  -8.633  0.00  0.00    -0.040 Cl
ATOM     17 CL   LIG    1        3.597  -4.195  -4.123  0.00  0.00    -0.040 Cl
ATOM     18  C   LIG    1        2.429  -1.061  -7.151  0.00  0.00    +0.090 A 
ENDBRANCH   8  11
BRANCH   2  19
ATOM     19  C   LIG    1        0.726   2.530  -0.615  0.00  0.00    +0.050 C 
BRANCH  19  20
ATOM     20  C   LIG    1        0.166   3.307   0.578  0.00  0.00    +0.280 C 
BRANCH  20  21
ATOM     21  N   LIG    1        1.069   3.161   1.723  0.00  0.00    -0.750 N 
ATOM     22  H   LIG    1        1.877   2.631   1.639  0.00  0.00    +0.400 HD
BRANCH  21  23
ATOM     23  C   LIG    1        0.766   3.786   2.935  0.00  0.00    +0.210 A 
ATOM     24  C   LIG    1       -0.388   4.550   3.055  0.00  0.00    -0.080 A 
ATOM     25  C   LIG    1       -0.687   5.162   4.256  0.00  0.00    +0.050 A 
ATOM     26  C   LIG    1        0.166   5.023   5.336  0.00  0.00    -0.060 A 
ATOM     27  C   LIG    1        1.318   4.268   5.218  0.00  0.00    +0.050 A 
ATOM     28  C   LIG    1        1.621   3.648   4.021  0.00  0.00    -0.080 A 
ENDBRANCH  21  23
ENDBRANCH  20  21
ENDBRANCH  19  20
ENDBRANCH   2  19
TORSDOF 5
