REMARK  Name = ZINCrD000000fSmO.0
REMARK                            x       y       z     vdW  Elec       q    Type
REMARK                         _______ _______ _______ _____ _____    ______ ____
ROOT
ATOM      1  C   LIG    1       -1.086   3.128   1.262  0.00  0.00    +0.080 C 
ATOM      2  C   LIG    1       -0.683   1.652   1.246  0.00  0.00    -0.040 C 
ATOM      3  C   LIG    1        0.068   1.343  -0.051  0.00  0.00    +0.060 C 
ENDROOT
BRANCH   2   4
ATOM      4  C   LIG    1       -1.919   0.794   1.327  0.00  0.00    +0.530 C 
ATOM      5  N   LIG    1       -1.815  -0.547   1.240  0.00  0.00    -0.620 N 
ATOM      6  C   LIG    1       -0.497  -1.194   1.189  0.00  0.00    +0.290 C 
ATOM      7  C   LIG    1       -0.431  -2.258   2.295  0.00  0.00    +0.020 C 
ATOM      8  C   LIG    1       -1.610  -3.221   2.139  0.00  0.00    +0.270 C 
ATOM      9  C   LIG    1       -2.924  -2.451   2.289  0.00  0.00    +0.030 C 
ATOM     10  C   LIG    1       -3.018  -1.390   1.189  0.00  0.00    +0.290 C 
ATOM     11  O   LIG    1       -3.008   1.309   1.470  0.00  0.00    -0.520 OA
BRANCH   8  12
ATOM     12  N   LIG    1       -1.532  -4.259   3.171  0.00  0.00    -0.380 N 
ATOM     13  C   LIG    1       -1.091  -4.110   4.432  0.00  0.00    +0.460 A 
ATOM     14  N   LIG    1       -1.181  -5.268   5.033  0.00  0.00    -0.540 NA
ATOM     15  C   LIG    1       -1.673  -6.177   4.192  0.00  0.00    +0.420 A 
ATOM     16  N   LIG    1       -1.909  -5.605   3.040  0.00  0.00    -0.320 NA
ENDBRANCH   8  12
ENDBRANCH   2   4
BRANCH   2  17
ATOM     17  C   LIG    1        0.208   1.362   2.425  0.00  0.00    -0.100 A 
ATOM     18  C   LIG    1       -0.247   0.557   3.453  0.00  0.00    +0.050 A 
ATOM     19  C   LIG    1        0.570   0.284   4.533  0.00  0.00    -0.060 A 
ATOM     20  C   LIG    1        1.845   0.828   4.591  0.00  0.00    +0.110 A 
ATOM     21  C   LIG    1        2.298   1.640   3.561  0.00  0.00    +0.020 A 
ATOM     22  C   LIG    1        1.479   1.904   2.480  0.00  0.00    +0.070 A 
BRANCH  20  23
ATOM     23  O   LIG    1        2.649   0.567   5.655  0.00  0.00    -0.310 OA
BRANCH  23  24
ATOM     24  C   LIG    1        2.117  -0.277   6.678  0.00  0.00    +0.600 C 
ATOM     25  F   LIG    1        0.965   0.309   7.213  0.00  0.00    -0.160 F 
ATOM     26  F   LIG    1        3.069  -0.440   7.690  0.00  0.00    -0.130 F 
ATOM     27  F   LIG    1        1.796  -1.525   6.134  0.00  0.00    -0.160 F 
ENDBRANCH  23  24
ENDBRANCH  20  23
ENDBRANCH   2  17
TORSDOF 5
