REMARK  Name = ZINCkj000005iGCZ.0
REMARK                            x       y       z     vdW  Elec       q    Type
REMARK                         _______ _______ _______ _____ _____    ______ ____
ROOT
ATOM      1  N   LIG    1        1.150   4.077   1.397  0.00  0.00    -0.540 NA
ATOM      2  C   LIG    1       -0.094   3.708   2.088  0.00  0.00    +0.210 C 
ATOM      3  C   LIG    1       -0.024   4.176   3.543  0.00  0.00    +0.270 C 
ATOM      4  N   LIG    1        0.164   5.632   3.581  0.00  0.00    -0.380 N 
ATOM      5  C   LIG    1        1.423   5.982   2.910  0.00  0.00    +0.280 C 
ATOM      6  H   LIG    1       -0.605   6.083   3.109  0.00  0.00    +0.420 HD
ATOM      7  C   LIG    1        1.365   5.530   1.449  0.00  0.00    +0.220 C 
ENDROOT
BRANCH   1   8
ATOM      8  C   LIG    1        1.145   3.594   0.010  0.00  0.00    +0.260 C 
BRANCH   8  12
ATOM      9  C   LIG    1        1.212  -0.680  -0.013  0.00  0.00    +0.110 A 
ATOM     10  C   LIG    1        0.002  -0.004   0.002  0.00  0.00    -0.040 A 
ATOM     11  C   LIG    1       -0.017   1.378   0.010  0.00  0.00    +0.040 A 
ATOM     12  C   LIG    1        1.170   2.087   0.002  0.00  0.00    -0.110 A 
ATOM     13  C   LIG    1        2.379   1.417  -0.013  0.00  0.00    +0.050 A 
ATOM     14  C   LIG    1        2.404   0.034  -0.021  0.00  0.00    +0.070 A 
ATOM     15  F   LIG    1        3.585  -0.621  -0.036  0.00  0.00    -0.130 F 
BRANCH   9  17
ATOM     16  C   LIG    1       -0.030  -2.708  -0.013  0.00  0.00    +0.250 C 
ATOM     17  O   LIG    1        1.233  -2.039  -0.021  0.00  0.00    -0.310 OA
ENDBRANCH   9  17
ENDBRANCH   8  12
ENDBRANCH   1   8
BRANCH   4  18
ATOM     18  C   LIG    1        0.213   6.083   4.978  0.00  0.00    +0.220 C 
BRANCH  18  19
ATOM     19  C   LIG    1       -1.044   5.609   5.711  0.00  0.00    +0.200 C 
ATOM     20  C   LIG    1       -0.993   6.079   7.167  0.00  0.00    +0.050 C 
BRANCH  19  21
ATOM     21  O   LIG    1       -2.200   6.156   5.075  0.00  0.00    -0.560 OA
ATOM     22  H   LIG    1       -2.224   7.123   5.064  0.00  0.00    +0.390 HD
ENDBRANCH  19  21
ENDBRANCH  18  19
ENDBRANCH   4  18
TORSDOF 6
