REMARK  Name = ZINCqH0000003QAe.0
REMARK                            x       y       z     vdW  Elec       q    Type
REMARK                         _______ _______ _______ _____ _____    ______ ____
ROOT
ATOM      1  N   LIG    1       -0.443  -2.278   1.729  0.00  0.00    -0.480 N 
ATOM      2  C   LIG    1       -1.469  -1.231   1.829  0.00  0.00    +0.190 C 
ATOM      3  C   LIG    1       -1.542  -0.463   0.505  0.00  0.00    +0.290 C 
ATOM      4  N   LIG    1       -0.193   0.019   0.171  0.00  0.00    -0.600 N 
ATOM      5  C   LIG    1        0.914  -0.950   0.178  0.00  0.00    +0.300 C 
ATOM      6  C   LIG    1        0.023   1.312  -0.140  0.00  0.00    +0.600 C 
ATOM      7  O   LIG    1        1.158   1.718  -0.304  0.00  0.00    -0.510 OA
ATOM      8  C   LIG    1        0.890  -1.699   1.520  0.00  0.00    +0.190 C 
ENDROOT
BRANCH   6   9
ATOM      9  C   LIG    1       -1.113   2.235  -0.275  0.00  0.00    -0.030 A 
ATOM     10  C   LIG    1       -1.013   3.579  -0.437  0.00  0.00    +0.070 A 
ATOM     11  C   LIG    1       -2.385   4.080  -0.528  0.00  0.00    -0.150 A 
ATOM     12  C   LIG    1       -2.950   5.346  -0.697  0.00  0.00    +0.070 A 
ATOM     13  C   LIG    1       -4.309   5.480  -0.737  0.00  0.00    -0.010 A 
ATOM     14  C   LIG    1       -5.130   4.368  -0.612  0.00  0.00    +0.060 A 
ATOM     15  C   LIG    1       -4.592   3.111  -0.444  0.00  0.00    +0.030 A 
ATOM     16  C   LIG    1       -3.213   2.948  -0.400  0.00  0.00    +0.060 A 
ATOM     17  O   LIG    1       -2.414   1.874  -0.252  0.00  0.00    -0.180 OA
ENDBRANCH   6   9
BRANCH   1  23
ATOM     18  C   LIG    1       -1.555  -3.933   3.101  0.00  0.00    +0.120 A 
ATOM     19  C   LIG    1       -1.566  -4.750   4.218  0.00  0.00    -0.060 A 
ATOM     20  C   LIG    1       -0.491  -4.746   5.089  0.00  0.00    +0.030 A 
ATOM     21  C   LIG    1        0.596  -3.926   4.848  0.00  0.00    +0.000 A 
ATOM     22  C   LIG    1        0.617  -3.111   3.731  0.00  0.00    +0.000 A 
ATOM     23  C   LIG    1       -0.460  -3.106   2.857  0.00  0.00    +0.070 A 
BRANCH  18  24
ATOM     24  O   LIG    1       -2.611  -3.935   2.244  0.00  0.00    -0.300 OA
BRANCH  24  26
ATOM     25  C   LIG    1       -4.785  -4.673   1.489  0.00  0.00    +0.070 C 
ATOM     26  C   LIG    1       -3.699  -4.807   2.558  0.00  0.00    +0.170 C 
ENDBRANCH  24  26
ENDBRANCH  18  24
ENDBRANCH   1  23
TORSDOF 4
