REMARK  Name = ZINCqH0000003c2e.0
REMARK                            x       y       z     vdW  Elec       q    Type
REMARK                         _______ _______ _______ _____ _____    ______ ____
ROOT
ATOM      1  C   LIG    1       -4.386   5.110  -2.025  0.00  0.00    -0.220 A 
ATOM      2  C   LIG    1       -3.620   5.783  -2.891  0.00  0.00    +0.220 A 
ATOM      3  N   LIG    1       -3.686   7.092  -2.817  0.00  0.00    -0.460 NA
ATOM      4  C   LIG    1       -4.481   7.595  -1.916  0.00  0.00    +0.110 A 
ATOM      5  S   LIG    1       -5.263   6.280  -1.041  0.00  0.00    +0.120 S 
ENDROOT
BRANCH   4   6
ATOM      6  C   LIG    1       -4.697   9.037  -1.671  0.00  0.00    -0.040 A 
ATOM      7  C   LIG    1       -5.584   9.453  -0.677  0.00  0.00    +0.030 A 
ATOM      8  C   LIG    1       -5.778  10.800  -0.450  0.00  0.00    +0.020 A 
ATOM      9  C   LIG    1       -5.103  11.737  -1.212  0.00  0.00    -0.060 A 
ATOM     10  C   LIG    1       -4.227  11.331  -2.203  0.00  0.00    +0.010 A 
ATOM     11  C   LIG    1       -4.020   9.987  -2.436  0.00  0.00    +0.070 A 
BRANCH   9  12
ATOM     12  C   LIG    1       -5.323  13.207  -0.963  0.00  0.00    +0.020 C 
ATOM     13  C   LIG    1       -4.929  13.544   0.476  0.00  0.00    +0.030 C 
ATOM     14  C   LIG    1       -6.800  13.545  -1.179  0.00  0.00    +0.030 C 
ENDBRANCH   9  12
ENDBRANCH   4   6
BRANCH   1  15
ATOM     15  C   LIG    1       -4.486   3.611  -1.913  0.00  0.00    +0.280 C 
BRANCH  15  22
ATOM     16  N   LIG    1       -0.017  -0.136   0.009  0.00  0.00    -0.750 N 
ATOM     17  H   LIG    1       -0.854  -0.620   0.084  0.00  0.00    +0.390 HD
ATOM     18  C   LIG    1       -0.014   1.212   0.009  0.00  0.00    +0.710 C 
ATOM     19  N   LIG    1       -1.181   1.887   0.015  0.00  0.00    -0.630 N 
ATOM     20  C   LIG    1       -1.203   3.355  -0.082  0.00  0.00    +0.310 C 
ATOM     21  C   LIG    1       -2.174   3.748  -1.207  0.00  0.00    +0.170 C 
ATOM     22  N   LIG    1       -3.480   3.122  -0.961  0.00  0.00    -0.530 NA
ATOM     23  C   LIG    1       -3.385   1.657  -1.000  0.00  0.00    +0.170 C 
ATOM     24  C   LIG    1       -2.464   1.177   0.127  0.00  0.00    +0.280 C 
ATOM     25  O   LIG    1        1.040   1.818   0.008  0.00  0.00    -0.590 OA
BRANCH  16  27
ATOM     26  C   LIG    1        0.965  -2.374  -0.080  0.00  0.00    +0.030 C 
ATOM     27  C   LIG    1        1.246  -0.871  -0.105  0.00  0.00    +0.270 C 
ENDBRANCH  16  27
ENDBRANCH  15  22
ENDBRANCH   1  15
TORSDOF 5
