REMARK  Name = ZINCpk00000eaInc.0
REMARK                            x       y       z     vdW  Elec       q    Type
REMARK                         _______ _______ _______ _____ _____    ______ ____
ROOT
ATOM      1  C   LIG    1       -0.724   2.012   1.250  0.00  0.00    +0.520 C 
ATOM      2  N   LIG    1       -0.863   3.334   1.472  0.00  0.00    -0.730 N 
ATOM      3  H   LIG    1       -0.509   3.973   0.834  0.00  0.00    +0.400 HD
ATOM      4  O   LIG    1       -1.167   1.213   2.049  0.00  0.00    -0.530 OA
ENDROOT
BRANCH   1   5
ATOM      5  C   LIG    1       -0.019   1.526   0.010  0.00  0.00    +0.050 C 
BRANCH   5   6
ATOM      6  C   LIG    1        0.002  -0.004   0.002  0.00  0.00    +0.290 C 
BRANCH   6   8
ATOM      7  C   LIG    1        0.827  -1.799  -1.425  0.00  0.00    +0.540 C 
ATOM      8  N   LIG    1        0.688  -0.476  -1.203  0.00  0.00    -0.730 N 
ATOM      9  H   LIG    1        1.042   0.162  -1.842  0.00  0.00    +0.400 HD
ATOM     10  O   LIG    1        0.384  -2.597  -0.627  0.00  0.00    -0.530 OA
BRANCH   7  14
ATOM     11  C   LIG    1        2.933  -4.320  -3.524  0.00  0.00    +0.060 C 
ATOM     12  C   LIG    1        1.658  -3.797  -2.859  0.00  0.00    +0.000 C 
ATOM     13  C   LIG    1        0.688  -2.992  -3.727  0.00  0.00    +0.060 C 
ATOM     14  C   LIG    1        1.532  -2.285  -2.665  0.00  0.00    -0.070 C 
ENDBRANCH   7  14
ENDBRANCH   6   8
ENDBRANCH   5   6
ENDBRANCH   1   5
BRANCH   2  15
ATOM     15  C   LIG    1       -1.549   3.806   2.677  0.00  0.00    +0.320 C 
BRANCH  15  16
ATOM     16  C   LIG    1       -1.569   5.313   2.686  0.00  0.00    -0.080 A 
ATOM     17  C   LIG    1       -2.622   5.993   2.100  0.00  0.00    +0.010 A 
ATOM     18  C   LIG    1       -2.644   7.376   2.106  0.00  0.00    +0.040 A 
ATOM     19  C   LIG    1       -1.615   8.082   2.696  0.00  0.00    -0.020 A 
ATOM     20  C   LIG    1       -0.556   7.402   3.286  0.00  0.00    +0.180 A 
ATOM     21  C   LIG    1       -0.539   6.014   3.283  0.00  0.00    +0.030 A 
BRANCH  20  22
ATOM     22  N   LIG    1        0.488   8.115   3.886  0.00  0.00    -0.570 N 
ATOM     23  C   LIG    1        0.589   9.581   3.963  0.00  0.00    +0.260 C 
ATOM     24  C   LIG    1        1.913   9.818   4.715  0.00  0.00    +0.260 C 
ATOM     25  O   LIG    1        2.413   8.475   4.980  0.00  0.00    -0.320 OA
ATOM     26  C   LIG    1        1.555   7.574   4.489  0.00  0.00    +0.640 C 
ATOM     27  O   LIG    1        1.730   6.375   4.577  0.00  0.00    -0.500 OA
ENDBRANCH  20  22
ENDBRANCH  15  16
ENDBRANCH   2  15
TORSDOF 7
