REMARK  Name = ZINCrg00001JduWp.0
REMARK                            x       y       z     vdW  Elec       q    Type
REMARK                         _______ _______ _______ _____ _____    ______ ____
ROOT
ATOM      1  C   LIG    1       -0.018   1.460   0.010  0.00  0.00    -0.050 C 
ATOM      2  C   LIG    1        1.140   2.150   0.003  0.00  0.00    +0.130 C 
ENDROOT
BRANCH   2   3
ATOM      3  C   LIG    1        1.120   3.622   0.011  0.00  0.00    -0.020 A 
ATOM      4  C   LIG    1       -0.098   4.308   0.020  0.00  0.00    +0.020 A 
ATOM      5  C   LIG    1       -0.108   5.687   0.034  0.00  0.00    +0.130 A 
ATOM      6  C   LIG    1        1.083   6.392   0.027  0.00  0.00    -0.670 A 
ATOM      7  C   LIG    1        2.293   5.720   0.011  0.00  0.00    +0.130 A 
ATOM      8  C   LIG    1        2.320   4.341   0.003  0.00  0.00    +0.030 A 
BRANCH   6   9
ATOM      9  S   LIG    1        1.059   8.153   0.037  0.00  0.00    +2.700 S 
ATOM     10  O   LIG    1        2.308   8.569   0.572  0.00  0.00    -0.950 OA
ATOM     11  O   LIG    1       -0.191   8.534   0.596  0.00  0.00    -0.950 OA
BRANCH   9  12
ATOM     12  N   LIG    1        1.037   8.653  -1.542  0.00  0.00    -1.090 NA
ATOM     13  H   LIG    1        1.788   9.148  -1.905  0.00  0.00    +0.420 HD
BRANCH  12  14
ATOM     14  C   LIG    1       -0.117   8.347  -2.391  0.00  0.00    +0.220 C 
ATOM     15  C   LIG    1        0.147   8.084  -3.875  0.00  0.00    +0.010 C 
ATOM     16  C   LIG    1       -0.521   9.388  -3.436  0.00  0.00    +0.030 C 
ENDBRANCH  12  14
ENDBRANCH   9  12
ENDBRANCH   6   9
ENDBRANCH   2   3
BRANCH   1  19
ATOM     17  N   LIG    1       -1.156  -0.694   0.009  0.00  0.00    -0.500 N 
ATOM     18  H   LIG    1       -2.002  -0.220   0.020  0.00  0.00    +0.440 HD
ATOM     19  C   LIG    1        0.002  -0.004   0.002  0.00  0.00    +0.550 C 
ATOM     20  O   LIG    1        1.064  -0.598  -0.011  0.00  0.00    -0.540 OA
BRANCH  17  21
ATOM     21  N   LIG    1       -1.137  -2.095   0.002  0.00  0.00    -0.490 N 
ATOM     22  H   LIG    1       -0.290  -2.568  -0.009  0.00  0.00    +0.450 HD
BRANCH  21  27
ATOM     23  C   LIG    1       -3.412  -4.835   0.008  0.00  0.00    +0.410 A 
ATOM     24  C   LIG    1       -4.635  -4.166   0.023  0.00  0.00    -0.150 A 
ATOM     25  C   LIG    1       -4.630  -2.783   0.031  0.00  0.00    +0.400 A 
ATOM     26  N   LIG    1       -3.473  -2.140   0.024  0.00  0.00    -0.600 NA
ATOM     27  C   LIG    1       -2.326  -2.803   0.009  0.00  0.00    +0.600 A 
ATOM     28  N   LIG    1       -2.289  -4.127  -0.004  0.00  0.00    -0.620 NA
BRANCH  23  30
ATOM     29  C   LIG    1       -2.078  -6.799  -0.016  0.00  0.00    +0.250 C 
ATOM     30  O   LIG    1       -3.370  -6.189  -0.000  0.00  0.00    -0.300 OA
ENDBRANCH  23  30
ENDBRANCH  21  27
ENDBRANCH  17  21
ENDBRANCH   1  19
TORSDOF 8
