REMARK  Name = ZINCrD00000F5LkR.0
REMARK                            x       y       z     vdW  Elec       q    Type
REMARK                         _______ _______ _______ _____ _____    ______ ____
ROOT
ATOM      1  N   LIG    1       -0.589   1.949   1.265  0.00  0.00    -0.990 NA
ENDROOT
BRANCH   1   2
ATOM      2  S   LIG    1       -2.229   2.103   1.440  0.00  0.00    +2.670 S 
ATOM      3  O   LIG    1       -2.744   2.400   0.150  0.00  0.00    -0.960 OA
ATOM      4  O   LIG    1       -2.434   2.940   2.571  0.00  0.00    -0.950 OA
BRANCH   2   6
ATOM      5  C   LIG    1       -3.761  -0.059   1.119  0.00  0.00    +0.230 C 
ATOM      6  C   LIG    1       -2.859   0.516   1.875  0.00  0.00    -0.580 C 
ENDBRANCH   2   6
ENDBRANCH   1   2
BRANCH   1   7
ATOM      7  C   LIG    1       -0.021   1.606  -0.042  0.00  0.00    +0.400 C 
BRANCH   7   8
ATOM      8  C   LIG    1        0.176   0.115  -0.129  0.00  0.00    +0.050 A 
ATOM      9  C   LIG    1        0.350  -0.729   0.915  0.00  0.00    -0.100 A 
ATOM     10  C   LIG    1        0.494  -2.023   0.403  0.00  0.00    +0.100 A 
ATOM     11  N   LIG    1        0.416  -1.957  -0.902  0.00  0.00    -0.280 NA
ATOM     12  N   LIG    1        0.215  -0.618  -1.261  0.00  0.00    -0.360 N 
BRANCH  10  13
ATOM     13  C   LIG    1        0.707  -3.275   1.213  0.00  0.00    +0.040 C 
ATOM     14  C   LIG    1        1.145  -3.108   2.670  0.00  0.00    +0.040 C 
ATOM     15  C   LIG    1        2.141  -3.615   1.624  0.00  0.00    +0.040 C 
ENDBRANCH  10  13
BRANCH  12  16
ATOM     16  C   LIG    1        0.074  -0.104  -2.626  0.00  0.00    +0.320 C 
ATOM     17  C   LIG    1        1.460   0.152  -3.221  0.00  0.00    +0.040 C 
ENDBRANCH  12  16
ENDBRANCH   7   8
ENDBRANCH   1   7
BRANCH   1  18
ATOM     18  C   LIG    1        0.293   2.154   2.416  0.00  0.00    +0.300 C 
BRANCH  18  19
ATOM     19  C   LIG    1        0.795   3.599   2.422  0.00  0.00    -0.020 C 
BRANCH  19  20
ATOM     20  C   LIG    1        1.717   3.814   3.624  0.00  0.00    +0.210 C 
BRANCH  20  21
ATOM     21  C   LIG    1        2.317   5.220   3.563  0.00  0.00    -0.050 C 
ATOM     22  C   LIG    1        3.120   5.375   2.270  0.00  0.00    +0.010 C 
ATOM     23  C   LIG    1        3.720   6.781   2.208  0.00  0.00    +0.000 C 
ATOM     24  C   LIG    1        4.642   6.996   3.410  0.00  0.00    +0.000 C 
ATOM     25  C   LIG    1        3.839   6.840   4.703  0.00  0.00    +0.000 C 
ATOM     26  C   LIG    1        3.239   5.434   4.765  0.00  0.00    +0.020 C 
ENDBRANCH  20  21
BRANCH  20  27
ATOM     27  O   LIG    1        0.967   3.669   4.832  0.00  0.00    -0.560 OA
ATOM     28  H   LIG    1        0.235   4.295   4.918  0.00  0.00    +0.380 HD
ENDBRANCH  20  27
ENDBRANCH  19  20
ENDBRANCH  18  19
ENDBRANCH   1  18
TORSDOF 11
