REMARK  Name = ZINCrH000004mKFO.0
REMARK                            x       y       z     vdW  Elec       q    Type
REMARK                         _______ _______ _______ _____ _____    ______ ____
ROOT
ATOM      1  C   LIG    1        1.111  -4.911   0.286  0.00  0.00    -0.040 A 
ATOM      2  C   LIG    1        2.341  -4.254   0.361  0.00  0.00    +0.040 A 
ATOM      3  C   LIG    1        3.512  -4.979   0.284  0.00  0.00    +0.060 A 
ATOM      4  C   LIG    1        3.470  -6.352   0.122  0.00  0.00    +0.030 A 
ATOM      5  C   LIG    1        2.255  -7.009   0.041  0.00  0.00    +0.100 A 
ATOM      6  C   LIG    1        1.076  -6.297   0.123  0.00  0.00    -0.620 A 
ENDROOT
BRANCH   1   9
ATOM      7  N   LIG    1       -0.115  -2.795   0.394  0.00  0.00    -0.640 N 
ATOM      8  H   LIG    1        0.728  -2.329   0.275  0.00  0.00    +0.420 HD
ATOM      9  C   LIG    1       -0.148  -4.142   0.374  0.00  0.00    +0.540 C 
ATOM     10  O   LIG    1       -1.214  -4.724   0.428  0.00  0.00    -0.490 OA
BRANCH   7  17
ATOM     11  C   LIG    1       -1.392  -0.756   0.130  0.00  0.00    +0.110 A 
ATOM     12  C   LIG    1       -2.564  -0.043   0.319  0.00  0.00    -0.040 A 
ATOM     13  C   LIG    1       -3.635  -0.632   0.966  0.00  0.00    +0.060 A 
ATOM     14  C   LIG    1       -3.539  -1.933   1.427  0.00  0.00    -0.050 A 
ATOM     15  C   LIG    1       -2.371  -2.650   1.243  0.00  0.00    +0.080 A 
ATOM     16 CL   LIG    1       -4.887  -2.665   2.239  0.00  0.00    -0.060 Cl
ATOM     17  C   LIG    1       -1.296  -2.068   0.589  0.00  0.00    +0.130 A 
BRANCH  11  19
ATOM     18  C   LIG    1       -0.510   1.168  -0.956  0.00  0.00    +0.250 C 
ATOM     19  O   LIG    1       -0.338  -0.178  -0.507  0.00  0.00    -0.320 OA
ENDBRANCH  11  19
ENDBRANCH   7  17
ENDBRANCH   1   9
BRANCH   6  20
ATOM     20  S   LIG    1       -0.470  -7.135   0.021  0.00  0.00    +2.700 S 
ATOM     21  O   LIG    1       -1.206  -6.496  -1.013  0.00  0.00    -0.930 OA
ATOM     22  O   LIG    1       -0.949  -7.258   1.354  0.00  0.00    -0.940 OA
BRANCH  20  23
ATOM     23  N   LIG    1       -0.160  -8.674  -0.507  0.00  0.00    -1.010 NA
ATOM     24  C   LIG    1       -0.034  -8.961  -1.943  0.00  0.00    +0.290 C 
ATOM     25  C   LIG    1        1.304  -9.677  -2.182  0.00  0.00    +0.010 C 
ATOM     26  C   LIG    1        1.381 -10.914  -1.285  0.00  0.00    +0.020 C 
ATOM     27  C   LIG    1        1.320 -10.487   0.183  0.00  0.00    -0.000 C 
ATOM     28  C   LIG    1       -0.013  -9.779   0.449  0.00  0.00    +0.290 C 
ENDBRANCH  20  23
ENDBRANCH   6  20
TORSDOF 5
