REMARK  Name = ZINCrD000000C2nK.0
REMARK                            x       y       z     vdW  Elec       q    Type
REMARK                         _______ _______ _______ _____ _____    ______ ____
ROOT
ATOM      1  O   LIG    1       -3.085   4.740  -4.827  0.00  0.00    -0.570 OA
ATOM      2  C   LIG    1       -3.527   3.845  -4.133  0.00  0.00    +0.710 C 
ATOM      3  N   LIG    1       -2.711   3.173  -3.297  0.00  0.00    -0.620 N 
ATOM      4  C   LIG    1       -3.250   2.164  -2.375  0.00  0.00    +0.290 C 
ATOM      5  C   LIG    1       -2.488   0.851  -2.581  0.00  0.00    +0.040 C 
ATOM      6  C   LIG    1       -0.987   1.108  -2.432  0.00  0.00    +0.260 C 
ATOM      7  O   LIG    1       -0.715   1.625  -1.123  0.00  0.00    -0.370 OA
ATOM      8  C   LIG    1        0.193   0.706  -0.480  0.00  0.00    +0.200 C 
ATOM      9  C   LIG    1        0.837  -0.047  -1.670  0.00  0.00    +0.200 C 
ATOM     10  C   LIG    1       -0.522   2.112  -3.488  0.00  0.00    +0.030 C 
ATOM     11  O   LIG    1       -0.272  -0.128  -2.601  0.00  0.00    -0.370 OA
ATOM     12  C   LIG    1       -1.266   3.437  -3.290  0.00  0.00    +0.320 C 
ATOM     13  N   LIG    1       -4.835   3.523  -4.201  0.00  0.00    -0.680 N 
ATOM     14  H   LIG    1       -5.201   2.854  -3.602  0.00  0.00    +0.410 HD
ENDROOT
BRANCH  13  15
ATOM     15  C   LIG    1       -5.664   4.156  -5.137  0.00  0.00    +0.080 A 
ATOM     16  C   LIG    1       -5.465   5.495  -5.465  0.00  0.00    +0.120 A 
ATOM     17  C   LIG    1       -6.304   6.077  -6.398  0.00  0.00    -0.010 A 
ATOM     18  C   LIG    1       -7.318   5.316  -6.965  0.00  0.00    +0.300 A 
ATOM     19  N   LIG    1       -7.482   4.048  -6.627  0.00  0.00    -0.510 NA
ATOM     20  C   LIG    1       -6.697   3.458  -5.745  0.00  0.00    +0.280 A 
BRANCH  18  21
ATOM     21  O   LIG    1       -8.150   5.879  -7.877  0.00  0.00    -0.250 OA
BRANCH  21  22
ATOM     22  C   LIG    1       -9.065   5.080  -8.486  0.00  0.00    +0.130 A 
ATOM     23  C   LIG    1       -8.865   4.668  -9.796  0.00  0.00    +0.010 A 
ATOM     24  C   LIG    1       -9.792   3.850 -10.412  0.00  0.00    +0.060 A 
ATOM     25  C   LIG    1      -10.926   3.451  -9.730  0.00  0.00    -0.010 A 
ATOM     26  C   LIG    1      -11.132   3.865  -8.424  0.00  0.00    +0.110 A 
ATOM     27  F   LIG    1      -12.240   3.474  -7.758  0.00  0.00    -0.130 F 
ATOM     28  C   LIG    1      -10.203   4.679  -7.801  0.00  0.00    -0.010 A 
ENDBRANCH  21  22
ENDBRANCH  18  21
ENDBRANCH  13  15
TORSDOF 3
