REMARK  Name = ZINCpk00000e9CUg.1
REMARK                            x       y       z     vdW  Elec       q    Type
REMARK                         _______ _______ _______ _____ _____    ______ ____
ROOT
ATOM      1  N   LIG    1        4.818   6.687   3.196  0.00  0.00    -0.520 NA
ATOM      2  C   LIG    1        5.437   7.628   2.254  0.00  0.00    +0.170 C 
ATOM      3  C   LIG    1        5.652   6.937   0.906  0.00  0.00    +0.020 C 
ATOM      4  C   LIG    1        4.303   6.456   0.364  0.00  0.00    -0.010 C 
ATOM      5  C   LIG    1        3.658   5.515   1.385  0.00  0.00    +0.180 C 
ATOM      6  C   LIG    1        3.501   6.247   2.720  0.00  0.00    +0.190 C 
ENDROOT
BRANCH   5   7
ATOM      7  N   LIG    1        2.337   5.094   0.898  0.00  0.00    -0.650 NA
ATOM      8  H   LIG    1        1.859   5.858   0.444  0.00  0.00    +0.350 HD
BRANCH   7   9
ATOM      9  C   LIG    1        2.451   3.937   0.000  0.00  0.00    +0.220 C 
BRANCH   9  10
ATOM     10  C   LIG    1        1.156   3.165   0.008  0.00  0.00    -0.080 A 
ATOM     11  C   LIG    1        1.175   1.783   0.000  0.00  0.00    +0.010 A 
ATOM     12  C   LIG    1       -0.013   1.076   0.008  0.00  0.00    +0.000 A 
ATOM     13  C   LIG    1       -1.219   1.751   0.017  0.00  0.00    +0.000 A 
ATOM     14  C   LIG    1       -1.238   3.133   0.029  0.00  0.00    +0.000 A 
ATOM     15  C   LIG    1       -0.050   3.840   0.022  0.00  0.00    +0.030 A 
ENDBRANCH   9  10
BRANCH   9  16
ATOM     16  C   LIG    1        2.744   4.413  -1.399  0.00  0.00    +0.490 C 
ATOM     17  O   LIG    1        2.847   5.600  -1.626  0.00  0.00    -0.530 OA
ATOM     18  N   LIG    1        2.890   3.521  -2.398  0.00  0.00    -0.850 N 
ATOM     19  H   LIG    1        3.079   3.827  -3.299  0.00  0.00    +0.400 HD
ATOM     20  H   LIG    1        2.808   2.571  -2.216  0.00  0.00    +0.400 HD
ENDBRANCH   9  16
ENDBRANCH   7   9
ENDBRANCH   5   7
BRANCH   1  21
ATOM     21  C   LIG    1        4.723   7.272   4.540  0.00  0.00    +0.370 C 
BRANCH  21  24
ATOM     22  C   LIG    1        2.950  10.380   4.348  0.00  0.00    +0.180 A 
ATOM     23  N   LIG    1        4.080   9.720   4.273  0.00  0.00    -0.480 NA
ATOM     24  C   LIG    1        3.766   8.435   4.515  0.00  0.00    +0.130 A 
ATOM     25  N   LIG    1        2.485   8.382   4.729  0.00  0.00    -0.370 NA
ATOM     26  O   LIG    1        1.998   9.489   4.638  0.00  0.00    +0.080 OA
BRANCH  22  28
ATOM     27  C   LIG    1        2.472  12.149   2.677  0.00  0.00    +0.050 C 
ATOM     28  C   LIG    1        2.761  11.863   4.152  0.00  0.00    +0.180 C 
ENDBRANCH  22  28
ENDBRANCH  21  24
ENDBRANCH   1  21
TORSDOF 7
