REMARK  Name = ZINCvU000000042e.0
REMARK                            x       y       z     vdW  Elec       q    Type
REMARK                         _______ _______ _______ _____ _____    ______ ____
ROOT
ATOM      1  O   LIG    1        1.440   5.546  -1.179  0.00  0.00    -0.500 OA
ATOM      2  C   LIG    1        2.433   5.074  -0.664  0.00  0.00    +0.540 C 
ATOM      3  N   LIG    1        2.355   3.904   0.000  0.00  0.00    -0.650 N 
ATOM      4  H   LIG    1        3.133   3.558   0.466  0.00  0.00    +0.420 HD
ENDROOT
BRANCH   3   5
ATOM      5  C   LIG    1        1.152   3.186   0.018  0.00  0.00    +0.170 A 
ATOM      6  C   LIG    1       -0.059   3.860   0.036  0.00  0.00    +0.090 A 
ATOM      7  C   LIG    1       -1.246   3.150   0.052  0.00  0.00    -0.170 A 
ATOM      8  C   LIG    1       -1.229   1.768   0.046  0.00  0.00    +0.070 A 
ATOM      9  C   LIG    1       -0.026   1.087   0.034  0.00  0.00    +0.010 A 
ATOM     10  C   LIG    1        1.169   1.791   0.017  0.00  0.00    +0.100 A 
BRANCH  10  11
ATOM     11  N   LIG    1        2.388   1.105  -0.002  0.00  0.00    -0.510 N 
ATOM     12  C   LIG    1        2.535   0.328  -1.239  0.00  0.00    +0.180 C 
ATOM     13  C   LIG    1        3.934  -0.291  -1.291  0.00  0.00    +0.020 C 
ATOM     14  C   LIG    1        4.133  -1.195  -0.071  0.00  0.00    +0.010 C 
ATOM     15  C   LIG    1        3.926  -0.372   1.203  0.00  0.00    +0.020 C 
ATOM     16  C   LIG    1        2.527   0.248   1.183  0.00  0.00    +0.180 C 
ENDBRANCH  10  11
BRANCH   7  17
ATOM     17  C   LIG    1       -2.561   3.885   0.071  0.00  0.00    +0.510 C 
ATOM     18  F   LIG    1       -2.402   5.109   0.729  0.00  0.00    -0.170 F 
ATOM     19  F   LIG    1       -3.516   3.115   0.744  0.00  0.00    -0.180 F 
ATOM     20  F   LIG    1       -2.987   4.113  -1.242  0.00  0.00    -0.170 F 
ENDBRANCH   7  17
ENDBRANCH   3   5
BRANCH   2  21
ATOM     21  C   LIG    1        3.751   5.796  -0.768  0.00  0.00    +0.110 C 
BRANCH  21  22
ATOM     22  S   LIG    1        3.530   7.324  -1.713  0.00  0.00    +0.170 S 
BRANCH  22  23
ATOM     23  C   LIG    1        5.178   7.946  -1.679  0.00  0.00    +0.120 A 
ATOM     24  N   LIG    1        6.209   7.382  -1.095  0.00  0.00    -0.280 NA
ATOM     25  N   LIG    1        7.255   8.109  -1.273  0.00  0.00    -0.240 NA
ATOM     26  C   LIG    1        6.931   9.173  -1.972  0.00  0.00    +0.250 A 
ATOM     27  O   LIG    1        5.609   9.091  -2.244  0.00  0.00    -0.190 OA
BRANCH  26  28
ATOM     28  C   LIG    1        7.839  10.254  -2.384  0.00  0.00    +0.030 A 
ATOM     29  C   LIG    1        9.172  10.329  -2.106  0.00  0.00    +0.060 A 
ATOM     30  C   LIG    1        9.640  11.522  -2.690  0.00  0.00    -0.050 A 
ATOM     31  C   LIG    1        8.585  12.111  -3.288  0.00  0.00    +0.230 A 
ATOM     32  O   LIG    1        7.500  11.340  -3.106  0.00  0.00    -0.160 OA
ENDBRANCH  26  28
ENDBRANCH  22  23
ENDBRANCH  21  22
ENDBRANCH   2  21
TORSDOF 7
