REMARK  Name = ZINCvU0000000DQf.0
REMARK                            x       y       z     vdW  Elec       q    Type
REMARK                         _______ _______ _______ _____ _____    ______ ____
ROOT
ATOM      1  N   LIG    1        0.554  -4.911  -1.086  0.00  0.00    -0.540 N 
ATOM      2  C   LIG    1       -0.167  -4.251  -0.158  0.00  0.00    +0.570 C 
ATOM      3  O   LIG    1       -0.605  -4.846   0.808  0.00  0.00    -0.490 OA
ENDROOT
BRANCH   1   8
ATOM      4  C   LIG    1        1.068 -10.553  -0.794  0.00  0.00    +0.100 C 
ATOM      5  C   LIG    1        0.931  -9.054  -0.872  0.00  0.00    -0.100 A 
ATOM      6  C   LIG    1        0.316  -8.363   0.156  0.00  0.00    +0.030 A 
ATOM      7  C   LIG    1        0.190  -6.989   0.088  0.00  0.00    +0.020 A 
ATOM      8  C   LIG    1        0.681  -6.302  -1.014  0.00  0.00    +0.140 A 
ATOM      9  C   LIG    1        1.294  -7.000  -2.047  0.00  0.00    -0.020 A 
ATOM     10  C   LIG    1        1.422  -8.373  -1.970  0.00  0.00    +0.030 A 
ENDBRANCH   1   8
BRANCH   2  11
ATOM     11  C   LIG    1       -0.425  -2.808  -0.314  0.00  0.00    -0.140 A 
ATOM     12  C   LIG    1        0.531  -1.987  -0.921  0.00  0.00    +0.120 A 
ATOM     13  C   LIG    1        0.287  -0.640  -1.064  0.00  0.00    +0.000 A 
ATOM     14  C   LIG    1       -0.909  -0.095  -0.607  0.00  0.00    +0.190 A 
ATOM     15  C   LIG    1       -1.861  -0.908   0.002  0.00  0.00    -0.030 A 
ATOM     16  C   LIG    1       -1.625  -2.257   0.144  0.00  0.00    +0.180 A 
BRANCH  14  17
ATOM     17  N   LIG    1       -1.152   1.267  -0.753  0.00  0.00    -0.500 N 
ATOM     18  C   LIG    1       -1.230   1.638  -2.172  0.00  0.00    +0.180 C 
ATOM     19  C   LIG    1       -1.640   3.107  -2.294  0.00  0.00    +0.030 C 
ATOM     20  C   LIG    1       -0.610   3.982  -1.574  0.00  0.00    +0.010 C 
ATOM     21  C   LIG    1       -0.514   3.543  -0.110  0.00  0.00    +0.030 C 
ATOM     22  C   LIG    1       -0.136   2.061  -0.051  0.00  0.00    +0.180 C 
ENDBRANCH  14  17
BRANCH  15  23
ATOM     23  N   LIG    1       -3.129  -0.324   0.493  0.00  0.00    +0.030 N 
ATOM     24  O   LIG    1       -3.340   0.869   0.364  0.00  0.00    -0.090 OA
ATOM     25  O   LIG    1       -3.962  -1.035   1.026  0.00  0.00    -0.190 OA
ENDBRANCH  15  23
ENDBRANCH   2  11
BRANCH   1  26
ATOM     26  C   LIG    1        1.204  -4.172  -2.171  0.00  0.00    +0.400 C 
BRANCH  26  27
ATOM     27  C   LIG    1        2.688  -4.108  -1.916  0.00  0.00    -0.060 A 
ATOM     28  C   LIG    1        3.597  -5.008  -2.332  0.00  0.00    -0.020 A 
ATOM     29  C   LIG    1        4.858  -4.558  -1.878  0.00  0.00    -0.060 A 
ATOM     30  C   LIG    1        4.643  -3.414  -1.204  0.00  0.00    +0.190 A 
ATOM     31  O   LIG    1        3.327  -3.146  -1.230  0.00  0.00    -0.180 OA
ENDBRANCH  26  27
ENDBRANCH   1  26
TORSDOF 6
