REMARK  Name = ZINCvU0000000CBt.0
REMARK                            x       y       z     vdW  Elec       q    Type
REMARK                         _______ _______ _______ _____ _____    ______ ____
ROOT
ATOM      1  N   LIG    1       -0.586   1.024   1.099  0.00  0.00    -0.720 N 
ATOM      2  H   LIG    1       -0.710   0.062   1.102  0.00  0.00    +0.400 HD
ATOM      3  C   LIG    1        0.641   1.544   0.894  0.00  0.00    +0.560 C 
ATOM      4  O   LIG    1        0.797   2.750   0.889  0.00  0.00    -0.510 OA
ENDROOT
BRANCH   3   5
ATOM      5  C   LIG    1        1.795   0.650   0.675  0.00  0.00    -0.120 A 
ATOM      6  C   LIG    1        1.873  -0.572   1.344  0.00  0.00    +0.040 A 
ATOM      7  C   LIG    1        2.951  -1.406   1.133  0.00  0.00    +0.010 A 
ATOM      8  C   LIG    1        3.966  -1.033   0.267  0.00  0.00    +0.040 A 
ATOM      9  C   LIG    1        3.909   0.174  -0.400  0.00  0.00    +0.020 A 
ATOM     10  C   LIG    1        2.826   1.027  -0.204  0.00  0.00    -0.010 A 
BRANCH  10  11
ATOM     11  C   LIG    1        2.761   2.325  -0.916  0.00  0.00    -0.000 A 
ATOM     12  C   LIG    1        1.665   2.625  -1.724  0.00  0.00    +0.040 A 
ATOM     13  C   LIG    1        1.607   3.837  -2.381  0.00  0.00    +0.080 A 
ATOM     14  C   LIG    1        2.639   4.749  -2.249  0.00  0.00    -0.180 A 
ATOM     15  C   LIG    1        3.732   4.454  -1.453  0.00  0.00    +0.070 A 
ATOM     16  C   LIG    1        3.798   3.248  -0.786  0.00  0.00    +0.040 A 
BRANCH  14  17
ATOM     17  C   LIG    1        2.573   6.068  -2.974  0.00  0.00    +0.510 C 
ATOM     18  F   LIG    1        3.259   7.040  -2.238  0.00  0.00    -0.180 F 
ATOM     19  F   LIG    1        1.236   6.452  -3.122  0.00  0.00    -0.180 F 
ATOM     20  F   LIG    1        3.163   5.936  -4.236  0.00  0.00    -0.180 F 
ENDBRANCH  14  17
ENDBRANCH  10  11
ENDBRANCH   3   5
BRANCH   1  21
ATOM     21  C   LIG    1       -1.732   1.911   1.309  0.00  0.00    +0.290 C 
ATOM     22  C   LIG    1       -2.296   2.346  -0.045  0.00  0.00    +0.040 C 
BRANCH  21  27
ATOM     23  C   LIG    1       -4.486   1.165   3.788  0.00  0.00    +0.150 A 
ATOM     24  C   LIG    1       -4.752  -0.169   3.508  0.00  0.00    -0.010 A 
ATOM     25  C   LIG    1       -4.041  -0.821   2.520  0.00  0.00    +0.030 A 
ATOM     26  C   LIG    1       -3.068  -0.146   1.806  0.00  0.00    -0.010 A 
ATOM     27  C   LIG    1       -2.797   1.181   2.086  0.00  0.00    -0.070 A 
ATOM     28  C   LIG    1       -3.504   1.839   3.073  0.00  0.00    +0.030 A 
BRANCH  23  31
ATOM     29  C   LIG    1       -6.381   3.818   5.668  0.00  0.00    +0.110 C 
ATOM     30  C   LIG    1       -5.516   3.131   4.643  0.00  0.00    +0.510 C 
ATOM     31  N   LIG    1       -5.204   1.828   4.789  0.00  0.00    -0.680 N 
ATOM     32  H   LIG    1       -5.478   1.350   5.587  0.00  0.00    +0.410 HD
ATOM     33  O   LIG    1       -5.101   3.751   3.686  0.00  0.00    -0.520 OA
ENDBRANCH  23  31
ENDBRANCH  21  27
ENDBRANCH   1  21
TORSDOF 6
