REMARK  Name = ZINCqH0000037pCk.0
REMARK                            x       y       z     vdW  Elec       q    Type
REMARK                         _______ _______ _______ _____ _____    ______ ____
ROOT
ATOM      1  C   LIG    1        2.301   0.022   0.173  0.00  0.00    +0.240 A 
ATOM      2  C   LIG    1        1.166  -0.494   0.799  0.00  0.00    -0.090 A 
ATOM      3  C   LIG    1       -0.000   0.241   0.790  0.00  0.00    +0.330 A 
ATOM      4  N   LIG    1       -0.054   1.420   0.198  0.00  0.00    -0.540 NA
ATOM      5  C   LIG    1        1.000   1.946  -0.407  0.00  0.00    +0.340 A 
ATOM      6  C   LIG    1        2.208   1.268  -0.440  0.00  0.00    -0.040 A 
ENDROOT
BRANCH   1  16
ATOM      7  C   LIG    1        8.506   1.561   1.357  0.00  0.00    +0.040 C 
ATOM      8  C   LIG    1        7.539   0.379   1.447  0.00  0.00    +0.010 C 
ATOM      9  C   LIG    1        7.085   0.003   0.019  0.00  0.00    +0.310 C 
ATOM     10  N   LIG    1        5.832  -0.719   0.093  0.00  0.00    -0.620 N 
ATOM     11  C   LIG    1        5.811  -2.181   0.029  0.00  0.00    +0.300 C 
ATOM     12  C   LIG    1        6.902  -2.883   0.856  0.00  0.00    -0.240 C 
ATOM     13  S   LIG    1        7.083  -2.118   2.474  0.00  0.00    +1.240 S 
ATOM     14  O   LIG    1        7.715  -3.030   3.361  0.00  0.00    -0.850 OA
ATOM     15  C   LIG    1        4.676  -0.038   0.217  0.00  0.00    +0.710 C 
ATOM     16  N   LIG    1        3.499  -0.693   0.162  0.00  0.00    -0.680 N 
ATOM     17  H   LIG    1        3.485  -1.662   0.114  0.00  0.00    +0.410 HD
ATOM     18  O   LIG    1        4.694   1.167   0.380  0.00  0.00    -0.550 OA
ATOM     19  C   LIG    1        8.200  -0.715   2.150  0.00  0.00    -0.230 C 
ENDBRANCH   1  16
BRANCH   5  20
ATOM     20  O   LIG    1        0.895   3.161  -1.001  0.00  0.00    -0.240 OA
BRANCH  20  21
ATOM     21  C   LIG    1       -0.330   3.750  -1.040  0.00  0.00    +0.110 A 
ATOM     22  C   LIG    1       -1.157   3.559  -2.136  0.00  0.00    +0.030 A 
ATOM     23  C   LIG    1       -2.405   4.153  -2.170  0.00  0.00    +0.040 A 
ATOM     24  C   LIG    1       -2.823   4.947  -1.118  0.00  0.00    +0.040 A 
ATOM     25  C   LIG    1       -1.998   5.144  -0.026  0.00  0.00    +0.040 A 
ATOM     26  C   LIG    1       -0.752   4.547   0.016  0.00  0.00    -0.030 A 
ATOM     27 CL   LIG    1        0.284   4.793   1.388  0.00  0.00    -0.050 Cl
ENDBRANCH  20  21
ENDBRANCH   5  20
TORSDOF 3
