REMARK  Name = ZINCrg00000bL7zh.0
REMARK                            x       y       z     vdW  Elec       q    Type
REMARK                         _______ _______ _______ _____ _____    ______ ____
ROOT
ATOM      1  C   LIG    1       -2.569   1.912   0.023  0.00  0.00    +0.620 C 
ATOM      2  N   LIG    1       -3.555   2.831   0.032  0.00  0.00    -0.610 N 
ATOM      3  C   LIG    1       -3.367   4.289   0.038  0.00  0.00    +0.260 C 
ATOM      4  C   LIG    1       -4.769   4.931   0.074  0.00  0.00    +0.060 C 
ATOM      5  C   LIG    1       -5.656   3.799   0.657  0.00  0.00    +0.160 C 
ATOM      6  C   LIG    1       -7.107   3.946   0.195  0.00  0.00    +0.060 C 
ATOM      7  C   LIG    1       -5.000   2.540   0.031  0.00  0.00    +0.270 C 
ATOM      8  O   LIG    1       -2.842   0.727   0.018  0.00  0.00    -0.530 OA
ENDROOT
BRANCH   1  15
ATOM      9  C   LIG    1        0.002  -0.004   0.002  0.00  0.00    +0.130 C 
ATOM     10  C   LIG    1       -0.018   1.503   0.010  0.00  0.00    -0.140 A 
ATOM     11  C   LIG    1        1.048   2.337   0.005  0.00  0.00    +0.160 A 
ATOM     12  N   LIG    1        0.569   3.599   0.015  0.00  0.00    -0.280 N 
ATOM     13  N   LIG    1       -0.716   3.586   0.027  0.00  0.00    -0.260 NA
ATOM     14  C   LIG    1        1.394   4.809   0.013  0.00  0.00    +0.380 C 
ATOM     15  C   LIG    1       -1.156   2.344   0.019  0.00  0.00    -0.020 A 
ENDBRANCH   1  15
BRANCH   5  16
ATOM     16  N   LIG    1       -5.573   3.767   2.119  0.00  0.00    -0.690 N 
ATOM     17  H   LIG    1       -5.013   4.407   2.587  0.00  0.00    +0.410 HD
ATOM     18  C   LIG    1       -6.274   2.850   2.814  0.00  0.00    +0.580 C 
ATOM     19  O   LIG    1       -6.975   2.049   2.228  0.00  0.00    -0.510 OA
BRANCH  18  20
ATOM     20  C   LIG    1       -6.190   2.818   4.293  0.00  0.00    +0.180 A 
ATOM     21  C   LIG    1       -6.917   1.875   5.035  0.00  0.00    -0.160 A 
ATOM     22  C   LIG    1       -7.838   0.792   4.715  0.00  0.00    +0.010 A 
ATOM     23  C   LIG    1       -8.210   0.238   5.884  0.00  0.00    +0.260 A 
ATOM     24  N   LIG    1       -7.590   0.878   6.923  0.00  0.00    -0.570 N 
ATOM     25  H   LIG    1       -7.704   0.655   7.860  0.00  0.00    +0.430 HD
ATOM     26  C   LIG    1       -6.797   1.886   6.446  0.00  0.00    +0.320 A 
ATOM     27  N   LIG    1       -6.010   2.793   7.007  0.00  0.00    -0.510 NA
ATOM     28  C   LIG    1       -5.350   3.663   6.268  0.00  0.00    +0.520 A 
ATOM     29  N   LIG    1       -5.427   3.688   4.953  0.00  0.00    -0.510 NA
ENDBRANCH  18  20
ENDBRANCH   5  16
TORSDOF 3
