REMARK  Name = ZINCqH0000008fAx.0
REMARK                            x       y       z     vdW  Elec       q    Type
REMARK                         _______ _______ _______ _____ _____    ______ ____
ROOT
ATOM      1  N   LIG    1        7.423   4.708  -4.016  0.00  0.00    -0.730 N 
ATOM      2  H   LIG    1        8.290   4.740  -3.584  0.00  0.00    +0.400 HD
ATOM      3  C   LIG    1        6.403   4.045  -3.435  0.00  0.00    +0.720 C 
ATOM      4  N   LIG    1        6.589   3.426  -2.253  0.00  0.00    -0.640 N 
ATOM      5  H   LIG    1        7.457   3.457  -1.820  0.00  0.00    +0.420 HD
ATOM      6  O   LIG    1        5.316   4.006  -3.977  0.00  0.00    -0.560 OA
ENDROOT
BRANCH   4   7
ATOM      7  C   LIG    1        5.535   2.740  -1.651  0.00  0.00    +0.260 A 
ATOM      8  N   LIG    1        5.564   2.095  -0.514  0.00  0.00    -0.390 NA
ATOM      9  O   LIG    1        4.491   1.601  -0.257  0.00  0.00    +0.100 OA
ATOM     10  C   LIG    1        3.585   1.858  -1.211  0.00  0.00    -0.010 A 
ATOM     11  C   LIG    1        4.214   2.597  -2.154  0.00  0.00    -0.030 A 
BRANCH  10  12
ATOM     12  C   LIG    1        2.147   1.406  -1.233  0.00  0.00    +0.100 C 
ATOM     13  C   LIG    1        1.419   1.953  -0.001  0.00  0.00    +0.010 C 
ATOM     14  C   LIG    1       -0.017   1.425   0.010  0.00  0.00    +0.210 C 
ATOM     15  O   LIG    1        0.002  -0.004   0.002  0.00  0.00    -0.380 OA
ATOM     16  C   LIG    1        0.628  -0.573  -1.150  0.00  0.00    +0.210 C 
ATOM     17  C   LIG    1        2.091  -0.124  -1.207  0.00  0.00    +0.010 C 
ENDBRANCH  10  12
ENDBRANCH   4   7
BRANCH   1  18
ATOM     18  C   LIG    1        7.220   5.382  -5.302  0.00  0.00    +0.300 C 
BRANCH  18  20
ATOM     19  C   LIG    1        8.880   7.165  -4.749  0.00  0.00    +0.040 C 
ATOM     20  C   LIG    1        8.524   6.053  -5.737  0.00  0.00    +0.040 C 
BRANCH  20  21
ATOM     21  C   LIG    1        8.352   6.640  -7.114  0.00  0.00    -0.020 A 
ATOM     22  C   LIG    1        7.385   7.602  -7.338  0.00  0.00    -0.020 A 
ATOM     23  C   LIG    1        7.229   8.146  -8.602  0.00  0.00    +0.140 A 
ATOM     24  C   LIG    1        8.035   7.719  -9.643  0.00  0.00    -0.040 A 
ATOM     25  C   LIG    1        9.000   6.752  -9.418  0.00  0.00    +0.140 A 
ATOM     26  F   LIG    1        9.788   6.335 -10.434  0.00  0.00    -0.130 F 
ATOM     27  F   LIG    1        6.287   9.089  -8.820  0.00  0.00    -0.130 F 
ATOM     28  C   LIG    1        9.157   6.213  -8.153  0.00  0.00    -0.020 A 
ENDBRANCH  20  21
ENDBRANCH  18  20
ENDBRANCH   1  18
TORSDOF 5
