REMARK  Name = ZINCAx0000000hpe.0
REMARK                            x       y       z     vdW  Elec       q    Type
REMARK                         _______ _______ _______ _____ _____    ______ ____
ROOT
ATOM      1  C   LIG    1        9.543   4.868   0.351  0.00  0.00    +0.190 A 
ATOM      2  N   LIG    1        8.638   5.815   0.434  0.00  0.00    -0.250 NA
ATOM      3  N   LIG    1        7.470   5.295   0.567  0.00  0.00    -0.290 NA
ATOM      4  C   LIG    1        7.559   3.983   0.577  0.00  0.00    +0.180 A 
ATOM      5  N   LIG    1        8.881   3.666   0.446  0.00  0.00    -0.300 N 
ENDROOT
BRANCH   1  10
ATOM      6  C   LIG    1       12.941   6.468   0.315  0.00  0.00    -0.670 A 
ATOM      7  C   LIG    1       13.731   5.414  -0.107  0.00  0.00    +0.150 A 
ATOM      8  C   LIG    1       13.162   4.182  -0.380  0.00  0.00    +0.020 A 
ATOM      9  C   LIG    1       11.803   3.998  -0.233  0.00  0.00    +0.050 A 
ATOM     10  C   LIG    1       11.001   5.058   0.192  0.00  0.00    -0.040 A 
ATOM     11  C   LIG    1       11.579   6.299   0.461  0.00  0.00    +0.190 A 
BRANCH   6  12
ATOM     12  S   LIG    1       13.674   8.033   0.660  0.00  0.00    +2.690 S 
ATOM     13  O   LIG    1       15.040   7.779   0.957  0.00  0.00    -0.950 OA
ATOM     14  O   LIG    1       12.795   8.699   1.555  0.00  0.00    -0.940 OA
BRANCH  12  15
ATOM     15  N   LIG    1       13.656   8.904  -0.748  0.00  0.00    -0.990 NA
BRANCH  15  17
ATOM     16  C   LIG    1       12.796  11.189  -0.613  0.00  0.00    +0.020 C 
ATOM     17  C   LIG    1       12.509   9.757  -1.067  0.00  0.00    +0.280 C 
ENDBRANCH  15  17
BRANCH  15  18
ATOM     18  C   LIG    1       14.788   8.822  -1.675  0.00  0.00    +0.300 C 
ATOM     19  C   LIG    1       14.494   7.772  -2.748  0.00  0.00    +0.000 C 
ENDBRANCH  15  18
ENDBRANCH  12  15
ENDBRANCH   6  12
ENDBRANCH   1  10
BRANCH   5  20
ATOM     20  N   LIG    1        9.430   2.416   0.414  0.00  0.00    -0.580 N 
ATOM     21  H   LIG    1       10.298   2.389   0.928  0.00  0.00    +0.380 HD
ATOM     22  H   LIG    1        9.563   2.104  -0.536  0.00  0.00    +0.370 HD
ENDBRANCH   5  20
BRANCH   4  23
ATOM     23  S   LIG    1        6.222   2.846   0.737  0.00  0.00    +0.130 S 
BRANCH  23  24
ATOM     24  C   LIG    1        4.838   4.005   0.867  0.00  0.00    +0.110 C 
BRANCH  24  25
ATOM     25  C   LIG    1        3.551   3.236   1.016  0.00  0.00    +0.540 C 
ATOM     26  N   LIG    1        2.381   3.895   1.131  0.00  0.00    -0.660 N 
ATOM     27  H   LIG    1        2.357   4.861   1.042  0.00  0.00    +0.420 HD
ATOM     28  O   LIG    1        3.568   2.023   1.034  0.00  0.00    -0.500 OA
BRANCH  26  29
ATOM     29  C   LIG    1        1.199   3.186   1.380  0.00  0.00    +0.170 A 
ATOM     30  C   LIG    1        1.230   2.034   2.155  0.00  0.00    +0.060 A 
ATOM     31  C   LIG    1        0.064   1.333   2.401  0.00  0.00    +0.090 A 
ATOM     32  C   LIG    1       -1.137   1.774   1.870  0.00  0.00    +0.010 A 
ATOM     33  O   LIG    1       -2.404   1.270   1.959  0.00  0.00    -0.280 OA
ATOM     34  C   LIG    1       -3.142   1.897   0.893  0.00  0.00    +0.570 C 
ATOM     35  O   LIG    1       -2.460   3.155   0.703  0.00  0.00    -0.280 OA
ATOM     36  F   LIG    1       -4.470   2.114   1.276  0.00  0.00    -0.110 F 
ATOM     37  F   LIG    1       -3.087   1.117  -0.267  0.00  0.00    -0.150 F 
ATOM     38  C   LIG    1       -1.172   2.933   1.097  0.00  0.00    +0.050 A 
ATOM     39  C   LIG    1       -0.004   3.634   0.851  0.00  0.00    +0.040 A 
ENDBRANCH  26  29
ENDBRANCH  24  25
ENDBRANCH  23  24
ENDBRANCH   4  23
TORSDOF 10
