REMARK  Name = ZINCrD000000AjNc.0
REMARK                            x       y       z     vdW  Elec       q    Type
REMARK                         _______ _______ _______ _____ _____    ______ ____
ROOT
ATOM      1  O   LIG    1       -1.204   2.837   0.023  0.00  0.00    -0.540 OA
ATOM      2  C   LIG    1       -1.187   1.624   0.017  0.00  0.00    +0.520 C 
ATOM      3  N   LIG    1       -0.011   0.966   0.007  0.00  0.00    -0.510 N 
ATOM      4  H   LIG    1        0.002  -0.004   0.002  0.00  0.00    +0.430 HD
ENDROOT
BRANCH   3   5
ATOM      5  N   LIG    1        1.193   1.683  -0.000  0.00  0.00    -0.510 N 
ATOM      6  H   LIG    1        1.179   2.653   0.005  0.00  0.00    +0.440 HD
BRANCH   5   7
ATOM      7  C   LIG    1        2.403   1.006  -0.015  0.00  0.00    +0.430 A 
ATOM      8  N   LIG    1        2.403  -0.311  -0.017  0.00  0.00    -0.560 NA
ATOM      9  C   LIG    1        3.547  -1.005  -0.036  0.00  0.00    +0.180 A 
ATOM     10  C   LIG    1        3.541  -2.410  -0.043  0.00  0.00    +0.010 A 
ATOM     11  C   LIG    1        4.720  -3.091  -0.058  0.00  0.00    +0.050 A 
ATOM     12  C   LIG    1        5.938  -2.417  -0.065  0.00  0.00    -0.010 A 
ATOM     13  C   LIG    1        5.983  -1.056  -0.059  0.00  0.00    +0.050 A 
ATOM     14  C   LIG    1        4.787  -0.322  -0.044  0.00  0.00    -0.150 A 
ATOM     15  C   LIG    1        4.794   1.089  -0.037  0.00  0.00    +0.140 A 
ATOM     16  C   LIG    1        3.598   1.740  -0.023  0.00  0.00    -0.070 A 
ENDBRANCH   5   7
ENDBRANCH   3   5
BRANCH   2  17
ATOM     17  C   LIG    1       -2.482   0.853   0.018  0.00  0.00    +0.090 C 
BRANCH  17  18
ATOM     18  C   LIG    1       -3.658   1.831   0.029  0.00  0.00    +0.220 C 
BRANCH  18  19
ATOM     19  C   LIG    1       -4.953   1.060   0.031  0.00  0.00    +0.160 A 
ATOM     20  N   LIG    1       -5.610   0.660   1.085  0.00  0.00    -0.270 NA
ATOM     21  N   LIG    1       -6.671   0.032   0.717  0.00  0.00    -0.270 NA
ATOM     22  C   LIG    1       -6.728   0.009  -0.594  0.00  0.00    +0.210 A 
ATOM     23  O   LIG    1       -5.643   0.664  -1.052  0.00  0.00    -0.220 OA
BRANCH  22  24
ATOM     24  C   LIG    1       -7.787  -0.616  -1.414  0.00  0.00    -0.030 A 
ATOM     25  C   LIG    1       -7.721  -0.557  -2.807  0.00  0.00    +0.050 A 
ATOM     26  C   LIG    1       -8.710  -1.147  -3.567  0.00  0.00    +0.010 A 
ATOM     27  C   LIG    1       -9.772  -1.784  -2.951  0.00  0.00    +0.040 A 
ATOM     28  C   LIG    1       -9.847  -1.840  -1.571  0.00  0.00    +0.020 A 
ATOM     29  C   LIG    1       -8.861  -1.260  -0.799  0.00  0.00    +0.070 A 
ENDBRANCH  22  24
ENDBRANCH  18  19
ENDBRANCH  17  18
ENDBRANCH   2  17
TORSDOF 6
