REMARK  Name = ZINCtV000002qzzI.0
REMARK                            x       y       z     vdW  Elec       q    Type
REMARK                         _______ _______ _______ _____ _____    ______ ____
ROOT
ATOM      1  C   LIG    1        7.912   9.819  -1.806  0.00  0.00    +0.230 A 
ATOM      2  N   LIG    1        7.715   9.650  -3.089  0.00  0.00    -0.380 NA
ATOM      3  O   LIG    1        6.851   8.820  -3.277  0.00  0.00    +0.090 OA
ATOM      4  C   LIG    1        6.387   8.368  -2.101  0.00  0.00    +0.240 A 
ATOM      5  N   LIG    1        7.061   8.998  -1.156  0.00  0.00    -0.470 NA
ENDROOT
BRANCH   1   9
ATOM      6  C   LIG    1       10.663  12.417   0.038  0.00  0.00    +0.140 A 
ATOM      7  C   LIG    1       10.612  12.389  -1.354  0.00  0.00    +0.000 A 
ATOM      8  C   LIG    1        9.721  11.540  -1.979  0.00  0.00    +0.130 A 
ATOM      9  C   LIG    1        8.890  10.743  -1.182  0.00  0.00    -0.080 A 
ATOM     10  C   LIG    1        8.998  10.827   0.203  0.00  0.00    +0.330 A 
ATOM     11  N   LIG    1        9.865  11.646   0.762  0.00  0.00    -0.480 NA
BRANCH   6  12
ATOM     12  S   LIG    1       11.803  13.491   0.845  0.00  0.00    -0.050 S 
BRANCH  12  14
ATOM     13  C   LIG    1       11.682  11.621   2.833  0.00  0.00    +0.060 C 
ATOM     14  C   LIG    1       11.427  13.107   2.573  0.00  0.00    -0.040 C 
ATOM     15  C   LIG    1        9.959  13.429   2.860  0.00  0.00    +0.060 C 
ATOM     16  C   LIG    1       12.321  13.945   3.489  0.00  0.00    +0.060 C 
ENDBRANCH  12  14
ENDBRANCH   6  12
ENDBRANCH   1   9
BRANCH   4  17
ATOM     17  C   LIG    1        5.330   7.356  -1.902  0.00  0.00    -0.080 A 
ATOM     18  C   LIG    1        4.702   6.774  -3.005  0.00  0.00    +0.120 A 
ATOM     19  C   LIG    1        3.716   5.831  -2.815  0.00  0.00    -0.010 A 
ATOM     20  C   LIG    1        3.345   5.459  -1.528  0.00  0.00    +0.170 A 
ATOM     21  C   LIG    1        3.964   6.041  -0.428  0.00  0.00    -0.080 A 
ATOM     22  C   LIG    1        4.955   6.980  -0.610  0.00  0.00    +0.130 A 
BRANCH  20  23
ATOM     23  O   LIG    1        2.372   4.530  -1.345  0.00  0.00    -0.300 OA
BRANCH  23  24
ATOM     24  C   LIG    1        2.041   4.195   0.004  0.00  0.00    +0.300 C 
BRANCH  24  25
ATOM     25  C   LIG    1        0.949   3.156   0.009  0.00  0.00    -0.200 A 
ATOM     26  C   LIG    1        1.144   1.836   0.001  0.00  0.00    +0.040 A 
ATOM     27  C   LIG    1       -0.013   1.076   0.008  0.00  0.00    +0.010 A 
ATOM     28  C   LIG    1       -1.147   1.778   0.017  0.00  0.00    -0.030 A 
ATOM     29  S   LIG    1       -0.776   3.497   0.027  0.00  0.00    +0.130 S 
ENDBRANCH  24  25
ENDBRANCH  23  24
ENDBRANCH  20  23
ENDBRANCH   4  17
TORSDOF 7
