REMARK  Name = ZINCvU0000000GHH.0
REMARK                            x       y       z     vdW  Elec       q    Type
REMARK                         _______ _______ _______ _____ _____    ______ ____
ROOT
ATOM      1  C   LIG    1        6.203  -0.075  -3.066  0.00  0.00    +0.080 C 
ENDROOT
BRANCH   1   3
ATOM      2  N   LIG    1        5.119   0.795  -1.020  0.00  0.00    -0.600 N 
ATOM      3  C   LIG    1        5.956   1.013  -2.053  0.00  0.00    +0.540 C 
ATOM      4  O   LIG    1        6.510   2.086  -2.168  0.00  0.00    -0.520 OA
ATOM      5  C   LIG    1        4.449  -0.501  -0.880  0.00  0.00    +0.300 C 
BRANCH   2   7
ATOM      6  C   LIG    1        5.302   1.365   1.352  0.00  0.00    +0.070 C 
ATOM      7  C   LIG    1        4.879   1.853  -0.035  0.00  0.00    +0.350 C 
BRANCH   7   8
ATOM      8  C   LIG    1        3.413   2.201  -0.019  0.00  0.00    +0.070 A 
ATOM      9  N   LIG    1        2.468   1.338  -0.014  0.00  0.00    -0.450 NA
ATOM     10  C   LIG    1        1.201   1.792   0.000  0.00  0.00    +0.080 A 
ATOM     11  C   LIG    1       -0.013   1.076   0.008  0.00  0.00    +0.070 A 
ATOM     12  C   LIG    1       -1.204   1.736   0.017  0.00  0.00    +0.030 A 
ATOM     13  C   LIG    1       -1.247   3.123   0.030  0.00  0.00    +0.040 A 
ATOM     14  C   LIG    1       -0.077   3.849   0.022  0.00  0.00    +0.060 A 
ATOM     15  C   LIG    1        1.151   3.191   0.008  0.00  0.00    -0.180 A 
ATOM     16  S   LIG    1        2.804   3.795  -0.005  0.00  0.00    +0.120 S 
ENDBRANCH   7   8
ENDBRANCH   2   7
ENDBRANCH   1   3
BRANCH   1  17
ATOM     17  S   LIG    1        7.367   0.521  -4.323  0.00  0.00    +0.110 S 
BRANCH  17  18
ATOM     18  C   LIG    1        7.530  -0.863  -5.401  0.00  0.00    +0.200 A 
ATOM     19  N   LIG    1        6.920  -2.018  -5.259  0.00  0.00    -0.320 NA
ATOM     20  N   LIG    1        7.332  -2.827  -6.330  0.00  0.00    -0.320 N 
ATOM     21  C   LIG    1        8.185  -2.085  -7.063  0.00  0.00    +0.330 A 
ATOM     22  N   LIG    1        8.291  -0.909  -6.499  0.00  0.00    -0.510 NA
BRANCH  20  23
ATOM     23  C   LIG    1        6.936  -4.146  -6.586  0.00  0.00    +0.140 A 
ATOM     24  C   LIG    1        6.775  -4.583  -7.894  0.00  0.00    +0.020 A 
ATOM     25  C   LIG    1        6.389  -5.886  -8.143  0.00  0.00    +0.040 A 
ATOM     26  C   LIG    1        6.152  -6.751  -7.091  0.00  0.00    +0.020 A 
ATOM     27  C   LIG    1        6.305  -6.317  -5.787  0.00  0.00    +0.030 A 
ATOM     28  C   LIG    1        6.696  -5.018  -5.532  0.00  0.00    +0.030 A 
ENDBRANCH  20  23
BRANCH  21  29
ATOM     29  C   LIG    1        8.889  -2.530  -8.319  0.00  0.00    +0.020 C 
ATOM     30  C   LIG    1        9.970  -1.608  -8.887  0.00  0.00    +0.080 C 
ATOM     31  C   LIG    1        8.621  -1.736  -9.599  0.00  0.00    +0.060 C 
ENDBRANCH  21  29
ENDBRANCH  17  18
ENDBRANCH   1  17
TORSDOF 7
