REMARK  Name = ZINCvU0000000Ghh.1
REMARK                            x       y       z     vdW  Elec       q    Type
REMARK                         _______ _______ _______ _____ _____    ______ ____
ROOT
ATOM      1  C   LIG    1       -2.395   4.188  -0.315  0.00  0.00    +0.600 C 
ATOM      2  N   LIG    1       -1.951   5.452  -0.173  0.00  0.00    -0.720 N 
ATOM      3  H   LIG    1       -0.999   5.630  -0.123  0.00  0.00    +0.410 HD
ATOM      4  O   LIG    1       -3.591   3.966  -0.377  0.00  0.00    -0.530 OA
ENDROOT
BRANCH   1   7
ATOM      5  C   LIG    1       -3.191   1.273  -0.649  0.00  0.00    +0.120 C 
ATOM      6  C   LIG    1       -1.770   1.764  -0.544  0.00  0.00    +0.010 A 
ATOM      7  C   LIG    1       -1.442   3.083  -0.394  0.00  0.00    -0.340 A 
ATOM      8  S   LIG    1        0.307   3.244  -0.318  0.00  0.00    +0.320 S 
ATOM      9  C   LIG    1        0.518   1.558  -0.481  0.00  0.00    +0.020 A 
ATOM     10  C   LIG    1       -0.682   0.931  -0.585  0.00  0.00    -0.050 A 
BRANCH   9  11
ATOM     11  N   LIG    1        1.748   0.916  -0.504  0.00  0.00    -0.620 N 
ATOM     12  H   LIG    1        1.790  -0.049  -0.599  0.00  0.00    +0.430 HD
ATOM     13  C   LIG    1        2.885   1.632  -0.393  0.00  0.00    +0.600 C 
ATOM     14  O   LIG    1        2.832   2.842  -0.273  0.00  0.00    -0.490 OA
BRANCH  13  15
ATOM     15  C   LIG    1        4.184   0.954  -0.417  0.00  0.00    -0.090 A 
ATOM     16  C   LIG    1        5.406   1.556  -0.321  0.00  0.00    +0.070 A 
ATOM     17  C   LIG    1        6.366   0.534  -0.385  0.00  0.00    -0.070 A 
ATOM     18  C   LIG    1        5.697  -0.631  -0.526  0.00  0.00    +0.230 A 
ATOM     19  O   LIG    1        4.383  -0.375  -0.545  0.00  0.00    -0.170 OA
ENDBRANCH  13  15
ENDBRANCH   9  11
ENDBRANCH   1   7
BRANCH   2  20
ATOM     20  C   LIG    1       -2.907   6.560  -0.094  0.00  0.00    +0.280 C 
BRANCH  20  21
ATOM     21  C   LIG    1       -2.148   7.879   0.064  0.00  0.00    +0.250 C 
BRANCH  21  22
ATOM     22  N   LIG    1       -1.178   8.019  -1.030  0.00  0.00    -0.520 NA
ATOM     23  C   LIG    1       -1.781   7.656  -2.319  0.00  0.00    +0.170 C 
ATOM     24  C   LIG    1       -0.708   7.674  -3.409  0.00  0.00    +0.030 C 
ATOM     25  C   LIG    1       -0.092   9.073  -3.490  0.00  0.00    -0.020 C 
ATOM     26  C   LIG    1        0.487   9.447  -2.122  0.00  0.00    +0.030 C 
ATOM     27  C   LIG    1        1.024   9.081  -4.536  0.00  0.00    +0.010 C 
ATOM     28  C   LIG    1       -0.621   9.378  -1.069  0.00  0.00    +0.180 C 
ENDBRANCH  21  22
BRANCH  21  29
ATOM     29  C   LIG    1       -3.122   9.027   0.022  0.00  0.00    -0.210 A 
ATOM     30  C   LIG    1       -3.472   9.778   1.068  0.00  0.00    +0.020 A 
ATOM     31  C   LIG    1       -4.386  10.779   0.788  0.00  0.00    +0.000 A 
ATOM     32  C   LIG    1       -4.778  10.842  -0.485  0.00  0.00    -0.060 A 
ATOM     33  S   LIG    1       -3.967   9.588  -1.415  0.00  0.00    +0.110 S 
ENDBRANCH  21  29
ENDBRANCH  20  21
ENDBRANCH   2  20
TORSDOF 7
