REMARK  Name = ZINCpk000000mTzW.0
REMARK                            x       y       z     vdW  Elec       q    Type
REMARK                         _______ _______ _______ _____ _____    ______ ____
ROOT
ATOM      1  C   LIG    1       -2.359   8.869  -2.673  0.00  0.00    +0.170 A 
ATOM      2  N   LIG    1       -3.639   8.770  -2.469  0.00  0.00    -0.380 NA
ATOM      3  O   LIG    1       -3.928   7.634  -2.158  0.00  0.00    +0.090 OA
ATOM      4  C   LIG    1       -2.827   6.877  -2.133  0.00  0.00    +0.190 A 
ATOM      5  N   LIG    1       -1.822   7.655  -2.454  0.00  0.00    -0.460 NA
ENDROOT
BRANCH   1   6
ATOM      6  C   LIG    1       -1.613  10.115  -3.074  0.00  0.00    +0.270 C 
ATOM      7  C   LIG    1       -0.910   9.880  -4.413  0.00  0.00    +0.070 C 
ATOM      8  C   LIG    1       -0.573  10.453  -2.004  0.00  0.00    +0.070 C 
BRANCH   6  11
ATOM      9  C   LIG    1       -3.083  13.595  -3.696  0.00  0.00    +0.110 C 
ATOM     10  C   LIG    1       -2.112  12.450  -3.560  0.00  0.00    +0.520 C 
ATOM     11  N   LIG    1       -2.557  11.228  -3.207  0.00  0.00    -0.730 N 
ATOM     12  H   LIG    1       -3.502  11.085  -3.040  0.00  0.00    +0.410 HD
ATOM     13  O   LIG    1       -0.931  12.629  -3.768  0.00  0.00    -0.540 OA
ENDBRANCH   6  11
ENDBRANCH   1   6
BRANCH   4  14
ATOM     14  C   LIG    1       -2.754   5.410  -1.794  0.00  0.00    +0.190 C 
BRANCH  14  15
ATOM     15  C   LIG    1       -2.534   5.245  -0.289  0.00  0.00    +0.310 C 
BRANCH  15  16
ATOM     16  N   LIG    1       -2.463   3.820   0.041  0.00  0.00    -0.550 N 
ATOM     17  C   LIG    1       -3.583   3.134   0.347  0.00  0.00    +0.490 C 
ATOM     18  C   LIG    1       -3.487   1.677   0.722  0.00  0.00    +0.300 C 
ATOM     19  O   LIG    1       -2.396   1.072   0.021  0.00  0.00    -0.300 OA
ATOM     20  C   LIG    1       -1.219   1.752   0.017  0.00  0.00    +0.080 A 
ATOM     21  C   LIG    1       -0.013   1.076   0.008  0.00  0.00    +0.030 A 
ATOM     22  C   LIG    1        1.175   1.785   0.000  0.00  0.00    +0.030 A 
ATOM     23  C   LIG    1        1.161   3.167   0.007  0.00  0.00    +0.020 A 
ATOM     24  C   LIG    1       -0.041   3.851   0.022  0.00  0.00    +0.020 A 
ATOM     25  O   LIG    1       -4.662   3.688   0.330  0.00  0.00    -0.500 OA
ATOM     26  C   LIG    1       -1.233   3.147   0.029  0.00  0.00    +0.090 A 
ENDBRANCH  15  16
ENDBRANCH  14  15
ENDBRANCH   4  14
TORSDOF 5
