REMARK  Name = ZINCpk000000op0f.0
REMARK                            x       y       z     vdW  Elec       q    Type
REMARK                         _______ _______ _______ _____ _____    ______ ____
ROOT
ATOM      1  C   LIG    1       -3.589   1.764   0.131  0.00  0.00    +0.490 C 
ATOM      2  N   LIG    1       -2.431   1.084   0.020  0.00  0.00    -0.670 N 
ATOM      3  H   LIG    1       -2.442   0.118  -0.062  0.00  0.00    +0.410 HD
ATOM      4  O   LIG    1       -3.581   2.977   0.137  0.00  0.00    -0.480 OA
ENDROOT
BRANCH   2   5
ATOM      5  C   LIG    1       -1.210   1.773   0.023  0.00  0.00    +0.050 A 
ATOM      6  C   LIG    1       -0.133   1.300  -0.725  0.00  0.00    +0.330 A 
ATOM      7  N   LIG    1        1.023   1.925  -0.734  0.00  0.00    -0.480 NA
ATOM      8  C   LIG    1        1.221   3.037  -0.038  0.00  0.00    +0.300 A 
ATOM      9  C   LIG    1        0.178   3.579   0.739  0.00  0.00    -0.200 A 
ATOM     10  C   LIG    1        0.713   4.782   1.369  0.00  0.00    +0.110 A 
ATOM     11  N   LIG    1        1.950   4.912   0.985  0.00  0.00    -0.240 NA
ATOM     12  C   LIG    1       -0.033   5.706   2.296  0.00  0.00    +0.180 C 
ATOM     13  N   LIG    1        2.300   3.867   0.125  0.00  0.00    -0.400 N 
ATOM     14  C   LIG    1        3.611   3.686  -0.503  0.00  0.00    +0.360 C 
ATOM     15  C   LIG    1       -1.063   2.934   0.766  0.00  0.00    +0.160 A 
ENDBRANCH   2   5
BRANCH   1  20
ATOM     16  N   LIG    1       -6.007   1.972   0.355  0.00  0.00    -0.990 NA
ATOM     17  C   LIG    1       -6.712   1.733   1.627  0.00  0.00    +0.270 C 
ATOM     18  C   LIG    1       -5.660   1.057   2.542  0.00  0.00    +0.040 C 
ATOM     19  C   LIG    1       -4.896   0.163   1.531  0.00  0.00    +0.060 C 
ATOM     20  C   LIG    1       -4.893   1.018   0.246  0.00  0.00    +0.240 C 
BRANCH  16  21
ATOM     21  S   LIG    1       -6.404   3.124  -0.767  0.00  0.00    +2.620 S 
ATOM     22  O   LIG    1       -5.182   3.392  -1.441  0.00  0.00    -0.920 OA
ATOM     23  O   LIG    1       -7.063   4.133  -0.015  0.00  0.00    -0.950 OA
BRANCH  21  24
ATOM     24  C   LIG    1       -7.573   2.291  -1.876  0.00  0.00    -0.380 C 
BRANCH  24  26
ATOM     25  C   LIG    1       -9.005   2.561  -3.905  0.00  0.00    +0.030 C 
ATOM     26  C   LIG    1       -8.019   3.264  -2.970  0.00  0.00    +0.040 C 
ENDBRANCH  24  26
ENDBRANCH  21  24
ENDBRANCH  16  21
ENDBRANCH   1  20
TORSDOF 5
