REMARK  Name = ZINCkj000005bO4B.0
REMARK                            x       y       z     vdW  Elec       q    Type
REMARK                         _______ _______ _______ _____ _____    ______ ____
ROOT
ATOM      1  C   LIG    1        0.485   1.425   0.345  0.00  0.00    +0.250 C 
ATOM      2  C   LIG    1        0.560   1.575   1.868  0.00  0.00    +0.010 C 
ATOM      3  C   LIG    1        1.066   2.978   2.213  0.00  0.00    +0.040 C 
ATOM      4  C   LIG    1        2.471   3.171   1.640  0.00  0.00    +0.020 C 
ATOM      5  C   LIG    1        2.418   3.038   0.114  0.00  0.00    +0.280 C 
ATOM      6  N   LIG    1        1.799   1.751  -0.227  0.00  0.00    -0.610 N 
ATOM      7  C   LIG    1        2.423   0.885  -1.051  0.00  0.00    +0.590 C 
ATOM      8  O   LIG    1        1.914  -0.190  -1.301  0.00  0.00    -0.580 OA
ENDROOT
BRANCH   7   9
ATOM      9  C   LIG    1        3.723   1.243  -1.648  0.00  0.00    -0.270 A 
ATOM     10  C   LIG    1        4.679   0.260  -1.866  0.00  0.00    +0.250 A 
ATOM     11  C   LIG    1        5.902   0.647  -2.442  0.00  0.00    -0.290 A 
ATOM     12  C   LIG    1        7.064  -0.014  -2.807  0.00  0.00    +0.350 A 
ATOM     13  N   LIG    1        7.908   0.892  -3.311  0.00  0.00    -0.400 N 
ATOM     14  H   LIG    1        8.798   0.698  -3.644  0.00  0.00    +0.460 HD
ATOM     15  N   LIG    1        7.319   2.161  -3.288  0.00  0.00    -0.270 NA
ATOM     16  C   LIG    1        6.108   2.067  -2.773  0.00  0.00    +0.280 A 
ATOM     17  N   LIG    1        5.128   2.952  -2.522  0.00  0.00    -0.460 NA
ATOM     18  C   LIG    1        3.994   2.582  -1.991  0.00  0.00    +0.380 A 
ENDBRANCH   7   9
BRANCH   1  20
ATOM     19  C   LIG    1       -1.328  -0.292   0.420  0.00  0.00    +0.090 C 
ATOM     20  C   LIG    1        0.114  -0.016  -0.011  0.00  0.00    +0.200 C 
BRANCH  20  21
ATOM     21  N   LIG    1        1.019  -0.941   0.685  0.00  0.00    -0.620 N 
ATOM     22  H   LIG    1        1.957  -0.570   0.667  0.00  0.00    +0.420 HD
ATOM     23  H   LIG    1        1.003  -1.838   0.224  0.00  0.00    +0.440 HD
ATOM     24  H   LIG    1        0.718  -1.049   1.642  0.00  0.00    +0.420 HD
ENDBRANCH  20  21
ENDBRANCH   1  20
TORSDOF 3
