REMARK  Name = ZINCrH000004t5KH.0
REMARK                            x       y       z     vdW  Elec       q    Type
REMARK                         _______ _______ _______ _____ _____    ______ ____
ROOT
ATOM      1  N   LIG    1        4.645  -0.018  -0.932  0.00  0.00    -0.710 N 
ATOM      2  H   LIG    1        4.535   0.929  -1.112  0.00  0.00    +0.410 HD
ATOM      3  C   LIG    1        5.657  -0.700  -1.505  0.00  0.00    +0.520 C 
ATOM      4  O   LIG    1        5.794  -1.883  -1.281  0.00  0.00    -0.530 OA
ENDROOT
BRANCH   1   5
ATOM      5  C   LIG    1        3.711  -0.707  -0.038  0.00  0.00    +0.390 C 
BRANCH   5  11
ATOM      6  C   LIG    1        3.768  -3.150   1.867  0.00  0.00    +0.320 C 
ATOM      7  N   LIG    1        4.300  -1.819   2.172  0.00  0.00    -0.450 N 
ATOM      8  C   LIG    1        4.906  -1.434   3.337  0.00  0.00    +0.130 A 
ATOM      9  C   LIG    1        5.239  -0.137   3.193  0.00  0.00    +0.140 A 
ATOM     10  N   LIG    1        4.852   0.257   1.971  0.00  0.00    -0.470 NA
ATOM     11  C   LIG    1        4.284  -0.744   1.355  0.00  0.00    +0.200 A 
ENDBRANCH   5  11
BRANCH   5  12
ATOM     12  C   LIG    1        2.396   0.029  -0.022  0.00  0.00    -0.100 A 
ATOM     13  C   LIG    1        1.208  -0.679  -0.013  0.00  0.00    +0.010 A 
ATOM     14  C   LIG    1        0.002  -0.004   0.002  0.00  0.00    +0.010 A 
ATOM     15  C   LIG    1       -0.017   1.378   0.010  0.00  0.00    +0.020 A 
ATOM     16  C   LIG    1        1.171   2.086   0.002  0.00  0.00    +0.010 A 
ATOM     17  C   LIG    1        2.377   1.411  -0.015  0.00  0.00    +0.040 A 
ENDBRANCH   5  12
ENDBRANCH   1   5
BRANCH   3  18
ATOM     18  C   LIG    1        6.617   0.009  -2.425  0.00  0.00    +0.110 C 
BRANCH  18  19
ATOM     19  C   LIG    1        7.646  -0.970  -2.928  0.00  0.00    -0.070 A 
ATOM     20  C   LIG    1        8.824  -1.158  -2.230  0.00  0.00    +0.010 A 
ATOM     21  C   LIG    1        9.761  -2.058  -2.696  0.00  0.00    +0.000 A 
ATOM     22  C   LIG    1        9.534  -2.769  -3.867  0.00  0.00    -0.070 A 
ATOM     23  C   LIG    1       10.607  -3.720  -4.329  0.00  0.00    +0.070 C 
ATOM     24  C   LIG    1       10.042  -4.716  -5.341  0.00  0.00    +0.020 C 
ATOM     25  C   LIG    1        9.308  -3.930  -6.434  0.00  0.00    +0.020 C 
ATOM     26  C   LIG    1        8.040  -3.332  -5.829  0.00  0.00    +0.060 C 
ATOM     27  C   LIG    1        8.360  -2.582  -4.562  0.00  0.00    -0.070 A 
ATOM     28  C   LIG    1        7.418  -1.677  -4.090  0.00  0.00    +0.020 A 
ENDBRANCH  18  19
ENDBRANCH   3  18
TORSDOF 5
