REMARK  Name = ZINCpk00000y6ymD.0
REMARK                            x       y       z     vdW  Elec       q    Type
REMARK                         _______ _______ _______ _____ _____    ______ ____
ROOT
ATOM      1  C   LIG    1       -1.299   2.135   0.012  0.00  0.00    +0.560 C 
ATOM      2  N   LIG    1       -1.297   3.482   0.018  0.00  0.00    -0.720 N 
ATOM      3  H   LIG    1       -0.456   3.966   0.017  0.00  0.00    +0.400 HD
ATOM      4  O   LIG    1       -2.353   1.529   0.014  0.00  0.00    -0.520 OA
ENDROOT
BRANCH   1   7
ATOM      5  C   LIG    1        1.227  -0.660  -0.015  0.00  0.00    +0.360 A 
ATOM      6  C   LIG    1        0.002  -0.004  -0.002  0.00  0.00    +0.000 A 
ATOM      7  C   LIG    1       -0.017   1.392   0.004  0.00  0.00    -0.060 A 
ATOM      8  C   LIG    1        1.206   2.070  -0.004  0.00  0.00    -0.040 A 
ATOM      9  C   LIG    1        2.379   1.342  -0.017  0.00  0.00    +0.310 A 
ATOM     10  N   LIG    1        2.360   0.024  -0.022  0.00  0.00    -0.460 NA
BRANCH   5  13
ATOM     11  C   LIG    1        2.472  -4.199  -0.259  0.00  0.00    +0.110 C 
ATOM     12  C   LIG    1        2.442  -2.697  -0.138  0.00  0.00    +0.500 C 
ATOM     13  N   LIG    1        1.263  -2.054  -0.021  0.00  0.00    -0.660 N 
ATOM     14  H   LIG    1        0.440  -2.561   0.059  0.00  0.00    +0.420 HD
ATOM     15  O   LIG    1        3.478  -2.067  -0.144  0.00  0.00    -0.480 OA
ENDBRANCH   5  13
ENDBRANCH   1   7
BRANCH   2  16
ATOM     16  C   LIG    1       -2.564   4.217   0.026  0.00  0.00    +0.290 C 
BRANCH  16  17
ATOM     17  C   LIG    1       -2.282   5.721   0.031  0.00  0.00    -0.020 C 
ATOM     18  C   LIG    1       -1.583   6.104   1.337  0.00  0.00    +0.030 C 
BRANCH  17  19
ATOM     19  C   LIG    1       -3.601   6.488  -0.086  0.00  0.00    +0.290 C 
BRANCH  19  20
ATOM     20  N   LIG    1       -3.323   7.922  -0.202  0.00  0.00    -0.710 N 
ATOM     21  H   LIG    1       -2.407   8.240  -0.195  0.00  0.00    +0.410 HD
BRANCH  20  22
ATOM     22  C   LIG    1       -4.374   8.826  -0.321  0.00  0.00    +0.350 A 
ATOM     23  C   LIG    1       -5.688   8.370  -0.336  0.00  0.00    +0.210 A 
ATOM     24  N   LIG    1       -6.684   9.231  -0.444  0.00  0.00    -0.430 NA
ATOM     25  C   LIG    1       -6.431  10.526  -0.549  0.00  0.00    +0.190 A 
ATOM     26  C   LIG    1       -5.124  10.982  -0.539  0.00  0.00    +0.280 A 
ATOM     27  F   LIG    1       -7.451  11.404  -0.665  0.00  0.00    -0.110 F 
ATOM     28  N   LIG    1       -4.124  10.125  -0.425  0.00  0.00    -0.480 NA
ENDBRANCH  20  22
ENDBRANCH  19  20
ENDBRANCH  17  19
ENDBRANCH  16  17
ENDBRANCH   2  16
TORSDOF 7
