REMARK  Name = ZINCrg000000oF5V.0
REMARK                            x       y       z     vdW  Elec       q    Type
REMARK                         _______ _______ _______ _____ _____    ______ ____
ROOT
ATOM      1  N   LIG    1       -5.935  -1.083   2.632  0.00  0.00    -0.740 N 
ATOM      2  H   LIG    1       -6.355  -1.326   1.793  0.00  0.00    +0.390 HD
ATOM      3  C   LIG    1       -4.777  -0.392   2.631  0.00  0.00    +0.710 C 
ATOM      4  N   LIG    1       -4.204  -0.041   1.463  0.00  0.00    -0.730 N 
ATOM      5  H   LIG    1       -4.624  -0.284   0.624  0.00  0.00    +0.400 HD
ATOM      6  O   LIG    1       -4.250  -0.087   3.683  0.00  0.00    -0.590 OA
ENDROOT
BRANCH   4   7
ATOM      7  C   LIG    1       -2.945   0.710   1.462  0.00  0.00    +0.210 C 
ATOM      8  C   LIG    1       -1.864  -0.107   2.173  0.00  0.00    +0.040 C 
BRANCH   7   9
ATOM      9  C   LIG    1       -2.514   0.979   0.019  0.00  0.00    +0.090 C 
BRANCH   9  10
ATOM     10  C   LIG    1       -1.219   1.750   0.017  0.00  0.00    -0.070 A 
ATOM     11  C   LIG    1       -0.013   1.076   0.008  0.00  0.00    +0.030 A 
ATOM     12  C   LIG    1        1.175   1.783   0.000  0.00  0.00    +0.020 A 
ATOM     13  C   LIG    1        1.156   3.166   0.008  0.00  0.00    -0.040 A 
ATOM     14  C   LIG    1       -0.052   3.841   0.023  0.00  0.00    +0.020 A 
ATOM     15 CL   LIG    1        2.647   4.055  -0.002  0.00  0.00    -0.070 Cl
ATOM     16  C   LIG    1       -1.239   3.133   0.031  0.00  0.00    +0.040 A 
ENDBRANCH   9  10
ENDBRANCH   7   9
BRANCH   7  17
ATOM     17  C   LIG    1       -3.143   2.039   2.192  0.00  0.00    +0.180 C 
BRANCH  17  18
ATOM     18  O   LIG    1       -4.231   2.751   1.598  0.00  0.00    -0.570 OA
ATOM     19  H   LIG    1       -4.414   3.606   2.011  0.00  0.00    +0.380 HD
ENDBRANCH  17  18
ENDBRANCH   7  17
ENDBRANCH   4   7
BRANCH   1  20
ATOM     20  C   LIG    1       -6.558  -1.465   3.902  0.00  0.00    +0.390 C 
BRANCH  20  23
ATOM     21  N   LIG    1       -8.998  -4.243   3.345  0.00  0.00    -0.530 N 
ATOM     22  C   LIG    1       -7.832  -3.572   3.595  0.00  0.00    +0.380 A 
ATOM     23  C   LIG    1       -7.832  -2.222   3.628  0.00  0.00    -0.290 A 
ATOM     24  C   LIG    1       -9.046  -1.527   3.407  0.00  0.00    +0.550 A 
ATOM     25  N   LIG    1      -10.172  -2.226   3.160  0.00  0.00    -0.660 N 
ATOM     26  H   LIG    1      -11.008  -1.757   3.006  0.00  0.00    +0.430 HD
ATOM     27  O   LIG    1       -9.072  -0.310   3.437  0.00  0.00    -0.500 OA
ATOM     28  C   LIG    1      -10.144  -3.571   3.133  0.00  0.00    +0.700 A 
ATOM     29  O   LIG    1      -11.168  -4.188   2.913  0.00  0.00    -0.530 OA
BRANCH  21  31
ATOM     30  C   LIG    1       -9.281  -6.252   4.711  0.00  0.00    +0.040 C 
ATOM     31  C   LIG    1       -8.998  -5.708   3.309  0.00  0.00    +0.310 C 
ENDBRANCH  21  31
ENDBRANCH  20  23
ENDBRANCH   1  20
TORSDOF 8
