REMARK  Name = ZINCrH00000tj12e.0
REMARK                            x       y       z     vdW  Elec       q    Type
REMARK                         _______ _______ _______ _____ _____    ______ ____
ROOT
ATOM      1  C   LIG    1        4.938   0.635  -1.750  0.00  0.00    +0.500 C 
ATOM      2  N   LIG    1        5.958  -0.117  -2.210  0.00  0.00    -0.670 N 
ATOM      3  H   LIG    1        6.654  -0.412  -1.603  0.00  0.00    +0.410 HD
ATOM      4  O   LIG    1        4.115   1.079  -2.523  0.00  0.00    -0.510 OA
ENDROOT
BRANCH   2   5
ATOM      5  C   LIG    1        6.012  -0.471  -3.564  0.00  0.00    +0.130 A 
ATOM      6  C   LIG    1        6.514  -1.710  -3.939  0.00  0.00    +0.040 A 
ATOM      7  C   LIG    1        6.561  -2.061  -5.274  0.00  0.00    -0.030 A 
ATOM      8  C   LIG    1        6.118  -1.171  -6.241  0.00  0.00    +0.090 A 
ATOM      9  C   LIG    1        5.622   0.070  -5.868  0.00  0.00    +0.040 A 
ATOM     10  C   LIG    1        5.568   0.419  -4.533  0.00  0.00    +0.070 A 
BRANCH   8  11
ATOM     11  O   LIG    1        6.171  -1.514  -7.556  0.00  0.00    -0.310 OA
BRANCH  11  12
ATOM     12  C   LIG    1        6.694  -2.807  -7.868  0.00  0.00    +0.600 C 
ATOM     13  F   LIG    1        8.009  -2.903  -7.401  0.00  0.00    -0.170 F 
ATOM     14  F   LIG    1        6.676  -2.995  -9.254  0.00  0.00    -0.130 F 
ATOM     15  F   LIG    1        5.908  -3.789  -7.254  0.00  0.00    -0.160 F 
ENDBRANCH  11  12
ENDBRANCH   8  11
ENDBRANCH   2   5
BRANCH   1  16
ATOM     16  C   LIG    1        4.820   0.924  -0.276  0.00  0.00    +0.340 C 
BRANCH  16  18
ATOM     17  C   LIG    1        2.446   1.175   0.214  0.00  0.00    +0.570 C 
ATOM     18  N   LIG    1        3.638   1.755  -0.034  0.00  0.00    -0.600 N 
ATOM     19  C   LIG    1        3.750   3.215  -0.061  0.00  0.00    +0.300 C 
ATOM     20  O   LIG    1        2.369  -0.033   0.325  0.00  0.00    -0.520 OA
BRANCH  17  25
ATOM     21  C   LIG    1       -2.275   4.424   0.746  0.00  0.00    +0.110 C 
ATOM     22  C   LIG    1       -1.040   3.573   0.606  0.00  0.00    -0.090 A 
ATOM     23  C   LIG    1        0.149   3.985   1.181  0.00  0.00    +0.040 A 
ATOM     24  C   LIG    1        1.286   3.213   1.052  0.00  0.00    +0.040 A 
ATOM     25  C   LIG    1        1.233   2.009   0.350  0.00  0.00    -0.110 A 
ATOM     26  C   LIG    1        0.030   1.594  -0.223  0.00  0.00    +0.050 A 
ATOM     27  C   LIG    1       -1.100   2.378  -0.092  0.00  0.00    +0.090 A 
ATOM     28  F   LIG    1       -2.266   1.979  -0.646  0.00  0.00    -0.130 F 
ENDBRANCH  17  25
ENDBRANCH  16  18
ENDBRANCH   1  16
TORSDOF 6
