REMARK  Name = ZINCrH000004u2NF.0
REMARK                            x       y       z     vdW  Elec       q    Type
REMARK                         _______ _______ _______ _____ _____    ______ ____
ROOT
ATOM      1  O   LIG    1       -6.170   5.660  -0.959  0.00  0.00    -0.540 OA
ATOM      2  C   LIG    1       -5.556   5.538   0.084  0.00  0.00    +0.700 C 
ATOM      3  N   LIG    1       -4.209   5.483   0.070  0.00  0.00    -0.620 N 
ATOM      4  C   LIG    1       -3.474   5.458  -1.202  0.00  0.00    +0.300 C 
ATOM      5  C   LIG    1       -2.530   4.252  -1.203  0.00  0.00    +0.020 C 
ATOM      6  C   LIG    1       -1.637   4.306   0.039  0.00  0.00    +0.280 C 
ATOM      7  C   LIG    1       -2.506   4.239   1.297  0.00  0.00    +0.020 C 
ATOM      8  C   LIG    1       -3.449   5.446   1.327  0.00  0.00    +0.270 C 
ATOM      9  N   LIG    1       -6.222   5.457   1.253  0.00  0.00    -0.640 N 
ATOM     10  H   LIG    1       -5.732   5.434   2.089  0.00  0.00    +0.420 HD
ENDROOT
BRANCH   6  11
ATOM     11  N   LIG    1       -0.711   3.171   0.024  0.00  0.00    -0.400 N 
ATOM     12  N   LIG    1       -1.081   1.822   0.015  0.00  0.00    -0.250 NA
ATOM     13  C   LIG    1       -0.019   1.067   0.006  0.00  0.00    +0.270 A 
ATOM     14  C   LIG    1        1.149   1.942  -0.000  0.00  0.00    -0.180 A 
ATOM     15  C   LIG    1        2.530   1.719  -0.015  0.00  0.00    +0.090 A 
ATOM     16  C   LIG    1        3.386   2.783  -0.018  0.00  0.00    -0.030 A 
ATOM     17  C   LIG    1        2.898   4.083  -0.006  0.00  0.00    +0.060 A 
ATOM     18  C   LIG    1        1.553   4.326   0.009  0.00  0.00    -0.020 A 
ATOM     19  C   LIG    1        0.656   3.261   0.011  0.00  0.00    +0.130 A 
ENDBRANCH   6  11
BRANCH   9  20
ATOM     20  C   LIG    1       -7.616   5.407   1.259  0.00  0.00    +0.270 A 
ATOM     21  N   LIG    1       -8.414   5.435   0.218  0.00  0.00    -0.350 NA
ATOM     22  O   LIG    1       -9.581   5.371   0.548  0.00  0.00    +0.100 OA
ATOM     23  C   LIG    1       -9.710   5.301   1.873  0.00  0.00    -0.010 A 
ATOM     24  C   LIG    1      -10.956   5.213   2.713  0.00  0.00    +0.160 C 
ATOM     25  C   LIG    1      -10.559   4.738   4.117  0.00  0.00    +0.030 C 
ATOM     26  C   LIG    1       -9.399   5.589   4.641  0.00  0.00    +0.030 C 
ATOM     27  C   LIG    1       -8.125   5.266   3.846  0.00  0.00    +0.120 C 
ATOM     28  C   LIG    1       -8.457   5.322   2.384  0.00  0.00    -0.230 A 
ENDBRANCH   9  20
TORSDOF 2
