REMARK  Name = ZINCqH0000034lmb.1
REMARK                            x       y       z     vdW  Elec       q    Type
REMARK                         _______ _______ _______ _____ _____    ______ ____
ROOT
ATOM      1  C   LIG    1        7.367   2.415  -0.058  0.00  0.00    +0.260 C 
ATOM      2  C   LIG    1        7.830   2.134   1.373  0.00  0.00    +0.030 C 
ENDROOT
BRANCH   1   3
ATOM      3  N   LIG    1        5.970   2.857  -0.042  0.00  0.00    -0.720 N 
ATOM      4  H   LIG    1        5.761   3.804  -0.034  0.00  0.00    +0.400 HD
ATOM      5  C   LIG    1        4.976   1.947  -0.036  0.00  0.00    +0.560 C 
ATOM      6  O   LIG    1        5.238   0.760  -0.046  0.00  0.00    -0.530 OA
BRANCH   5   7
ATOM      7  C   LIG    1        3.568   2.392  -0.020  0.00  0.00    -0.140 A 
ATOM      8  C   LIG    1        3.267   3.761  -0.009  0.00  0.00    +0.050 A 
ATOM      9  C   LIG    1        1.971   4.176   0.006  0.00  0.00    +0.040 A 
ATOM     10  C   LIG    1        0.923   3.247   0.011  0.00  0.00    -0.120 A 
ATOM     11  S   LIG    1       -0.819   3.494   0.029  0.00  0.00    +0.100 S 
ATOM     12  C   LIG    1       -1.133   1.770   0.017  0.00  0.00    -0.020 A 
ATOM     13  C   LIG    1       -0.013   1.076   0.008  0.00  0.00    +0.040 A 
ATOM     14  C   LIG    1        1.203   1.875   0.001  0.00  0.00    -0.090 A 
ATOM     15  C   LIG    1        2.546   1.454  -0.015  0.00  0.00    +0.130 A 
ENDBRANCH   5   7
ENDBRANCH   1   3
BRANCH   1  16
ATOM     16  C   LIG    1        8.241   3.512  -0.671  0.00  0.00    +0.000 C 
ATOM     17  C   LIG    1        8.217   4.747   0.232  0.00  0.00    +0.070 C 
BRANCH  16  20
ATOM     18  N   LIG    1       10.609   3.812  -1.319  0.00  0.00    -0.630 N 
ATOM     19  H   LIG    1       10.383   4.710  -1.608  0.00  0.00    +0.430 HD
ATOM     20  C   LIG    1        9.656   3.011  -0.801  0.00  0.00    +0.520 C 
ATOM     21  O   LIG    1        9.938   1.889  -0.440  0.00  0.00    -0.450 OA
BRANCH  18  25
ATOM     22  C   LIG    1       14.284   2.852  -1.786  0.00  0.00    +0.020 A 
ATOM     23  N   LIG    1       13.560   1.912  -1.267  0.00  0.00    -0.230 NA
ATOM     24  N   LIG    1       12.337   2.173  -1.089  0.00  0.00    -0.270 NA
ATOM     25  C   LIG    1       11.915   3.350  -1.439  0.00  0.00    +0.220 A 
ATOM     26  S   LIG    1       13.233   4.238  -2.080  0.00  0.00    +0.110 S 
BRANCH  22  28
ATOM     27  C   LIG    1       15.958   2.249  -3.513  0.00  0.00    +0.040 C 
ATOM     28  C   LIG    1       15.758   2.774  -2.090  0.00  0.00    +0.150 C 
ENDBRANCH  22  28
ENDBRANCH  18  25
ENDBRANCH  16  20
ENDBRANCH   1  16
TORSDOF 6
