REMARK  Name = ZINCqH0000004imP.0
REMARK                            x       y       z     vdW  Elec       q    Type
REMARK                         _______ _______ _______ _____ _____    ______ ____
ROOT
ATOM      1  N   LIG    1       -2.010  -1.011  -3.046  0.00  0.00    -0.650 N 
ATOM      2  H   LIG    1       -2.057  -1.921  -2.714  0.00  0.00    +0.410 HD
ATOM      3  C   LIG    1       -2.144   0.024  -2.194  0.00  0.00    +0.730 C 
ATOM      4  N   LIG    1       -2.342  -0.205  -0.880  0.00  0.00    -0.620 N 
ATOM      5  O   LIG    1       -2.086   1.165  -2.610  0.00  0.00    -0.540 OA
ENDROOT
BRANCH   4   6
ATOM      6  C   LIG    1       -2.487   0.921   0.046  0.00  0.00    +0.310 C 
ATOM      7  C   LIG    1       -3.690   1.764  -0.371  0.00  0.00    +0.020 C 
ATOM      8  C   LIG    1       -3.698   3.046   0.471  0.00  0.00    +0.020 C 
ATOM      9  C   LIG    1       -2.525   3.919   0.030  0.00  0.00    +0.070 C 
ATOM     10  C   LIG    1       -1.245   3.125   0.025  0.00  0.00    -0.050 A 
ATOM     11  C   LIG    1       -0.048   3.828   0.019  0.00  0.00    +0.000 A 
ATOM     12  C   LIG    1        1.159   3.158   0.007  0.00  0.00    +0.010 A 
ATOM     13  C   LIG    1        1.176   1.776   0.000  0.00  0.00    -0.010 A 
ATOM     14  C   LIG    1       -0.013   1.076   0.008  0.00  0.00    +0.000 A 
ATOM     15  C   LIG    1       -1.228   1.748   0.017  0.00  0.00    -0.080 A 
ENDBRANCH   4   6
BRANCH   1  20
ATOM     16  N   LIG    1       -1.651  -1.714  -5.366  0.00  0.00    -0.380 N 
ATOM     17  N   LIG    1       -1.473  -1.054  -6.589  0.00  0.00    -0.290 NA
ATOM     18  C   LIG    1       -1.512   0.235  -6.371  0.00  0.00    +0.240 A 
ATOM     19  C   LIG    1       -1.720   0.445  -5.005  0.00  0.00    -0.110 A 
ATOM     20  C   LIG    1       -1.806  -0.774  -4.405  0.00  0.00    +0.330 A 
BRANCH  16  21
ATOM     21  C   LIG    1       -1.669  -3.164  -5.163  0.00  0.00    +0.250 C 
ATOM     22  C   LIG    1       -2.801  -3.780  -5.987  0.00  0.00    +0.050 C 
BRANCH  21  24
ATOM     23  C   LIG    1       -0.302  -5.253  -5.285  0.00  0.00    +0.020 C 
ATOM     24  C   LIG    1       -0.331  -3.758  -5.611  0.00  0.00    +0.020 C 
ENDBRANCH  21  24
ENDBRANCH  16  21
ENDBRANCH   1  20
BRANCH   4  25
ATOM     25  C   LIG    1       -2.412  -1.579  -0.379  0.00  0.00    +0.280 C 
BRANCH  25  26
ATOM     26  C   LIG    1       -3.862  -2.064  -0.420  0.00  0.00    +0.170 C 
BRANCH  26  27
ATOM     27  O   LIG    1       -4.303  -2.134  -1.778  0.00  0.00    -0.570 OA
ATOM     28  H   LIG    1       -5.216  -2.435  -1.880  0.00  0.00    +0.390 HD
ENDBRANCH  26  27
ENDBRANCH  25  26
ENDBRANCH   4  25
TORSDOF 7
