REMARK  Name = ZINCqH00000696hR.0
REMARK                            x       y       z     vdW  Elec       q    Type
REMARK                         _______ _______ _______ _____ _____    ______ ____
ROOT
ATOM      1  C   LIG    1       11.307   2.297   0.911  0.00  0.00    +0.300 C 
ATOM      2  N   LIG    1       10.043   3.027   1.030  0.00  0.00    -0.550 N 
ATOM      3  C   LIG    1        9.954   4.314   1.406  0.00  0.00    +0.530 C 
ATOM      4  C   LIG    1        8.485   4.679   1.401  0.00  0.00    -0.050 C 
ATOM      5  C   LIG    1        7.792   3.408   0.968  0.00  0.00    -0.130 A 
ATOM      6  C   LIG    1        6.471   3.087   0.769  0.00  0.00    +0.130 A 
ATOM      7  C   LIG    1        6.124   1.798   0.358  0.00  0.00    -0.060 A 
ATOM      8  C   LIG    1        7.125   0.846   0.158  0.00  0.00    +0.070 A 
ATOM      9  C   LIG    1        8.446   1.178   0.355  0.00  0.00    +0.000 A 
ATOM     10  C   LIG    1        8.026   5.090   2.801  0.00  0.00    +0.080 C 
ATOM     11  C   LIG    1        8.216   5.804   0.399  0.00  0.00    +0.080 C 
ATOM     12  O   LIG    1       10.877   5.045   1.696  0.00  0.00    -0.490 OA
ATOM     13  C   LIG    1        8.795   2.465   0.765  0.00  0.00    +0.170 A 
ENDROOT
BRANCH   7  14
ATOM     14  C   LIG    1        4.705   1.442   0.142  0.00  0.00    +0.330 A 
ATOM     15  N   LIG    1        3.662   2.095   0.613  0.00  0.00    -0.520 NA
ATOM     16  C   LIG    1        2.536   1.491   0.219  0.00  0.00    +0.300 A 
ATOM     17  N   LIG    1        2.847   0.438  -0.507  0.00  0.00    -0.310 NA
ATOM     18  N   LIG    1        4.249   0.389  -0.576  0.00  0.00    -0.340 N 
BRANCH  16  19
ATOM     19  C   LIG    1        1.159   1.933   0.551  0.00  0.00    -0.120 A 
ATOM     20  C   LIG    1       -0.005   1.345   0.170  0.00  0.00    +0.230 A 
ATOM     21  O   LIG    1       -1.024   2.055   0.674  0.00  0.00    -0.180 OA
ATOM     22  C   LIG    1       -0.571   3.096   1.389  0.00  0.00    +0.170 A 
ATOM     23  C   LIG    1        0.772   3.094   1.359  0.00  0.00    -0.020 A 
ENDBRANCH  16  19
BRANCH  18  24
ATOM     24  C   LIG    1        5.058  -0.609  -1.280  0.00  0.00    +0.210 C 
ATOM     25  C   LIG    1        4.317  -1.720  -2.027  0.00  0.00    +0.070 C 
ATOM     26  C   LIG    1        5.059  -2.035  -0.727  0.00  0.00    +0.050 C 
ENDBRANCH  18  24
ENDBRANCH   7  14
TORSDOF 3
