REMARK  Name = ZINCpk00000y6xDs.0
REMARK                            x       y       z     vdW  Elec       q    Type
REMARK                         _______ _______ _______ _____ _____    ______ ____
ROOT
ATOM      1  C   LIG    1       -0.018   1.461   0.010  0.00  0.00    +0.300 C 
ENDROOT
BRANCH   1   2
ATOM      2  C   LIG    1       -0.734   1.954   1.269  0.00  0.00    +0.170 C 
ATOM      3  C   LIG    1       -0.949   3.487   1.201  0.00  0.00    +0.070 C 
ATOM      4  C   LIG    1       -2.162   3.675   2.151  0.00  0.00    +0.150 C 
ATOM      5  C   LIG    1       -3.003   2.408   1.895  0.00  0.00    +0.210 C 
ATOM      6  N   LIG    1       -2.096   1.385   1.343  0.00  0.00    -0.460 N 
BRANCH   6   7
ATOM      7  C   LIG    1       -2.113   0.236   2.117  0.00  0.00    +0.340 A 
ATOM      8  C   LIG    1       -3.303  -0.466   2.320  0.00  0.00    -0.090 A 
ATOM      9  C   LIG    1       -3.268  -1.605   3.099  0.00  0.00    +0.340 A 
ATOM     10  N   LIG    1       -2.115  -1.993   3.625  0.00  0.00    -0.530 NA
ATOM     11  C   LIG    1       -1.008  -1.309   3.415  0.00  0.00    +0.520 A 
ATOM     12  N   LIG    1       -0.995  -0.219   2.675  0.00  0.00    -0.570 NA
ENDBRANCH   6   7
BRANCH   4  13
ATOM     13  O   LIG    1       -2.898   4.849   1.802  0.00  0.00    -0.370 OA
ATOM     14  C   LIG    1       -3.640   5.412   2.886  0.00  0.00    +0.210 C 
ENDBRANCH   4  13
ENDBRANCH   1   2
BRANCH   1  16
ATOM     15  C   LIG    1        0.585  -0.664  -1.018  0.00  0.00    +0.550 C 
ATOM     16  N   LIG    1        0.002  -0.004   0.002  0.00  0.00    -0.720 N 
ATOM     17  H   LIG    1       -0.404  -0.499   0.731  0.00  0.00    +0.400 HD
ATOM     18  O   LIG    1        1.094  -0.045  -1.931  0.00  0.00    -0.520 OA
BRANCH  15  24
ATOM     19  C   LIG    1        1.205  -2.851  -2.075  0.00  0.00    -0.070 A 
ATOM     20  C   LIG    1        1.201  -4.231  -2.042  0.00  0.00    +0.260 A 
ATOM     21  N   LIG    1        0.642  -4.883  -1.042  0.00  0.00    -0.460 NA
ATOM     22  C   LIG    1        0.066  -4.258  -0.034  0.00  0.00    +0.250 A 
ATOM     23  C   LIG    1        0.030  -2.878   0.017  0.00  0.00    -0.020 A 
ATOM     24  C   LIG    1        0.605  -2.146  -1.026  0.00  0.00    -0.090 A 
BRANCH  19  26
ATOM     25  C   LIG    1        3.283  -1.743  -2.851  0.00  0.00    +0.040 C 
ATOM     26  C   LIG    1        1.846  -2.115  -3.223  0.00  0.00    +0.090 C 
ENDBRANCH  19  26
ENDBRANCH  15  24
ENDBRANCH   1  16
TORSDOF 6
