REMARK  Name = ZINCtV000002HO2S.0
REMARK                            x       y       z     vdW  Elec       q    Type
REMARK                         _______ _______ _______ _____ _____    ______ ____
ROOT
ATOM      1  N   LIG    1       -0.018   1.461   0.010  0.00  0.00    -0.550 N 
ATOM      2  C   LIG    1        1.145   2.141  -0.024  0.00  0.00    +0.510 C 
ATOM      3  O   LIG    1        1.138   3.352  -0.072  0.00  0.00    -0.460 OA
ENDROOT
BRANCH   1   8
ATOM      4  C   LIG    1       -4.855   4.325  -0.111  0.00  0.00    +0.100 C 
ATOM      5  C   LIG    1       -3.578   3.525  -0.072  0.00  0.00    -0.170 A 
ATOM      6  C   LIG    1       -3.614   2.157   0.157  0.00  0.00    +0.090 A 
ATOM      7  C   LIG    1       -2.419   1.460   0.185  0.00  0.00    -0.070 A 
ATOM      8  C   LIG    1       -1.229   2.150  -0.016  0.00  0.00    +0.360 A 
ATOM      9  N   LIG    1       -1.235   3.457  -0.226  0.00  0.00    -0.470 NA
ATOM     10  C   LIG    1       -2.359   4.147  -0.264  0.00  0.00    +0.290 A 
ENDBRANCH   1   8
BRANCH   1  11
ATOM     11  C   LIG    1       -0.009  -0.003   0.068  0.00  0.00    +0.230 C 
ATOM     12  C   LIG    1       -0.865  -0.564  -1.069  0.00  0.00    +0.010 C 
ATOM     13  C   LIG    1       -0.857  -2.092  -1.008  0.00  0.00    +0.020 C 
ATOM     14  C   LIG    1       -1.427  -2.553   0.334  0.00  0.00    +0.010 C 
ATOM     15  C   LIG    1       -0.571  -1.992   1.472  0.00  0.00    +0.020 C 
ATOM     16  C   LIG    1       -0.580  -0.463   1.411  0.00  0.00    +0.000 C 
ENDBRANCH   1  11
BRANCH   2  17
ATOM     17  C   LIG    1        2.455   1.395  -0.002  0.00  0.00    +0.070 C 
BRANCH  17  18
ATOM     18  C   LIG    1        3.612   2.395  -0.048  0.00  0.00    +0.040 C 
ATOM     19  C   LIG    1        3.591   3.137  -1.386  0.00  0.00    +0.040 C 
BRANCH  18  20
ATOM     20  C   LIG    1        4.919   1.658   0.097  0.00  0.00    -0.030 A 
ATOM     21  C   LIG    1        5.274   0.693  -0.826  0.00  0.00    +0.010 A 
ATOM     22  C   LIG    1        6.473   0.017  -0.692  0.00  0.00    +0.050 A 
ATOM     23  C   LIG    1        7.316   0.307   0.364  0.00  0.00    +0.020 A 
ATOM     24  C   LIG    1        6.961   1.274   1.287  0.00  0.00    +0.070 A 
ATOM     25  C   LIG    1        5.764   1.952   1.151  0.00  0.00    -0.180 A 
BRANCH  25  26
ATOM     26  C   LIG    1        5.379   3.009   2.154  0.00  0.00    +0.510 C 
ATOM     27  F   LIG    1        4.179   2.648   2.775  0.00  0.00    -0.180 F 
ATOM     28  F   LIG    1        5.216   4.235   1.500  0.00  0.00    -0.170 F 
ATOM     29  F   LIG    1        6.386   3.126   3.118  0.00  0.00    -0.180 F 
ENDBRANCH  25  26
ENDBRANCH  18  20
ENDBRANCH  17  18
ENDBRANCH   2  17
TORSDOF 6
