REMARK  Name = ZINC650000002rWB.0
REMARK                            x       y       z     vdW  Elec       q    Type
REMARK                         _______ _______ _______ _____ _____    ______ ____
ROOT
ATOM      1  C   LIG    1       -1.165   1.611   0.016  0.00  0.00    +0.510 C 
ENDROOT
BRANCH   1   2
ATOM      2  N   LIG    1       -0.011   0.966   0.007  0.00  0.00    -0.750 NA
ATOM      3  H   LIG    1        0.822   1.462   0.002  0.00  0.00    +0.450 HD
ATOM      4  H   LIG    1        0.002  -0.004   0.002  0.00  0.00    +0.430 HD
ENDBRANCH   1   2
BRANCH   1   5
ATOM      5  N   LIG    1       -2.300   0.935   0.018  0.00  0.00    -0.750 NA
ATOM      6  H   LIG    1       -3.147   1.408   0.025  0.00  0.00    +0.440 HD
ATOM      7  H   LIG    1       -2.287  -0.035   0.013  0.00  0.00    +0.430 HD
ENDBRANCH   1   5
BRANCH   1   9
ATOM      8  C   LIG    1       -1.199   3.636  -1.415  0.00  0.00    +0.080 C 
ATOM      9  C   LIG    1       -1.185   3.118   0.025  0.00  0.00    +0.280 C 
BRANCH   9  10
ATOM     10  O   LIG    1       -2.355   3.575   0.706  0.00  0.00    -0.520 OA
ATOM     11  H   LIG    1       -3.184   3.280   0.305  0.00  0.00    +0.390 HD
ENDBRANCH   9  10
ENDBRANCH   1   9
TORSDOF 4
