REMARK  Name = ZINCnE000001Ug5k.0
REMARK                            x       y       z     vdW  Elec       q    Type
REMARK                         _______ _______ _______ _____ _____    ______ ____
ROOT
ATOM      1  S   LIG    1       -4.962   5.625   0.059  0.00  0.00    +2.610 S 
ATOM      2  O   LIG    1       -4.430   6.041  -1.192  0.00  0.00    -1.010 OA
ATOM      3  O   LIG    1       -4.417   6.026   1.308  0.00  0.00    -1.010 OA
ENDROOT
BRANCH   1   4
ATOM      4  C   LIG    1       -6.652   6.123   0.070  0.00  0.00    -0.620 A 
ATOM      5  C   LIG    1       -7.320   6.331  -1.122  0.00  0.00    +0.160 A 
ATOM      6  C   LIG    1       -8.647   6.719  -1.113  0.00  0.00    +0.000 A 
ATOM      7  C   LIG    1       -9.304   6.907   0.089  0.00  0.00    +0.110 A 
ATOM      8  C   LIG    1       -8.634   6.703   1.282  0.00  0.00    -0.210 A 
ATOM      9  C   LIG    1       -7.309   6.312   1.272  0.00  0.00    +0.180 A 
BRANCH   8  10
ATOM     10  C   LIG    1       -9.350   6.909   2.592  0.00  0.00    +0.510 C 
ATOM     11  F   LIG    1       -8.807   6.056   3.559  0.00  0.00    -0.170 F 
ATOM     12  F   LIG    1      -10.710   6.623   2.430  0.00  0.00    -0.180 F 
ATOM     13  F   LIG    1       -9.199   8.237   3.003  0.00  0.00    -0.180 F 
ENDBRANCH   8  10
ENDBRANCH   1   4
BRANCH   1  14
ATOM     14  N   LIG    1       -4.940   3.969   0.049  0.00  0.00    -1.070 NA
BRANCH  14  18
ATOM     15  C   LIG    1       -1.306   1.936   0.019  0.00  0.00    -0.150 A 
ATOM     16  C   LIG    1       -1.323   3.319   0.032  0.00  0.00    +0.140 A 
ATOM     17  C   LIG    1       -2.526   3.996   0.037  0.00  0.00    -0.140 A 
ATOM     18  C   LIG    1       -3.721   3.287   0.038  0.00  0.00    +0.320 A 
ATOM     19  C   LIG    1       -3.700   1.898   0.030  0.00  0.00    -0.040 A 
ATOM     20  C   LIG    1       -2.493   1.227   0.021  0.00  0.00    +0.120 A 
BRANCH  15  22
ATOM     21  O   LIG    1        0.002  -0.004   0.002  0.00  0.00    -0.210 OA
ATOM     22  N   LIG    1       -0.014   1.214   0.009  0.00  0.00    +0.060 N 
ATOM     23  O   LIG    1        1.032   1.837   0.002  0.00  0.00    -0.210 OA
ENDBRANCH  15  22
ENDBRANCH  14  18
ENDBRANCH   1  14
TORSDOF 5
