REMARK  Name = ZINCAx000000085A.0
REMARK                            x       y       z     vdW  Elec       q    Type
REMARK                         _______ _______ _______ _____ _____    ______ ____
ROOT
ATOM      1  C   LIG    1      -10.777  -2.277  -4.125  0.00  0.00    -0.010 C 
ATOM      2  C   LIG    1      -10.033  -2.765  -5.370  0.00  0.00    +0.040 C 
ATOM      3  C   LIG    1       -8.675  -3.341  -4.955  0.00  0.00    +0.280 C 
ATOM      4  N   LIG    1       -7.950  -2.327  -4.177  0.00  0.00    -0.610 N 
ATOM      5  C   LIG    1       -8.608  -1.729  -3.007  0.00  0.00    +0.280 C 
ATOM      6  C   LIG    1       -6.701  -1.957  -4.525  0.00  0.00    +0.560 C 
ATOM      7  O   LIG    1       -6.195  -2.404  -5.536  0.00  0.00    -0.520 OA
ATOM      8  C   LIG    1       -9.969  -1.168  -3.447  0.00  0.00    +0.030 C 
ENDROOT
BRANCH   6   9
ATOM      9  C   LIG    1       -5.947  -1.007  -3.677  0.00  0.00    -0.090 A 
ATOM     10  C   LIG    1       -5.985  -1.132  -2.288  0.00  0.00    +0.030 A 
ATOM     11  C   LIG    1       -5.280  -0.247  -1.499  0.00  0.00    +0.100 A 
ATOM     12  C   LIG    1       -4.533   0.769  -2.092  0.00  0.00    -0.150 A 
ATOM     13  C   LIG    1       -3.768   1.722  -1.251  0.00  0.00    +0.530 C 
ATOM     14  O   LIG    1       -3.230   2.802  -1.873  0.00  0.00    -0.350 OA
ATOM     15  C   LIG    1       -2.624   2.512  -3.167  0.00  0.00    +0.240 C 
ATOM     16  C   LIG    1       -3.700   2.003  -4.126  0.00  0.00    +0.100 C 
ATOM     17  O   LIG    1       -3.631   1.545  -0.058  0.00  0.00    -0.440 OA
ATOM     18  C   LIG    1       -4.496   0.899  -3.482  0.00  0.00    -0.040 A 
ATOM     19  C   LIG    1       -5.200   0.012  -4.269  0.00  0.00    +0.070 A 
BRANCH  15  20
ATOM     20  C   LIG    1       -2.005   3.768  -3.725  0.00  0.00    -0.100 A 
ATOM     21  C   LIG    1       -0.839   3.695  -4.463  0.00  0.00    +0.030 A 
ATOM     22  C   LIG    1       -0.274   4.846  -4.980  0.00  0.00    +0.010 A 
ATOM     23  C   LIG    1       -0.873   6.071  -4.754  0.00  0.00    +0.020 A 
ATOM     24  C   LIG    1       -2.037   6.145  -4.011  0.00  0.00    +0.010 A 
ATOM     25  C   LIG    1       -2.601   4.994  -3.494  0.00  0.00    +0.040 A 
ENDBRANCH  15  20
ENDBRANCH   6   9
BRANCH   1  31
ATOM     26  C   LIG    1      -15.354  -2.234  -2.031  0.00  0.00    -0.010 C 
ATOM     27  C   LIG    1      -15.507  -1.913  -3.519  0.00  0.00    +0.050 C 
ATOM     28  C   LIG    1      -14.380  -0.971  -3.953  0.00  0.00    +0.280 C 
ATOM     29  N   LIG    1      -13.091  -1.579  -3.597  0.00  0.00    -0.610 N 
ATOM     30  C   LIG    1      -12.874  -2.014  -2.210  0.00  0.00    +0.280 C 
ATOM     31  C   LIG    1      -12.128  -1.741  -4.525  0.00  0.00    +0.520 C 
ATOM     32  O   LIG    1      -12.348  -1.456  -5.683  0.00  0.00    -0.530 OA
ATOM     33  C   LIG    1      -14.016  -2.940  -1.794  0.00  0.00    +0.030 C 
BRANCH  26  37
ATOM     34  N   LIG    1      -16.552  -3.550  -0.313  0.00  0.00    -0.860 N 
ATOM     35  H   LIG    1      -17.277  -4.130  -0.031  0.00  0.00    +0.400 HD
ATOM     36  H   LIG    1      -15.878  -3.270   0.327  0.00  0.00    +0.400 HD
ATOM     37  C   LIG    1      -16.480  -3.134  -1.593  0.00  0.00    +0.520 C 
ATOM     38  O   LIG    1      -17.322  -3.485  -2.392  0.00  0.00    -0.540 OA
ENDBRANCH  26  37
ENDBRANCH   1  31
TORSDOF 4
