REMARK  Name = ZINCqH0000038aeW.0
REMARK                            x       y       z     vdW  Elec       q    Type
REMARK                         _______ _______ _______ _____ _____    ______ ____
ROOT
ATOM      1  C   LIG    1       -1.407  -0.708  -0.213  0.00  0.00    +0.570 C 
ATOM      2  N   LIG    1       -1.605  -2.029  -0.395  0.00  0.00    -0.550 N 
ATOM      3  C   LIG    1       -0.488  -2.964  -0.238  0.00  0.00    +0.310 C 
ATOM      4  O   LIG    1       -2.343   0.065  -0.301  0.00  0.00    -0.510 OA
ENDROOT
BRANCH   2   5
ATOM      5  C   LIG    1       -2.875  -2.506  -0.731  0.00  0.00    +0.160 A 
ATOM      6  C   LIG    1       -3.036  -3.829  -1.076  0.00  0.00    -0.030 A 
ATOM      7  C   LIG    1       -4.315  -4.306  -1.409  0.00  0.00    -0.030 A 
ATOM      8  C   LIG    1       -4.521  -5.651  -1.762  0.00  0.00    +0.020 A 
ATOM      9  C   LIG    1       -5.772  -6.079  -2.085  0.00  0.00    +0.010 A 
ATOM     10  C   LIG    1       -6.855  -5.202  -2.071  0.00  0.00    -0.010 A 
ATOM     11  C   LIG    1       -6.693  -3.893  -1.735  0.00  0.00    +0.030 A 
ATOM     12  C   LIG    1       -5.417  -3.414  -1.395  0.00  0.00    -0.070 A 
ATOM     13  C   LIG    1       -5.215  -2.068  -1.044  0.00  0.00    +0.050 A 
ATOM     14  C   LIG    1       -3.969  -1.632  -0.720  0.00  0.00    +0.030 A 
ENDBRANCH   2   5
BRANCH   1  20
ATOM     15  C   LIG    1        2.716  -0.831   2.585  0.00  0.00    +0.090 C 
ATOM     16  C   LIG    1        1.932  -0.254   1.435  0.00  0.00    -0.110 A 
ATOM     17  C   LIG    1        2.483   0.757   0.664  0.00  0.00    +0.080 A 
ATOM     18  C   LIG    1        1.777   1.295  -0.392  0.00  0.00    -0.010 A 
ATOM     19  C   LIG    1        0.504   0.825  -0.689  0.00  0.00    +0.210 A 
ATOM     20  C   LIG    1       -0.058  -0.199   0.091  0.00  0.00    -0.160 A 
ATOM     21  C   LIG    1        0.671  -0.733   1.156  0.00  0.00    +0.070 A 
BRANCH  19  22
ATOM     22  N   LIG    1       -0.208   1.361  -1.755  0.00  0.00    -1.050 N 
ATOM     23  H   LIG    1       -1.176   1.408  -1.717  0.00  0.00    +0.440 HD
BRANCH  22  24
ATOM     24  S   LIG    1        0.597   1.919  -3.090  0.00  0.00    +2.600 S 
ATOM     25  O   LIG    1        1.500   2.887  -2.575  0.00  0.00    -0.940 OA
ATOM     26  O   LIG    1       -0.436   2.288  -3.993  0.00  0.00    -0.940 OA
ATOM     27  C   LIG    1        1.500   0.473  -3.712  0.00  0.00    -0.270 C 
ENDBRANCH  22  24
ENDBRANCH  19  22
ENDBRANCH   1  20
TORSDOF 4
