REMARK  Name = ZINCrH000004q7lN.0
REMARK                            x       y       z     vdW  Elec       q    Type
REMARK                         _______ _______ _______ _____ _____    ______ ____
ROOT
ATOM      1  C   LIG    1       -1.180   2.151   0.019  0.00  0.00    +0.620 C 
ATOM      2  N   LIG    1       -0.018   1.469   0.013  0.00  0.00    -0.560 N 
ATOM      3  C   LIG    1        0.002  -0.004  -0.008  0.00  0.00    +0.300 C 
ATOM      4  C   LIG    1        0.227  -0.497  -1.421  0.00  0.00    +0.030 C 
ATOM      5  C   LIG    1        1.574  -0.075  -1.994  0.00  0.00    +0.190 C 
ATOM      6  N   LIG    1        1.622   1.365  -2.241  0.00  0.00    -0.490 N 
ATOM      7  C   LIG    1        2.047   2.064  -1.092  0.00  0.00    +0.100 A 
ATOM      8  C   LIG    1        3.286   2.682  -1.076  0.00  0.00    +0.000 A 
ATOM      9  C   LIG    1        3.683   3.394   0.043  0.00  0.00    +0.050 A 
ATOM     10  C   LIG    1        2.845   3.488   1.140  0.00  0.00    -0.040 A 
ATOM     11  C   LIG    1        1.611   2.861   1.133  0.00  0.00    +0.050 A 
ATOM     12 CL   LIG    1        3.343   4.397   2.532  0.00  0.00    -0.060 Cl
ATOM     13  C   LIG    1        2.481   1.673  -3.393  0.00  0.00    +0.220 C 
ATOM     14  C   LIG    1        1.214   2.136   0.019  0.00  0.00    +0.140 A 
ATOM     15  O   LIG    1       -2.236   1.554  -0.073  0.00  0.00    -0.530 OA
ENDROOT
BRANCH   1  18
ATOM     16  C   LIG    1       -3.322   3.892   1.533  0.00  0.00    +0.170 C 
ATOM     17  C   LIG    1       -2.105   4.394   0.799  0.00  0.00    +0.190 A 
ATOM     18  C   LIG    1       -1.172   3.620   0.139  0.00  0.00    -0.290 A 
ATOM     19  C   LIG    1       -0.210   4.501  -0.407  0.00  0.00    +0.300 A 
ATOM     20  N   LIG    1       -0.548   5.719  -0.086  0.00  0.00    -0.280 NA
ATOM     21  N   LIG    1       -1.725   5.679   0.670  0.00  0.00    -0.320 N 
BRANCH  21  22
ATOM     22  C   LIG    1       -2.397   6.787   1.197  0.00  0.00    +0.360 A 
ATOM     23  C   LIG    1       -1.695   7.956   1.458  0.00  0.00    +0.000 A 
ATOM     24  C   LIG    1       -2.372   9.047   1.975  0.00  0.00    +0.100 A 
ATOM     25  C   LIG    1       -3.732   8.925   2.224  0.00  0.00    -0.030 A 
ATOM     26  C   LIG    1       -4.365   7.729   1.944  0.00  0.00    +0.300 A 
ATOM     27  N   LIG    1       -3.694   6.709   1.447  0.00  0.00    -0.500 NA
ENDBRANCH  21  22
ENDBRANCH   1  18
TORSDOF 2
