REMARK  Name = ZINCtj0000002P0O.1
REMARK                            x       y       z     vdW  Elec       q    Type
REMARK                         _______ _______ _______ _____ _____    ______ ____
ROOT
ATOM      1  C   LIG    1       -1.152  -0.691   0.169  0.00  0.00    +0.500 C 
ATOM      2  N   LIG    1       -0.147   0.021   0.716  0.00  0.00    -0.650 N 
ATOM      3  H   LIG    1        0.628  -0.435   1.081  0.00  0.00    +0.420 HD
ATOM      4  O   LIG    1       -2.081  -0.120  -0.362  0.00  0.00    -0.500 OA
ENDROOT
BRANCH   2   5
ATOM      5  C   LIG    1       -0.221   1.417   0.759  0.00  0.00    +0.170 A 
ATOM      6  C   LIG    1       -0.806   2.115  -0.290  0.00  0.00    +0.010 A 
ATOM      7  C   LIG    1       -0.882   3.493  -0.243  0.00  0.00    +0.150 A 
ATOM      8  C   LIG    1       -0.368   4.179   0.843  0.00  0.00    -0.680 A 
ATOM      9  C   LIG    1        0.219   3.487   1.886  0.00  0.00    +0.150 A 
ATOM     10  C   LIG    1        0.294   2.109   1.847  0.00  0.00    -0.010 A 
BRANCH   8  11
ATOM     11  S   LIG    1       -0.462   5.938   0.896  0.00  0.00    +2.690 S 
ATOM     12  O   LIG    1       -0.391   6.302   2.268  0.00  0.00    -0.950 OA
ATOM     13  O   LIG    1       -1.540   6.308   0.048  0.00  0.00    -0.950 OA
BRANCH  11  14
ATOM     14  N   LIG    1        0.915   6.524   0.186  0.00  0.00    -0.990 NA
ATOM     15  C   LIG    1        2.116   6.791   0.988  0.00  0.00    +0.290 C 
ATOM     16  C   LIG    1        3.301   6.045   0.357  0.00  0.00    +0.010 C 
ATOM     17  C   LIG    1        3.426   6.449  -1.114  0.00  0.00    +0.020 C 
ATOM     18  C   LIG    1        2.153   6.051  -1.863  0.00  0.00    -0.000 C 
ATOM     19  C   LIG    1        0.956   6.792  -1.258  0.00  0.00    +0.290 C 
ENDBRANCH  11  14
ENDBRANCH   8  11
ENDBRANCH   2   5
BRANCH   1  21
ATOM     20  C   LIG    1       -0.364  -2.731  -1.001  0.00  0.00    +0.120 C 
ATOM     21  C   LIG    1       -1.121  -2.197   0.216  0.00  0.00    +0.170 C 
BRANCH  21  22
ATOM     22  N   LIG    1       -2.496  -2.716   0.203  0.00  0.00    -0.370 N 
ATOM     23  C   LIG    1       -3.205  -2.248   1.401  0.00  0.00    +0.250 C 
ATOM     24  C   LIG    1       -4.660  -2.717   1.352  0.00  0.00    +0.080 C 
ATOM     25  C   LIG    1       -4.696  -4.247   1.301  0.00  0.00    +0.000 C 
ATOM     26  C   LIG    1       -3.891  -4.727   0.090  0.00  0.00    +0.090 C 
ATOM     27  C   LIG    1       -2.464  -4.183   0.185  0.00  0.00    +0.260 C 
ATOM     28  H   LIG    1       -2.973  -2.380  -0.620  0.00  0.00    +0.430 HD
BRANCH  25  29
ATOM     29  C   LIG    1       -6.123  -4.714   1.175  0.00  0.00    +0.520 C 
ATOM     30  O   LIG    1       -6.465  -5.367   0.211  0.00  0.00    -0.530 OA
ATOM     31  N   LIG    1       -7.020  -4.407   2.132  0.00  0.00    -0.850 N 
ATOM     32  H   LIG    1       -7.939  -4.708   2.051  0.00  0.00    +0.410 HD
ATOM     33  H   LIG    1       -6.747  -3.885   2.903  0.00  0.00    +0.400 HD
ENDBRANCH  25  29
ENDBRANCH  21  22
ENDBRANCH   1  21
TORSDOF 6
