REMARK  Name = ZINCtV00000L6jxn.0
REMARK                            x       y       z     vdW  Elec       q    Type
REMARK                         _______ _______ _______ _____ _____    ______ ____
ROOT
ATOM      1  C   LIG    1       -0.775   9.313   1.482  0.00  0.00    +0.430 C 
ATOM      2  O   LIG    1       -1.272   9.168   2.580  0.00  0.00    -0.450 OA
ENDROOT
BRANCH   1   6
ATOM      3  C   LIG    1        0.967   6.351  -2.279  0.00  0.00    +0.150 C 
ATOM      4  C   LIG    1        0.373   6.846  -0.986  0.00  0.00    +0.020 A 
ATOM      5  C   LIG    1        0.206   8.136  -0.650  0.00  0.00    +0.000 A 
ATOM      6  C   LIG    1       -0.402   8.141   0.688  0.00  0.00    -0.260 A 
ATOM      7  C   LIG    1       -0.553   6.813   1.041  0.00  0.00    +0.130 A 
ATOM      8  C   LIG    1       -1.142   6.302   2.330  0.00  0.00    +0.150 C 
ATOM      9  N   LIG    1       -0.080   6.055   0.033  0.00  0.00    -0.400 N 
BRANCH   9  10
ATOM     10  C   LIG    1       -0.061   4.654   0.026  0.00  0.00    +0.120 A 
ATOM     11  C   LIG    1        1.150   3.975   0.011  0.00  0.00    +0.040 A 
ATOM     12  C   LIG    1        1.166   2.594   0.005  0.00  0.00    +0.070 A 
ATOM     13  C   LIG    1       -0.024   1.887   0.012  0.00  0.00    -0.080 A 
ATOM     14  C   LIG    1       -1.232   2.561   0.022  0.00  0.00    +0.070 A 
ATOM     15 BR   LIG    1        0.002  -0.004   0.002  0.00  0.00    -0.030 Br
ATOM     16  C   LIG    1       -1.253   3.942   0.034  0.00  0.00    +0.040 A 
ENDBRANCH   9  10
ENDBRANCH   1   6
BRANCH   1  17
ATOM     17  C   LIG    1       -0.544  10.699   0.937  0.00  0.00    +0.250 C 
BRANCH  17  18
ATOM     18  O   LIG    1       -0.994  11.682   1.905  0.00  0.00    -0.340 OA
BRANCH  18  19
ATOM     19  C   LIG    1       -0.857  12.975   1.571  0.00  0.00    +0.470 C 
ATOM     20  O   LIG    1       -0.377  13.274   0.503  0.00  0.00    -0.490 OA
BRANCH  19  21
ATOM     21  C   LIG    1       -1.303  14.052   2.526  0.00  0.00    +0.170 C 
BRANCH  21  22
ATOM     22  C   LIG    1       -1.041  15.404   1.915  0.00  0.00    -0.070 A 
ATOM     23  C   LIG    1        0.123  16.085   2.217  0.00  0.00    +0.060 A 
ATOM     24  C   LIG    1        0.366  17.323   1.653  0.00  0.00    +0.040 A 
ATOM     25  C   LIG    1       -0.560  17.887   0.794  0.00  0.00    -0.020 A 
ATOM     26  C   LIG    1       -1.729  17.208   0.496  0.00  0.00    +0.050 A 
ATOM     27 CL   LIG    1       -0.258  19.445   0.091  0.00  0.00    -0.050 Cl
ATOM     28  C   LIG    1       -1.969  15.967   1.056  0.00  0.00    -0.010 A 
ATOM     29 CL   LIG    1       -3.435  15.115   0.683  0.00  0.00    -0.050 Cl
ENDBRANCH  21  22
ENDBRANCH  19  21
ENDBRANCH  18  19
ENDBRANCH  17  18
ENDBRANCH   1  17
TORSDOF 7
