REMARK  Name = ZINCrH000004khL4.0
REMARK                            x       y       z     vdW  Elec       q    Type
REMARK                         _______ _______ _______ _____ _____    ______ ____
ROOT
ATOM      1  C   LIG    1        3.641   2.154  -0.021  0.00  0.00    -0.070 A 
ATOM      2  C   LIG    1        4.805   1.399  -0.051  0.00  0.00    +0.020 A 
ATOM      3  C   LIG    1        4.717  -0.002  -0.057  0.00  0.00    +0.200 A 
ATOM      4  N   LIG    1        3.563  -0.634  -0.036  0.00  0.00    -0.450 NA
ATOM      5  C   LIG    1        2.396   0.012  -0.006  0.00  0.00    +0.130 A 
ATOM      6  C   LIG    1        1.178  -0.691   0.016  0.00  0.00    +0.050 A 
ATOM      7  C   LIG    1        0.003  -0.004   0.045  0.00  0.00    +0.030 A 
ATOM      8  C   LIG    1       -0.016   1.388   0.054  0.00  0.00    +0.020 A 
ATOM      9  C   LIG    1        1.145   2.103   0.033  0.00  0.00    +0.060 A 
ATOM     10  C   LIG    1        2.371   1.429   0.002  0.00  0.00    -0.060 A 
ENDROOT
BRANCH   3  11
ATOM     11  C   LIG    1        5.968  -0.796  -0.089  0.00  0.00    -0.070 A 
ATOM     12  C   LIG    1        7.205  -0.153  -0.118  0.00  0.00    +0.070 A 
ATOM     13  C   LIG    1        8.366  -0.896  -0.142  0.00  0.00    -0.020 A 
ATOM     14  C   LIG    1        8.305  -2.281  -0.149  0.00  0.00    +0.110 A 
ATOM     15  C   LIG    1        7.078  -2.925  -0.125  0.00  0.00    -0.020 A 
ATOM     16  F   LIG    1        9.445  -3.005  -0.179  0.00  0.00    -0.140 F 
ATOM     17  C   LIG    1        5.912  -2.189  -0.095  0.00  0.00    +0.110 A 
ENDBRANCH   3  11
BRANCH   1  20
ATOM     18  N   LIG    1        4.866   4.273   0.081  0.00  0.00    -0.710 N 
ATOM     19  H   LIG    1        5.689   3.763   0.144  0.00  0.00    +0.410 HD
ATOM     20  C   LIG    1        3.684   3.633  -0.013  0.00  0.00    +0.570 C 
ATOM     21  O   LIG    1        2.652   4.271  -0.092  0.00  0.00    -0.510 OA
BRANCH  18  22
ATOM     22  C   LIG    1        4.908   5.737   0.089  0.00  0.00    +0.190 C 
ATOM     23  C   LIG    1        4.107   6.264   1.281  0.00  0.00    +0.080 C 
ATOM     24  C   LIG    1        4.301   6.272  -1.210  0.00  0.00    +0.080 C 
BRANCH  22  25
ATOM     25  C   LIG    1        6.339   6.198   0.202  0.00  0.00    +0.460 C 
ATOM     26  O   LIG    1        6.697   7.201  -0.369  0.00  0.00    -0.480 OA
BRANCH  25  28
ATOM     27  C   LIG    1        8.575   5.997   1.001  0.00  0.00    +0.280 C 
ATOM     28  O   LIG    1        7.214   5.495   0.937  0.00  0.00    -0.360 OA
ENDBRANCH  25  28
ENDBRANCH  22  25
ENDBRANCH  18  22
ENDBRANCH   1  20
TORSDOF 5
