REMARK  Name = ZINCrD00000F5LEo.0
REMARK                            x       y       z     vdW  Elec       q    Type
REMARK                         _______ _______ _______ _____ _____    ______ ____
ROOT
ATOM      1  C   LIG    1        1.197   2.666   0.056  0.00  0.00    +0.160 A 
ATOM      2  C   LIG    1        1.187   1.286   0.214  0.00  0.00    +0.040 A 
ATOM      3  C   LIG    1       -0.013   0.605   0.298  0.00  0.00    +0.050 A 
ATOM      4  C   LIG    1       -1.210   1.297   0.218  0.00  0.00    +0.070 A 
ATOM      5  O   LIG    1       -2.395   0.637   0.315  0.00  0.00    -0.320 OA
ATOM      6  C   LIG    1       -3.109   0.744   1.544  0.00  0.00    +0.270 C 
ATOM      7  C   LIG    1       -3.102   2.188   2.041  0.00  0.00    -0.120 C 
ATOM      8  C   LIG    1       -3.381   3.130   0.899  0.00  0.00    +0.530 C 
ATOM      9  N   LIG    1       -2.420   3.371  -0.021  0.00  0.00    -0.560 N 
ATOM     10  C   LIG    1       -2.650   4.343  -1.093  0.00  0.00    +0.310 C 
ATOM     11  O   LIG    1       -4.464   3.668   0.804  0.00  0.00    -0.510 OA
ATOM     12  C   LIG    1       -4.177   2.360   3.115  0.00  0.00    +0.080 C 
ATOM     13  C   LIG    1       -1.732   2.511   2.641  0.00  0.00    +0.040 C 
ATOM     14  C   LIG    1       -1.202   2.683   0.061  0.00  0.00    +0.140 A 
ATOM     15  C   LIG    1       -0.001   3.365  -0.021  0.00  0.00    -0.010 A 
ENDROOT
BRANCH   1  17
ATOM     16  C   LIG    1        3.472   2.939   0.701  0.00  0.00    +0.520 C 
ATOM     17  N   LIG    1        2.415   3.352  -0.026  0.00  0.00    -0.670 N 
ATOM     18  H   LIG    1        2.498   4.125  -0.607  0.00  0.00    +0.410 HD
ATOM     19  O   LIG    1        3.395   1.924   1.360  0.00  0.00    -0.510 OA
BRANCH  16  20
ATOM     20  C   LIG    1        4.749   3.739   0.696  0.00  0.00    +0.050 C 
BRANCH  20  21
ATOM     21  C   LIG    1        5.782   3.057   1.596  0.00  0.00    +0.130 C 
BRANCH  21  22
ATOM     22  C   LIG    1        7.078   3.869   1.591  0.00  0.00    +0.040 C 
ATOM     23  N   LIG    1        6.999   5.315   1.368  0.00  0.00    -0.120 NA
ATOM     24  N   LIG    1        7.409   4.655   0.399  0.00  0.00    -0.120 NA
BRANCH  22  25
ATOM     25  C   LIG    1        8.222   3.321   2.447  0.00  0.00    +0.120 C 
BRANCH  25  26
ATOM     26  C   LIG    1        9.435   4.246   2.329  0.00  0.00    +0.160 C 
BRANCH  26  28
ATOM     27  C   LIG    1       11.413   3.299   3.809  0.00  0.00    +0.030 C 
ATOM     28  C   LIG    1       10.536   3.719   3.153  0.00  0.00    -0.200 C 
ENDBRANCH  26  28
ENDBRANCH  25  26
ENDBRANCH  22  25
ENDBRANCH  21  22
ENDBRANCH  20  21
ENDBRANCH  16  20
ENDBRANCH   1  17
TORSDOF 7
