REMARK  Name = ZINCrH000004qmXG.0
REMARK                            x       y       z     vdW  Elec       q    Type
REMARK                         _______ _______ _______ _____ _____    ______ ____
ROOT
ATOM      1  C   LIG    1        0.061  -3.284   1.561  0.00  0.00    +0.420 C 
ATOM      2  O   LIG    1        0.070  -3.157   2.767  0.00  0.00    -0.460 OA
ENDROOT
BRANCH   1   6
ATOM      3  C   LIG    1       -0.033  -0.259  -2.538  0.00  0.00    +0.120 C 
ATOM      4  C   LIG    1       -0.004  -0.777  -1.123  0.00  0.00    +0.020 A 
ATOM      5  C   LIG    1        0.023  -2.072  -0.769  0.00  0.00    +0.000 A 
ATOM      6  C   LIG    1        0.037  -2.099   0.700  0.00  0.00    -0.270 A 
ATOM      7  C   LIG    1        0.023  -0.777   1.102  0.00  0.00    +0.120 A 
ATOM      8  C   LIG    1        0.030  -0.287   2.527  0.00  0.00    +0.140 C 
ATOM      9  N   LIG    1        0.002  -0.004   0.002  0.00  0.00    -0.430 N 
BRANCH   9  10
ATOM     10  C   LIG    1       -0.018   1.461   0.010  0.00  0.00    +0.380 C 
BRANCH  10  11
ATOM     11  C   LIG    1        1.396   1.982  -0.001  0.00  0.00    -0.220 A 
ATOM     12  C   LIG    1        2.109   2.249  -1.096  0.00  0.00    +0.040 A 
ATOM     13  C   LIG    1        3.388   2.724  -0.859  0.00  0.00    +0.000 A 
ATOM     14  C   LIG    1        3.716   2.833   0.429  0.00  0.00    -0.030 A 
ATOM     15  S   LIG    1        2.361   2.325   1.429  0.00  0.00    +0.120 S 
ENDBRANCH  10  11
ENDBRANCH   9  10
ENDBRANCH   1   6
BRANCH   1  16
ATOM     16  C   LIG    1        0.074  -4.660   0.948  0.00  0.00    +0.320 C 
BRANCH  16  17
ATOM     17  N   LIG    1        0.097  -5.668   2.011  0.00  0.00    -0.560 N 
ATOM     18  C   LIG    1       -1.018  -6.183   2.548  0.00  0.00    +0.530 C 
ATOM     19  C   LIG    1       -0.636  -7.191   3.613  0.00  0.00    +0.090 C 
ATOM     20  C   LIG    1        0.897  -7.162   3.591  0.00  0.00    -0.100 C 
ATOM     21  C   LIG    1        1.466  -8.545   3.248  0.00  0.00    +0.060 C 
ATOM     22  C   LIG    1        2.764  -8.635   4.094  0.00  0.00    +0.010 C 
ATOM     23  C   LIG    1        2.367  -7.921   5.411  0.00  0.00    +0.020 C 
ATOM     24  C   LIG    1        1.462  -6.756   4.953  0.00  0.00    +0.060 C 
ATOM     25  O   LIG    1       -2.150  -5.889   2.232  0.00  0.00    -0.480 OA
ATOM     26  C   LIG    1        1.237  -6.157   2.525  0.00  0.00    +0.540 C 
ATOM     27  O   LIG    1        2.357  -5.838   2.187  0.00  0.00    -0.470 OA
ENDBRANCH  16  17
ENDBRANCH   1  16
TORSDOF 5
