REMARK  Name = ZINCrH00000No4Zi.0
REMARK                            x       y       z     vdW  Elec       q    Type
REMARK                         _______ _______ _______ _____ _____    ______ ____
ROOT
ATOM      1  N   LIG    1       -3.574  -0.981  -0.190  0.00  0.00    -0.530 N 
ATOM      2  H   LIG    1       -3.564  -1.948  -0.268  0.00  0.00    +0.420 HD
ENDROOT
BRANCH   1   4
ATOM      3  C   LIG    1       -5.910  -0.945  -0.276  0.00  0.00    +0.300 C 
ATOM      4  N   LIG    1       -4.793  -0.291  -0.180  0.00  0.00    -0.290 NA
BRANCH   3   7
ATOM      5  C   LIG    1       -9.598  -0.237  -0.359  0.00  0.00    +0.140 A 
ATOM      6  C   LIG    1       -8.396  -0.922  -0.369  0.00  0.00    -0.050 A 
ATOM      7  C   LIG    1       -7.193  -0.219  -0.266  0.00  0.00    +0.000 A 
ATOM      8  C   LIG    1       -7.208   1.173  -0.147  0.00  0.00    -0.050 A 
ATOM      9  C   LIG    1       -8.413   1.852  -0.144  0.00  0.00    +0.140 A 
ATOM     10  C   LIG    1       -9.610   1.149  -0.247  0.00  0.00    +0.070 A 
BRANCH   5  12
ATOM     11  C   LIG    1      -10.684  -2.343  -0.572  0.00  0.00    +0.250 C 
ATOM     12  O   LIG    1      -10.770  -0.921  -0.460  0.00  0.00    -0.300 OA
ENDBRANCH   5  12
BRANCH   9  13
ATOM     13  O   LIG    1       -8.429   3.208  -0.034  0.00  0.00    -0.300 OA
ATOM     14  C   LIG    1       -7.164   3.865   0.068  0.00  0.00    +0.250 C 
ENDBRANCH   9  13
BRANCH  10  15
ATOM     15  O   LIG    1      -10.793   1.820  -0.238  0.00  0.00    -0.470 OA
ATOM     16  H   LIG    1      -11.170   1.942   0.645  0.00  0.00    +0.390 HD
ENDBRANCH  10  15
ENDBRANCH   3   7
ENDBRANCH   1   4
BRANCH   1  17
ATOM     17  C   LIG    1       -2.414  -0.302  -0.090  0.00  0.00    +0.590 C 
ATOM     18  S   LIG    1       -0.924  -1.146  -0.102  0.00  0.00    -0.580 S 
BRANCH  17  19
ATOM     19  N   LIG    1       -2.427   1.041   0.019  0.00  0.00    -0.620 N 
ATOM     20  H   LIG    1       -3.271   1.514   0.089  0.00  0.00    +0.420 HD
BRANCH  19  21
ATOM     21  C   LIG    1       -1.223   1.753   0.032  0.00  0.00    +0.170 A 
ATOM     22  C   LIG    1       -0.179   1.341   0.849  0.00  0.00    +0.090 A 
ATOM     23  C   LIG    1        1.010   2.043   0.855  0.00  0.00    +0.060 A 
ATOM     24  C   LIG    1        1.160   3.159   0.052  0.00  0.00    +0.030 A 
ATOM     25  C   LIG    1        0.119   3.576  -0.758  0.00  0.00    +0.070 A 
ATOM     26  C   LIG    1       -1.072   2.879  -0.768  0.00  0.00    -0.190 A 
BRANCH  26  27
ATOM     27  C   LIG    1       -2.205   3.335  -1.651  0.00  0.00    +0.510 C 
ATOM     28  F   LIG    1       -3.320   3.636  -0.861  0.00  0.00    -0.180 F 
ATOM     29  F   LIG    1       -2.534   2.316  -2.552  0.00  0.00    -0.170 F 
ATOM     30  F   LIG    1       -1.814   4.476  -2.360  0.00  0.00    -0.170 F 
ENDBRANCH  26  27
ENDBRANCH  19  21
ENDBRANCH  17  19
ENDBRANCH   1  17
TORSDOF 9
