REMARK  Name = ZINCrD0000070YUc.0
REMARK                            x       y       z     vdW  Elec       q    Type
REMARK                         _______ _______ _______ _____ _____    ______ ____
ROOT
ATOM      1  N   LIG    1       -4.918   3.952   0.048  0.00  0.00    -0.490 N 
ATOM      2  C   LIG    1       -5.756   3.550  -1.090  0.00  0.00    +0.210 C 
ATOM      3  C   LIG    1       -7.110   4.258  -0.999  0.00  0.00    +0.190 C 
ATOM      4  N   LIG    1       -6.900   5.712  -0.992  0.00  0.00    -0.530 NA
ATOM      5  C   LIG    1       -6.062   6.114   0.147  0.00  0.00    +0.190 C 
ATOM      6  C   LIG    1       -4.708   5.406   0.056  0.00  0.00    +0.200 C 
ENDROOT
BRANCH   1  10
ATOM      7  C   LIG    1       -1.295   1.925   0.019  0.00  0.00    -0.210 A 
ATOM      8  C   LIG    1       -1.316   3.326   0.032  0.00  0.00    +0.090 A 
ATOM      9  C   LIG    1       -2.510   3.989   0.037  0.00  0.00    -0.060 A 
ATOM     10  C   LIG    1       -3.706   3.274   0.038  0.00  0.00    +0.150 A 
ATOM     11  C   LIG    1       -3.689   1.881   0.030  0.00  0.00    -0.030 A 
ATOM     12  C   LIG    1       -2.500   1.210   0.021  0.00  0.00    +0.100 A 
BRANCH   7  14
ATOM     13  C   LIG    1        1.280   1.980   0.001  0.00  0.00    +0.080 C 
ATOM     14  C   LIG    1       -0.014   1.209   0.009  0.00  0.00    +0.400 C 
ATOM     15  O   LIG    1        0.002  -0.004   0.002  0.00  0.00    -0.460 OA
ENDBRANCH   7  14
ENDBRANCH   1  10
BRANCH   4  16
ATOM     16  C   LIG    1       -8.182   6.429  -0.981  0.00  0.00    +0.260 C 
BRANCH  16  17
ATOM     17  C   LIG    1       -9.105   5.822  -2.006  0.00  0.00    -0.060 A 
ATOM     18  C   LIG    1       -9.351   6.306  -3.237  0.00  0.00    +0.150 A 
ATOM     19  N   LIG    1      -10.241   5.490  -3.882  0.00  0.00    -0.340 N 
ATOM     20  C   LIG    1      -10.791   5.560  -5.133  0.00  0.00    +0.230 A 
ATOM     21  C   LIG    1      -11.662   4.620  -5.556  0.00  0.00    +0.010 A 
ATOM     22  C   LIG    1      -12.020   3.553  -4.718  0.00  0.00    +0.040 A 
ATOM     23  C   LIG    1      -11.480   3.471  -3.469  0.00  0.00    +0.050 A 
ATOM     24  C   LIG    1      -10.575   4.456  -3.045  0.00  0.00    +0.110 A 
ATOM     25  C   LIG    1       -9.865   4.637  -1.846  0.00  0.00    -0.140 A 
BRANCH  25  26
ATOM     26  C   LIG    1       -9.903   3.792  -0.691  0.00  0.00    +0.290 C 
ATOM     27  N   LIG    1       -9.933   3.121   0.226  0.00  0.00    -0.430 NA
ENDBRANCH  25  26
ENDBRANCH  16  17
ENDBRANCH   4  16
TORSDOF 5
