REMARK  Name = ZINCrg000000sckD.0
REMARK                            x       y       z     vdW  Elec       q    Type
REMARK                         _______ _______ _______ _____ _____    ______ ____
ROOT
ATOM      1  C   LIG    1       -3.704   6.847   4.245  0.00  0.00    +0.520 C 
ATOM      2  N   LIG    1       -4.348   7.696   3.420  0.00  0.00    -0.720 N 
ATOM      3  H   LIG    1       -4.719   7.372   2.584  0.00  0.00    +0.420 HD
ATOM      4  O   LIG    1       -3.240   7.252   5.290  0.00  0.00    -0.530 OA
ENDROOT
BRANCH   1   5
ATOM      5  C   LIG    1       -3.560   5.395   3.870  0.00  0.00    +0.320 C 
BRANCH   5   6
ATOM      6  N   LIG    1       -2.826   4.689   4.923  0.00  0.00    -1.110 NA
ATOM      7  H   LIG    1       -2.335   5.191   5.592  0.00  0.00    +0.430 HD
BRANCH   6   8
ATOM      8  S   LIG    1       -2.837   3.034   4.972  0.00  0.00    +2.700 S 
ATOM      9  O   LIG    1       -2.019   2.659   6.072  0.00  0.00    -0.950 OA
ATOM     10  O   LIG    1       -4.195   2.636   4.843  0.00  0.00    -0.950 OA
BRANCH   8  15
ATOM     11  C   LIG    1       -0.013   1.086   0.008  0.00  0.00    +0.100 C 
ATOM     12  C   LIG    1       -0.718   1.572   1.248  0.00  0.00    -0.030 A 
ATOM     13  C   LIG    1        0.001   1.806   2.405  0.00  0.00    -0.010 A 
ATOM     14  C   LIG    1       -0.646   2.252   3.542  0.00  0.00    +0.120 A 
ATOM     15  C   LIG    1       -2.012   2.464   3.522  0.00  0.00    -0.680 A 
ATOM     16  C   LIG    1       -2.731   2.230   2.365  0.00  0.00    +0.120 A 
ATOM     17  C   LIG    1       -2.083   1.789   1.226  0.00  0.00    -0.110 A 
ATOM     18  C   LIG    1       -2.866   1.540  -0.037  0.00  0.00    +0.100 C 
ENDBRANCH   8  15
ENDBRANCH   6   8
ENDBRANCH   5   6
ENDBRANCH   1   5
BRANCH   2  19
ATOM     19  C   LIG    1       -4.489   9.108   3.785  0.00  0.00    +0.300 C 
BRANCH  19  20
ATOM     20  C   LIG    1       -5.243   9.835   2.702  0.00  0.00    +0.510 C 
ATOM     21  N   LIG    1       -5.492  11.153   2.823  0.00  0.00    -0.720 N 
ATOM     22  H   LIG    1       -5.187  11.635   3.607  0.00  0.00    +0.410 HD
ATOM     23  O   LIG    1       -5.625   9.232   1.721  0.00  0.00    -0.530 OA
BRANCH  21  24
ATOM     24  C   LIG    1       -6.225  11.860   1.769  0.00  0.00    +0.320 C 
BRANCH  24  25
ATOM     25  C   LIG    1       -6.370  13.312   2.145  0.00  0.00    -0.120 A 
ATOM     26  C   LIG    1       -7.472  13.733   2.866  0.00  0.00    +0.020 A 
ATOM     27  C   LIG    1       -7.602  15.064   3.215  0.00  0.00    +0.010 A 
ATOM     28  C   LIG    1       -6.635  15.976   2.833  0.00  0.00    +0.010 A 
ATOM     29  C   LIG    1       -5.536  15.556   2.108  0.00  0.00    +0.010 A 
ATOM     30  C   LIG    1       -5.404  14.224   1.764  0.00  0.00    +0.020 A 
ENDBRANCH  24  25
ENDBRANCH  21  24
ENDBRANCH  19  20
ENDBRANCH   2  19
TORSDOF 8
