REMARK  Name = ZINCqH0000036StJ.0
REMARK                            x       y       z     vdW  Elec       q    Type
REMARK                         _______ _______ _______ _____ _____    ______ ____
ROOT
ATOM      1  C   LIG    1       -6.329  -1.990  -0.319  0.00  0.00    +0.070 C 
ATOM      2  C   LIG    1       -6.508  -0.497  -0.040  0.00  0.00    +0.220 C 
ATOM      3  C   LIG    1       -7.521   0.099  -1.026  0.00  0.00    +0.030 C 
ATOM      4  C   LIG    1       -7.737   1.573  -0.683  0.00  0.00    +0.080 C 
ATOM      5  C   LIG    1       -6.417   2.289  -0.576  0.00  0.00    -0.110 A 
ATOM      6  C   LIG    1       -6.391   3.668  -0.699  0.00  0.00    +0.030 A 
ATOM      7  C   LIG    1       -5.193   4.355  -0.586  0.00  0.00    -0.020 A 
ATOM      8  C   LIG    1       -4.015   3.667  -0.364  0.00  0.00    +0.030 A 
ATOM      9  C   LIG    1       -4.033   2.291  -0.247  0.00  0.00    +0.010 A 
ATOM     10  C   LIG    1       -5.234   1.599  -0.351  0.00  0.00    +0.150 A 
ATOM     11  N   LIG    1       -5.230   0.203  -0.233  0.00  0.00    -0.540 N 
ATOM     12  C   LIG    1       -4.073  -0.487  -0.289  0.00  0.00    +0.540 C 
ATOM     13  O   LIG    1       -3.046   0.077  -0.604  0.00  0.00    -0.500 OA
ENDROOT
BRANCH  12  14
ATOM     14  C   LIG    1       -4.056  -1.958   0.038  0.00  0.00    +0.130 C 
BRANCH  14  15
ATOM     15  S   LIG    1       -2.343  -2.537   0.121  0.00  0.00    +0.070 S 
BRANCH  15  16
ATOM     16  C   LIG    1       -2.613  -4.235   0.507  0.00  0.00    +0.150 A 
ATOM     17  N   LIG    1       -3.775  -4.824   0.669  0.00  0.00    -0.290 NA
ATOM     18  N   LIG    1       -3.602  -6.068   0.941  0.00  0.00    -0.280 NA
ATOM     19  C   LIG    1       -2.329  -6.348   0.969  0.00  0.00    +0.400 A 
ATOM     20  N   LIG    1       -1.652  -5.190   0.693  0.00  0.00    -0.420 N 
BRANCH  20  21
ATOM     21  C   LIG    1       -0.262  -5.019   0.618  0.00  0.00    +0.100 A 
ATOM     22  C   LIG    1        0.303  -4.392  -0.485  0.00  0.00    +0.040 A 
ATOM     23  C   LIG    1        1.672  -4.221  -0.554  0.00  0.00    +0.040 A 
ATOM     24  C   LIG    1        2.481  -4.683   0.467  0.00  0.00    +0.030 A 
ATOM     25  C   LIG    1        1.921  -5.313   1.564  0.00  0.00    +0.040 A 
ATOM     26  C   LIG    1        0.553  -5.482   1.642  0.00  0.00    +0.020 A 
ENDBRANCH  20  21
ENDBRANCH  15  16
ENDBRANCH  14  15
ENDBRANCH  12  14
TORSDOF 4
