REMARK  Name = ZINCvU0000000DOg.0
REMARK                            x       y       z     vdW  Elec       q    Type
REMARK                         _______ _______ _______ _____ _____    ______ ____
ROOT
ATOM      1 BR   LIG    1        9.722   0.995  -2.920  0.00  0.00    -0.040 Br
ATOM      2  C   LIG    1        9.019   1.599  -1.272  0.00  0.00    -0.120 A 
ATOM      3  C   LIG    1        9.557   1.142  -0.083  0.00  0.00    +0.110 A 
ATOM      4  C   LIG    1        9.045   1.581   1.124  0.00  0.00    -0.200 A 
ATOM      5  C   LIG    1        7.996   2.487   1.141  0.00  0.00    +0.180 A 
ATOM      6  C   LIG    1        7.452   2.939  -0.054  0.00  0.00    -0.100 A 
ATOM      7  O   LIG    1        7.484   2.928   2.321  0.00  0.00    -0.310 OA
ATOM      8  C   LIG    1        7.812   2.175   3.492  0.00  0.00    +0.390 C 
ATOM      9  O   LIG    1        9.222   1.919   3.491  0.00  0.00    -0.370 OA
ATOM     10  C   LIG    1        9.636   1.072   2.415  0.00  0.00    +0.300 C 
ATOM     11  C   LIG    1        7.966   2.497  -1.257  0.00  0.00    +0.120 A 
ENDROOT
BRANCH   8  12
ATOM     12  C   LIG    1        7.442   2.964   4.722  0.00  0.00    -0.100 A 
ATOM     13  C   LIG    1        6.865   4.214   4.593  0.00  0.00    +0.050 A 
ATOM     14  C   LIG    1        6.521   4.936   5.721  0.00  0.00    +0.010 A 
ATOM     15  C   LIG    1        6.765   4.413   6.977  0.00  0.00    +0.030 A 
ATOM     16  C   LIG    1        7.347   3.166   7.106  0.00  0.00    +0.010 A 
ATOM     17  C   LIG    1        7.686   2.442   5.978  0.00  0.00    +0.040 A 
ENDBRANCH   8  12
BRANCH   6  18
ATOM     18  C   LIG    1        6.306   3.916  -0.038  0.00  0.00    +0.170 C 
BRANCH  18  19
ATOM     19  S   LIG    1        4.736   3.007  -0.027  0.00  0.00    +0.010 S 
BRANCH  19  20
ATOM     20  C   LIG    1        3.533   4.294  -0.009  0.00  0.00    +0.210 A 
ATOM     21  N   LIG    1        3.781   5.581  -0.005  0.00  0.00    -0.280 NA
ATOM     22  N   LIG    1        2.556   6.260   0.010  0.00  0.00    -0.320 NA
ATOM     23  C   LIG    1        1.595   5.363   0.015  0.00  0.00    +0.440 A 
ATOM     24  N   LIG    1        0.220   5.208   0.027  0.00  0.00    -0.600 N 
ATOM     25  H   LIG    1       -0.434   5.924   0.037  0.00  0.00    +0.450 HD
ATOM     26  C   LIG    1       -0.061   3.845   0.022  0.00  0.00    +0.140 A 
ATOM     27  C   LIG    1       -1.250   3.129   0.029  0.00  0.00    +0.020 A 
ATOM     28  C   LIG    1       -1.222   1.748   0.017  0.00  0.00    +0.060 A 
ATOM     29  C   LIG    1       -0.013   1.076   0.008  0.00  0.00    +0.020 A 
ATOM     30  C   LIG    1        1.176   1.780   0.000  0.00  0.00    +0.070 A 
ATOM     31  C   LIG    1        1.159   3.167   0.007  0.00  0.00    +0.060 A 
ATOM     32  N   LIG    1        2.174   4.125   0.003  0.00  0.00    -0.440 N 
ENDBRANCH  19  20
ENDBRANCH  18  19
ENDBRANCH   6  18
TORSDOF 4
