REMARK  Name = ZINCrg000000ssil.0
REMARK                            x       y       z     vdW  Elec       q    Type
REMARK                         _______ _______ _______ _____ _____    ______ ____
ROOT
ATOM      1  N   LIG    1        7.627   0.942  -0.066  0.00  0.00    -0.680 N 
ATOM      2  H   LIG    1        8.086   1.442  -0.758  0.00  0.00    +0.410 HD
ATOM      3  C   LIG    1        8.335   0.294   0.880  0.00  0.00    +0.510 C 
ATOM      4  O   LIG    1        7.766  -0.409   1.688  0.00  0.00    -0.490 OA
ENDROOT
BRANCH   1   8
ATOM      5  C   LIG    1        3.460   0.794  -0.016  0.00  0.00    +0.100 A 
ATOM      6  C   LIG    1        4.169   0.786   1.177  0.00  0.00    +0.040 A 
ATOM      7  C   LIG    1        5.549   0.830   1.161  0.00  0.00    +0.040 A 
ATOM      8  C   LIG    1        6.227   0.893  -0.049  0.00  0.00    +0.160 A 
ATOM      9  C   LIG    1        5.518   0.907  -1.243  0.00  0.00    +0.010 A 
ATOM     10  C   LIG    1        4.138   0.858  -1.226  0.00  0.00    +0.050 A 
BRANCH   5  14
ATOM     11  C   LIG    1       -1.212  -0.554   0.968  0.00  0.00    +0.140 C 
ATOM     12  C   LIG    1       -0.001   0.160   0.427  0.00  0.00    +0.000 A 
ATOM     13  C   LIG    1        1.283  -0.150   0.691  0.00  0.00    -0.020 A 
ATOM     14  N   LIG    1        2.058   0.745   0.001  0.00  0.00    -0.410 N 
ATOM     15  C   LIG    1        1.213   1.574  -0.664  0.00  0.00    +0.400 A 
ATOM     16  C   LIG    1        1.772  -1.267   1.576  0.00  0.00    +0.140 C 
ATOM     17  N   LIG    1       -0.014   1.215  -0.402  0.00  0.00    -0.480 NA
ENDBRANCH   5  14
ENDBRANCH   1   8
BRANCH   3  18
ATOM     18  C   LIG    1        9.834   0.443   0.933  0.00  0.00    +0.220 C 
BRANCH  18  19
ATOM     19  N   LIG    1       10.366  -0.356   2.045  0.00  0.00    -0.520 NA
ATOM     20  C   LIG    1        9.909   0.170   3.338  0.00  0.00    +0.170 C 
ATOM     21  C   LIG    1       10.332  -0.790   4.455  0.00  0.00    +0.310 C 
ATOM     22  N   LIG    1       11.782  -1.015   4.352  0.00  0.00    -1.000 NA
ATOM     23  C   LIG    1       12.335  -1.412   3.048  0.00  0.00    +0.310 C 
ATOM     24  C   LIG    1       11.832  -0.428   1.987  0.00  0.00    +0.170 C 
BRANCH  22  25
ATOM     25  S   LIG    1       12.767  -0.826   5.670  0.00  0.00    +2.610 S 
ATOM     26  O   LIG    1       13.876  -1.673   5.403  0.00  0.00    -0.950 OA
ATOM     27  O   LIG    1       11.914  -1.064   6.782  0.00  0.00    -0.950 OA
ATOM     28  C   LIG    1       13.269   0.916   5.614  0.00  0.00    -0.280 C 
ENDBRANCH  22  25
ENDBRANCH  18  19
ENDBRANCH   3  18
TORSDOF 5
