REMARK  Name = ZINCrD000000B3JL.0
REMARK                            x       y       z     vdW  Elec       q    Type
REMARK                         _______ _______ _______ _____ _____    ______ ____
ROOT
ATOM      1  O   LIG    1        6.689   7.523   0.685  0.00  0.00    -0.590 OA
ATOM      2  C   LIG    1        6.379   6.795   1.608  0.00  0.00    +0.700 C 
ATOM      3  N   LIG    1        5.845   5.582   1.360  0.00  0.00    -0.740 N 
ATOM      4  H   LIG    1        5.598   5.002   2.097  0.00  0.00    +0.400 HD
ATOM      5  N   LIG    1        6.569   7.200   2.879  0.00  0.00    -0.750 N 
ATOM      6  H   LIG    1        6.322   6.620   3.616  0.00  0.00    +0.400 HD
ENDROOT
BRANCH   3   7
ATOM      7  C   LIG    1        5.638   5.141  -0.021  0.00  0.00    +0.370 C 
BRANCH   7   8
ATOM      8  C   LIG    1        5.034   3.761  -0.023  0.00  0.00    -0.250 A 
ATOM      9  C   LIG    1        3.712   3.471  -0.014  0.00  0.00    +0.260 A 
ATOM     10  N   LIG    1        3.586   2.125  -0.019  0.00  0.00    -0.320 N 
ATOM     11  N   LIG    1        4.873   1.572  -0.027  0.00  0.00    -0.290 NA
ATOM     12  C   LIG    1        5.739   2.553  -0.035  0.00  0.00    +0.270 A 
BRANCH  10  13
ATOM     13  C   LIG    1        2.381   1.409  -0.013  0.00  0.00    +0.150 A 
ATOM     14  C   LIG    1        1.169   2.087   0.002  0.00  0.00    -0.010 A 
ATOM     15  C   LIG    1       -0.017   1.379   0.010  0.00  0.00    +0.040 A 
ATOM     16  C   LIG    1        0.002  -0.004   0.002  0.00  0.00    +0.000 A 
ATOM     17  C   LIG    1        1.207  -0.682  -0.013  0.00  0.00    +0.030 A 
ATOM     18  C   LIG    1        2.396   0.021  -0.020  0.00  0.00    +0.020 A 
ENDBRANCH  10  13
ENDBRANCH   7   8
ENDBRANCH   3   7
BRANCH   5  19
ATOM     19  C   LIG    1        7.150   8.518   3.148  0.00  0.00    +0.280 C 
BRANCH  19  20
ATOM     20  C   LIG    1        7.257   8.729   4.660  0.00  0.00    +0.110 C 
BRANCH  20  21
ATOM     21  C   LIG    1        7.854  10.085   4.937  0.00  0.00    -0.170 A 
ATOM     22  C   LIG    1        9.149  10.356   5.166  0.00  0.00    +0.230 A 
ATOM     23  N   LIG    1        9.315  11.698   5.377  0.00  0.00    -0.590 N 
ATOM     24  H   LIG    1       10.162  12.132   5.562  0.00  0.00    +0.420 HD
ATOM     25  C   LIG    1        8.100  12.339   5.286  0.00  0.00    +0.090 A 
ATOM     26  C   LIG    1        7.707  13.668   5.412  0.00  0.00    -0.010 A 
ATOM     27  C   LIG    1        6.379  14.006   5.262  0.00  0.00    +0.030 A 
ATOM     28  C   LIG    1        5.428  13.033   4.986  0.00  0.00    -0.030 A 
ATOM     29  C   LIG    1        5.792  11.722   4.859  0.00  0.00    +0.050 A 
ATOM     30  C   LIG    1        7.132  11.358   5.001  0.00  0.00    -0.100 A 
ENDBRANCH  20  21
ENDBRANCH  19  20
ENDBRANCH   5  19
TORSDOF 6
