REMARK  Name = ZINCrD000000AC1b.0
REMARK                            x       y       z     vdW  Elec       q    Type
REMARK                         _______ _______ _______ _____ _____    ______ ____
ROOT
ATOM      1  O   LIG    1       -1.497   4.801   4.869  0.00  0.00    -0.510 OA
ATOM      2  C   LIG    1       -2.375   5.437   4.326  0.00  0.00    +0.520 C 
ATOM      3  N   LIG    1       -2.288   5.719   3.011  0.00  0.00    -0.730 N 
ATOM      4  H   LIG    1       -2.991   6.228   2.576  0.00  0.00    +0.400 HD
ENDROOT
BRANCH   3   5
ATOM      5  C   LIG    1       -1.134   5.256   2.237  0.00  0.00    +0.270 C 
BRANCH   5   6
ATOM      6  C   LIG    1       -1.281   5.707   0.782  0.00  0.00    +0.190 C 
BRANCH   6   7
ATOM      7  N   LIG    1       -0.123   5.243   0.006  0.00  0.00    -0.490 N 
ATOM      8  C   LIG    1        0.138   3.823   0.251  0.00  0.00    +0.190 C 
ATOM      9  C   LIG    1        1.337   3.390  -0.601  0.00  0.00    +0.040 C 
ATOM     10  C   LIG    1        0.911   3.431  -2.071  0.00  0.00    +0.070 C 
ATOM     11  C   LIG    1        0.206   4.733  -2.358  0.00  0.00    -0.120 A 
ATOM     12  C   LIG    1        0.037   5.106  -3.682  0.00  0.00    +0.030 A 
ATOM     13  C   LIG    1       -0.613   6.282  -4.000  0.00  0.00    -0.030 A 
ATOM     14  C   LIG    1       -1.094   7.098  -2.994  0.00  0.00    +0.020 A 
ATOM     15  C   LIG    1       -0.932   6.732  -1.674  0.00  0.00    -0.040 A 
ATOM     16  C   LIG    1       -0.274   5.546  -1.346  0.00  0.00    +0.130 A 
ENDBRANCH   6   7
ENDBRANCH   5   6
ENDBRANCH   3   5
BRANCH   2  17
ATOM     17  C   LIG    1       -3.563   5.913   5.122  0.00  0.00    +0.150 C 
BRANCH  17  18
ATOM     18  C   LIG    1       -3.418   5.469   6.555  0.00  0.00    +0.090 A 
ATOM     19  C   LIG    1       -3.461   6.334   7.574  0.00  0.00    -0.060 A 
ATOM     20  S   LIG    1       -3.257   5.430   9.073  0.00  0.00    +0.100 S 
ATOM     21  C   LIG    1       -3.122   3.937   8.148  0.00  0.00    +0.120 A 
ATOM     22  N   LIG    1       -3.236   4.210   6.880  0.00  0.00    -0.430 NA
BRANCH  21  23
ATOM     23  C   LIG    1       -2.913   2.589   8.720  0.00  0.00    -0.080 A 
ATOM     24  C   LIG    1       -2.805   2.413  10.104  0.00  0.00    +0.080 A 
ATOM     25  C   LIG    1       -2.609   1.131  10.588  0.00  0.00    -0.030 A 
ATOM     26  C   LIG    1       -2.528   0.076   9.698  0.00  0.00    +0.270 A 
ATOM     27  N   LIG    1       -2.633   0.272   8.398  0.00  0.00    -0.480 NA
ATOM     28  C   LIG    1       -2.826   1.472   7.889  0.00  0.00    +0.320 A 
ENDBRANCH  21  23
ENDBRANCH  17  18
ENDBRANCH   2  17
TORSDOF 6
