REMARK  Name = ZINCpe00000gLYJl.0
REMARK                            x       y       z     vdW  Elec       q    Type
REMARK                         _______ _______ _______ _____ _____    ______ ____
ROOT
ATOM      1  C   LIG    1       -2.679   8.117  -6.485  0.00  0.00    +0.170 C 
ATOM      2  C   LIG    1       -3.381   7.118  -7.421  0.00  0.00    -0.010 C 
ATOM      3  C   LIG    1       -4.287   6.758  -6.231  0.00  0.00    +0.170 C 
ATOM      4  C   LIG    1       -3.144   7.230  -5.323  0.00  0.00    -0.060 C 
ATOM      5  C   LIG    1       -3.621   8.020  -4.106  0.00  0.00    +0.050 C 
ATOM      6  C   LIG    1       -4.266   7.056  -3.103  0.00  0.00    +0.270 C 
ATOM      7  N   LIG    1       -3.327   5.959  -2.832  0.00  0.00    -0.630 N 
ATOM      8  C   LIG    1       -2.803   5.175  -3.958  0.00  0.00    +0.300 C 
ATOM      9  C   LIG    1       -2.949   5.679  -1.569  0.00  0.00    +0.710 C 
ATOM     10  N   LIG    1       -3.511   6.338  -0.536  0.00  0.00    -0.750 N 
ATOM     11  H   LIG    1       -4.134   7.062  -0.703  0.00  0.00    +0.400 HD
ATOM     12  O   LIG    1       -2.101   4.833  -1.362  0.00  0.00    -0.590 OA
ATOM     13  C   LIG    1       -2.153   6.124  -4.966  0.00  0.00    +0.060 C 
ENDROOT
BRANCH   3  14
ATOM     14  O   LIG    1       -5.463   7.564  -6.138  0.00  0.00    -0.550 OA
ATOM     15  H   LIG    1       -6.187   7.271  -6.708  0.00  0.00    +0.380 HD
ENDBRANCH   3  14
BRANCH   1  16
ATOM     16  O   LIG    1       -1.260   8.152  -6.646  0.00  0.00    -0.370 OA
BRANCH  16  18
ATOM     17  C   LIG    1        0.756   9.305  -7.315  0.00  0.00    +0.040 C 
ATOM     18  C   LIG    1       -0.766   9.379  -7.187  0.00  0.00    +0.160 C 
ENDBRANCH  16  18
ENDBRANCH   1  16
BRANCH  10  19
ATOM     19  C   LIG    1       -3.181   5.959   0.840  0.00  0.00    +0.410 C 
BRANCH  19  20
ATOM     20  C   LIG    1       -3.936   6.842   1.800  0.00  0.00    -0.030 A 
ATOM     21  C   LIG    1       -5.155   6.586   2.297  0.00  0.00    +0.030 A 
ATOM     22  C   LIG    1       -5.478   7.718   3.178  0.00  0.00    -0.240 A 
ATOM     23  C   LIG    1       -4.400   8.551   3.116  0.00  0.00    +0.250 A 
ATOM     24  O   LIG    1       -3.499   8.014   2.288  0.00  0.00    -0.160 OA
BRANCH  22  25
ATOM     25  C   LIG    1       -6.710   7.912   3.964  0.00  0.00    +0.590 C 
ATOM     26  O   LIG    1       -7.595   7.080   3.923  0.00  0.00    -0.530 OA
ATOM     27  N   LIG    1       -6.855   9.013   4.729  0.00  0.00    -0.850 N 
ATOM     28  H   LIG    1       -7.665   9.140   5.246  0.00  0.00    +0.410 HD
ATOM     29  H   LIG    1       -6.149   9.677   4.761  0.00  0.00    +0.400 HD
ENDBRANCH  22  25
ENDBRANCH  19  20
ENDBRANCH  10  19
TORSDOF 6
