REMARK  Name = ZINCqH0000032uEf.0
REMARK                            x       y       z     vdW  Elec       q    Type
REMARK                         _______ _______ _______ _____ _____    ______ ____
ROOT
ATOM      1  N   LIG    1       -2.365  -0.187  -0.437  0.00  0.00    -0.530 N 
ATOM      2  C   LIG    1       -1.173  -0.814  -0.375  0.00  0.00    +0.560 C 
ATOM      3  O   LIG    1       -1.116  -2.024  -0.479  0.00  0.00    -0.480 OA
ATOM      4  C   LIG    1       -2.426   1.276  -0.398  0.00  0.00    +0.310 C 
ENDROOT
BRANCH   1   9
ATOM      5  C   LIG    1       -5.938  -1.044  -0.552  0.00  0.00    -0.060 A 
ATOM      6  C   LIG    1       -5.873  -2.412  -0.741  0.00  0.00    -0.010 A 
ATOM      7  C   LIG    1       -4.646  -3.043  -0.830  0.00  0.00    +0.030 A 
ATOM      8  C   LIG    1       -3.481  -2.308  -0.735  0.00  0.00    +0.020 A 
ATOM      9  C   LIG    1       -3.543  -0.934  -0.539  0.00  0.00    +0.150 A 
ATOM     10  C   LIG    1       -4.777  -0.303  -0.451  0.00  0.00    -0.020 A 
BRANCH   5  12
ATOM     11  C   LIG    1       -8.063  -0.592  -1.748  0.00  0.00    +0.040 C 
ATOM     12  C   LIG    1       -7.277  -0.360  -0.456  0.00  0.00    +0.020 C 
ATOM     13  C   LIG    1       -8.060  -0.935   0.727  0.00  0.00    +0.030 C 
ENDBRANCH   5  12
ENDBRANCH   1   9
BRANCH   2  14
ATOM     14  C   LIG    1        0.065  -0.030  -0.180  0.00  0.00    -0.080 A 
ATOM     15  C   LIG    1        0.399   1.004  -1.063  0.00  0.00    +0.100 A 
ATOM     16  C   LIG    1        1.569   1.707  -0.837  0.00  0.00    +0.060 A 
ATOM     17  C   LIG    1        2.364   1.370   0.244  0.00  0.00    +0.290 A 
ATOM     18  N   LIG    1        2.023   0.391   1.060  0.00  0.00    -0.380 NA
ATOM     19  C   LIG    1        0.921  -0.308   0.887  0.00  0.00    -0.390 A 
BRANCH  19  20
ATOM     20  S   LIG    1        0.522  -1.603   2.012  0.00  0.00    +2.490 S 
ATOM     21  O   LIG    1       -0.894  -1.708   1.938  0.00  0.00    -0.840 OA
ATOM     22  O   LIG    1        1.167  -1.229   3.221  0.00  0.00    -0.840 OA
BRANCH  20  23
ATOM     23  C   LIG    1        1.306  -3.077   1.302  0.00  0.00    -0.010 C 
ATOM     24  F   LIG    1        0.784  -3.314   0.026  0.00  0.00    -0.130 F 
ATOM     25  F   LIG    1        1.052  -4.181   2.122  0.00  0.00    -0.160 F 
ATOM     26  F   LIG    1        2.687  -2.872   1.210  0.00  0.00    -0.160 F 
ENDBRANCH  20  23
ENDBRANCH  19  20
ENDBRANCH   2  14
TORSDOF 5
