REMARK  Name = ZINCrH000004kRHf.0
REMARK                            x       y       z     vdW  Elec       q    Type
REMARK                         _______ _______ _______ _____ _____    ______ ____
ROOT
ATOM      1  N   LIG    1       -1.240   2.067   0.019  0.00  0.00    -0.680 N 
ATOM      2  H   LIG    1       -1.255   3.034   0.092  0.00  0.00    +0.410 HD
ATOM      3  C   LIG    1       -2.396   1.381  -0.081  0.00  0.00    +0.710 C 
ATOM      4  N   LIG    1       -3.566   2.043  -0.173  0.00  0.00    -0.730 N 
ATOM      5  H   LIG    1       -3.577   3.013  -0.167  0.00  0.00    +0.400 HD
ATOM      6  O   LIG    1       -2.382   0.166  -0.088  0.00  0.00    -0.570 OA
ENDROOT
BRANCH   1   9
ATOM      7  C   LIG    1        1.303  -0.534   0.625  0.00  0.00    -0.140 A 
ATOM      8  C   LIG    1        0.082   0.142   0.624  0.00  0.00    +0.150 A 
ATOM      9  C   LIG    1       -0.017   1.384   0.017  0.00  0.00    +0.150 A 
ATOM     10  C   LIG    1        1.096   1.954  -0.588  0.00  0.00    +0.100 A 
ATOM     11  C   LIG    1        2.308   1.288  -0.588  0.00  0.00    -0.130 A 
ATOM     12 BR   LIG    1        3.816   2.075  -1.414  0.00  0.00    -0.010 Br
ATOM     13  C   LIG    1        2.419   0.048   0.014  0.00  0.00    +0.180 A 
ATOM     14  F   LIG    1        3.604  -0.601   0.012  0.00  0.00    -0.100 F 
BRANCH   7  15
ATOM     15  C   LIG    1        1.417  -1.857   1.269  0.00  0.00    +0.510 C 
ATOM     16  O   LIG    1        2.481  -2.444   1.269  0.00  0.00    -0.490 OA
BRANCH  15  18
ATOM     17  C   LIG    1        0.525  -3.718   2.470  0.00  0.00    +0.290 C 
ATOM     18  O   LIG    1        0.340  -2.415   1.856  0.00  0.00    -0.350 OA
ENDBRANCH  15  18
ENDBRANCH   7  15
ENDBRANCH   1   9
BRANCH   4  19
ATOM     19  C   LIG    1       -4.823   1.298  -0.282  0.00  0.00    +0.260 C 
ATOM     20  C   LIG    1       -5.154   1.019  -1.766  0.00  0.00    +0.030 C 
ATOM     21  C   LIG    1       -6.689   1.219  -1.822  0.00  0.00    +0.190 C 
ATOM     22  N   LIG    1       -6.917   2.360  -0.898  0.00  0.00    -0.470 N 
ATOM     23  C   LIG    1       -5.996   2.148   0.239  0.00  0.00    +0.190 C 
BRANCH  22  24
ATOM     24  C   LIG    1       -8.245   2.397  -0.467  0.00  0.00    +0.100 A 
ATOM     25  C   LIG    1       -9.253   1.880  -1.270  0.00  0.00    -0.030 A 
ATOM     26  C   LIG    1      -10.564   1.914  -0.838  0.00  0.00    +0.030 A 
ATOM     27  C   LIG    1      -10.876   2.472   0.388  0.00  0.00    -0.030 A 
ATOM     28  C   LIG    1       -9.875   2.993   1.188  0.00  0.00    +0.030 A 
ATOM     29  C   LIG    1       -8.561   2.958   0.764  0.00  0.00    -0.030 A 
ENDBRANCH  22  24
ENDBRANCH   4  19
TORSDOF 5
