REMARK  Name = ZINCvU00000008Ak.0
REMARK                            x       y       z     vdW  Elec       q    Type
REMARK                         _______ _______ _______ _____ _____    ______ ____
ROOT
ATOM      1  C   LIG    1       -1.941   3.406  -0.269  0.00  0.00    -0.150 A 
ATOM      2  C   LIG    1       -1.680   2.037  -0.190  0.00  0.00    +0.180 A 
ATOM      3  C   LIG    1       -0.377   1.589  -0.135  0.00  0.00    -0.690 A 
ATOM      4  C   LIG    1        0.671   2.491  -0.168  0.00  0.00    +0.180 A 
ATOM      5  C   LIG    1        0.421   3.849  -0.250  0.00  0.00    +0.010 A 
ATOM      6  C   LIG    1       -0.879   4.313  -0.302  0.00  0.00    +0.070 A 
ATOM      7 CL   LIG    1       -1.192   6.017  -0.406  0.00  0.00    -0.010 Cl
ENDROOT
BRANCH   1   9
ATOM      8  O   LIG    1       -3.559   5.086  -0.397  0.00  0.00    -0.510 OA
ATOM      9  C   LIG    1       -3.335   3.894  -0.324  0.00  0.00    +0.560 C 
ATOM     10  N   LIG    1       -4.358   3.016  -0.292  0.00  0.00    -0.720 N 
ATOM     11  H   LIG    1       -4.179   2.065  -0.234  0.00  0.00    +0.400 HD
BRANCH  10  12
ATOM     12  C   LIG    1       -5.740   3.500  -0.346  0.00  0.00    +0.250 C 
ATOM     13  C   LIG    1       -6.206   3.869   1.064  0.00  0.00    +0.020 C 
ATOM     14  C   LIG    1       -7.649   4.374   1.007  0.00  0.00    +0.040 C 
ATOM     15  C   LIG    1       -8.552   3.276   0.443  0.00  0.00    +0.040 C 
ATOM     16  C   LIG    1       -8.086   2.906  -0.967  0.00  0.00    -0.010 C 
ATOM     17  C   LIG    1       -6.643   2.401  -0.910  0.00  0.00    +0.050 C 
BRANCH  16  18
ATOM     18  C   LIG    1       -8.989   1.808  -1.531  0.00  0.00    +0.450 C 
ATOM     19  F   LIG    1       -8.922   0.679  -0.707  0.00  0.00    -0.180 F 
ATOM     20  F   LIG    1       -8.563   1.470  -2.820  0.00  0.00    -0.180 F 
ATOM     21  F   LIG    1      -10.309   2.270  -1.582  0.00  0.00    -0.180 F 
ENDBRANCH  16  18
ENDBRANCH  10  12
ENDBRANCH   1   9
BRANCH   3  22
ATOM     22  S   LIG    1       -0.046  -0.139  -0.029  0.00  0.00    +2.690 S 
ATOM     23  O   LIG    1        1.214  -0.345  -0.653  0.00  0.00    -0.940 OA
ATOM     24  O   LIG    1       -1.234  -0.801  -0.440  0.00  0.00    -0.940 OA
BRANCH  22  25
ATOM     25  N   LIG    1        0.162  -0.501   1.574  0.00  0.00    -1.060 N 
ATOM     26  H   LIG    1        1.017  -0.830   1.890  0.00  0.00    +0.430 HD
BRANCH  25  27
ATOM     27  C   LIG    1       -0.897  -0.331   2.471  0.00  0.00    +0.100 A 
ATOM     28  C   LIG    1       -0.886   0.729   3.368  0.00  0.00    +0.060 A 
ATOM     29  C   LIG    1       -1.935   0.897   4.250  0.00  0.00    -0.010 A 
ATOM     30  C   LIG    1       -2.992   0.003   4.249  0.00  0.00    +0.110 A 
ATOM     31  C   LIG    1       -3.003  -1.058   3.360  0.00  0.00    +0.000 A 
ATOM     32  F   LIG    1       -4.015   0.167   5.116  0.00  0.00    -0.130 F 
ATOM     33  C   LIG    1       -1.958  -1.227   2.472  0.00  0.00    +0.080 A 
ENDBRANCH  25  27
ENDBRANCH  22  25
ENDBRANCH   3  22
TORSDOF 6
