REMARK  Name = ZINCvU00000008aK.1
REMARK                            x       y       z     vdW  Elec       q    Type
REMARK                         _______ _______ _______ _____ _____    ______ ____
ROOT
ATOM      1  C   LIG    1       -2.438  -2.869   0.010  0.00  0.00    +0.210 A 
ATOM      2  N   LIG    1       -3.646  -2.365   0.031  0.00  0.00    -0.360 NA
ATOM      3  O   LIG    1       -4.473  -3.252   0.028  0.00  0.00    +0.100 OA
ATOM      4  C   LIG    1       -3.861  -4.446   0.015  0.00  0.00    +0.230 A 
ATOM      5  N   LIG    1       -2.563  -4.213   0.004  0.00  0.00    -0.420 NA
ENDROOT
BRANCH   1  12
ATOM      6  F   LIG    1        0.082  -4.129  -0.022  0.00  0.00    -0.110 F 
ATOM      7  C   LIG    1        0.055  -2.779  -0.014  0.00  0.00    +0.130 A 
ATOM      8  C   LIG    1        1.238  -2.063  -0.022  0.00  0.00    +0.030 A 
ATOM      9  C   LIG    1        1.214  -0.681  -0.019  0.00  0.00    +0.010 A 
ATOM     10  C   LIG    1        0.002  -0.004   0.002  0.00  0.00    +0.090 A 
ATOM     11  C   LIG    1       -1.188  -0.712   0.010  0.00  0.00    +0.080 A 
ATOM     12  C   LIG    1       -1.166  -2.104   0.001  0.00  0.00    -0.030 A 
BRANCH  10  13
ATOM     13  O   LIG    1       -0.016   1.355   0.009  0.00  0.00    -0.310 OA
BRANCH  13  14
ATOM     14  C   LIG    1        1.248   2.021   0.001  0.00  0.00    +0.600 C 
ATOM     15  F   LIG    1        1.957   1.661  -1.150  0.00  0.00    -0.200 F 
ATOM     16  F   LIG    1        1.979   1.649   1.134  0.00  0.00    -0.200 F 
ENDBRANCH  13  14
ENDBRANCH  10  13
ENDBRANCH   1  12
BRANCH   4  17
ATOM     17  C   LIG    1       -4.518  -5.772   0.015  0.00  0.00    +0.200 A 
ATOM     18  C   LIG    1       -5.907  -5.854   0.034  0.00  0.00    +0.020 A 
ATOM     19  C   LIG    1       -6.510  -7.113   0.027  0.00  0.00    +0.020 A 
ATOM     20  C   LIG    1       -5.686  -8.242   0.013  0.00  0.00    +0.000 A 
ATOM     21  C   LIG    1       -4.314  -8.076   0.001  0.00  0.00    +0.290 A 
ATOM     22  N   LIG    1       -3.776  -6.874   0.002  0.00  0.00    -0.440 NA
BRANCH  19  23
ATOM     23  C   LIG    1       -7.987  -7.250   0.041  0.00  0.00    -0.140 A 
ATOM     24  C   LIG    1       -8.803  -6.115   0.055  0.00  0.00    +0.330 A 
ATOM     25  N   LIG    1      -10.114  -6.214   0.067  0.00  0.00    -0.490 NA
ATOM     26  C   LIG    1      -10.727  -7.390   0.066  0.00  0.00    +0.290 A 
ATOM     27  N   LIG    1      -12.052  -7.756   0.076  0.00  0.00    -0.580 N 
ATOM     28  H   LIG    1      -12.799  -7.138   0.087  0.00  0.00    +0.420 HD
ATOM     29  C   LIG    1      -12.162  -9.121   0.069  0.00  0.00    +0.250 A 
ATOM     30  C   LIG    1      -10.941  -9.679   0.054  0.00  0.00    -0.030 A 
ATOM     31  C   LIG    1       -9.973  -8.580   0.052  0.00  0.00    -0.150 A 
ATOM     32  C   LIG    1       -8.580  -8.512   0.033  0.00  0.00    +0.140 A 
ENDBRANCH  19  23
ENDBRANCH   4  17
TORSDOF 5
