REMARK  Name = ZINCpe000027pGTw.0
REMARK                            x       y       z     vdW  Elec       q    Type
REMARK                         _______ _______ _______ _____ _____    ______ ____
ROOT
ATOM      1  N   LIG    1        4.941  -0.128  -1.867  0.00  0.00    -0.730 N 
ATOM      2  H   LIG    1        5.213   0.602  -1.289  0.00  0.00    +0.400 HD
ATOM      3  C   LIG    1        4.052  -1.041  -1.427  0.00  0.00    +0.530 C 
ATOM      4  O   LIG    1        3.711  -1.953  -2.149  0.00  0.00    -0.500 OA
ENDROOT
BRANCH   3   5
ATOM      5  C   LIG    1        3.482  -0.927  -0.036  0.00  0.00    +0.230 C 
ATOM      6  N   LIG    1        2.904  -2.224   0.387  0.00  0.00    -0.620 NA
ATOM      7  H   LIG    1        2.984  -2.346   1.386  0.00  0.00    +0.360 HD
ATOM      8  C   LIG    1        1.484  -2.133  -0.024  0.00  0.00    +0.310 C 
ATOM      9  C   LIG    1        1.148  -0.661  -0.012  0.00  0.00    +0.160 A 
ATOM     10  N   LIG    1        0.002  -0.004   0.002  0.00  0.00    -0.500 NA
ATOM     11  C   LIG    1       -0.016   1.315   0.009  0.00  0.00    +0.520 A 
ATOM     12  N   LIG    1        1.094   2.026   0.003  0.00  0.00    -0.510 NA
ATOM     13  C   LIG    1        2.279   1.435  -0.012  0.00  0.00    +0.350 A 
ATOM     14  C   LIG    1        2.336   0.054  -0.020  0.00  0.00    -0.250 A 
ENDBRANCH   3   5
BRANCH   1  15
ATOM     15  C   LIG    1        5.495  -0.239  -3.219  0.00  0.00    +0.400 C 
BRANCH  15  22
ATOM     16  C   LIG    1        8.729   4.678  -4.451  0.00  0.00    +0.120 A 
ATOM     17  C   LIG    1        9.793   3.924  -3.965  0.00  0.00    -0.030 A 
ATOM     18  C   LIG    1        9.589   2.636  -3.519  0.00  0.00    +0.060 A 
ATOM     19  C   LIG    1        8.316   2.085  -3.554  0.00  0.00    +0.020 A 
ATOM     20  C   LIG    1        7.237   2.840  -4.044  0.00  0.00    +0.080 A 
ATOM     21  N   LIG    1        6.134   2.052  -3.964  0.00  0.00    -0.470 NA
ATOM     22  C   LIG    1        6.457   0.896  -3.462  0.00  0.00    +0.270 A 
ATOM     23  N   LIG    1        7.790   0.859  -3.193  0.00  0.00    -0.480 N 
ATOM     24  C   LIG    1        8.530  -0.272  -2.627  0.00  0.00    +0.330 C 
ATOM     25  C   LIG    1        7.457   4.144  -4.494  0.00  0.00    +0.040 A 
BRANCH  16  27
ATOM     26  C   LIG    1       10.285   6.439  -4.818  0.00  0.00    +0.250 C 
ATOM     27  O   LIG    1        8.945   5.947  -4.888  0.00  0.00    -0.310 OA
ENDBRANCH  16  27
ENDBRANCH  15  22
ENDBRANCH   1  15
TORSDOF 4
