REMARK  Name = ZINC5b0000002omr.0
REMARK                            x       y       z     vdW  Elec       q    Type
REMARK                         _______ _______ _______ _____ _____    ______ ____
ROOT
ATOM      1  C   LIG    1       -2.451   0.944   0.019  0.00  0.00    +0.210 C 
ATOM      2  C   LIG    1       -3.307   1.388   1.207  0.00  0.00    +0.090 C 
ENDROOT
BRANCH   1   3
ATOM      3  N   LIG    1       -3.177   1.203  -1.232  0.00  0.00    -0.640 N 
ATOM      4  H   LIG    1       -2.612   0.911  -2.015  0.00  0.00    +0.440 HD
ATOM      5  H   LIG    1       -3.373   2.190  -1.308  0.00  0.00    +0.430 HD
ATOM      6  H   LIG    1       -4.044   0.687  -1.230  0.00  0.00    +0.440 HD
ENDBRANCH   1   3
BRANCH   1   8
ATOM      7  C   LIG    1       -0.013   1.076   0.008  0.00  0.00    +0.130 C 
ATOM      8  C   LIG    1       -1.156   1.715   0.017  0.00  0.00    -0.100 C 
ENDBRANCH   1   8
TORSDOF 2
