REMARK  Name = ZINCtV00000L6kLK.1
REMARK                            x       y       z     vdW  Elec       q    Type
REMARK                         _______ _______ _______ _____ _____    ______ ____
ROOT
ATOM      1  C   LIG    1        3.468  -3.753  -0.269  0.00  0.00    +0.060 C 
ATOM      2  C   LIG    1        4.894  -4.222   0.005  0.00  0.00    +0.020 C 
ATOM      3  C   LIG    1        5.818  -3.592  -1.046  0.00  0.00    +0.010 C 
ATOM      4  C   LIG    1        5.876  -2.088  -0.783  0.00  0.00    +0.080 C 
ATOM      5  C   LIG    1        4.494  -1.519  -0.636  0.00  0.00    -0.250 C 
ATOM      6  C   LIG    1        4.325  -0.013  -0.767  0.00  0.00    +0.350 C 
ATOM      7  N   LIG    1        2.966   0.510  -0.610  0.00  0.00    -0.460 N 
ATOM      8  N   LIG    1        2.388   1.780  -0.651  0.00  0.00    -0.490 N 
ATOM      9  H   LIG    1        2.845   2.620  -0.810  0.00  0.00    +0.450 HD
ATOM     10  C   LIG    1        1.057   1.605  -0.425  0.00  0.00    +0.620 A 
ATOM     11  N   LIG    1        0.807   0.335  -0.255  0.00  0.00    -0.520 NA
ATOM     12  C   LIG    1        1.945  -0.386  -0.358  0.00  0.00    +0.560 A 
ATOM     13  N   LIG    1        2.190  -1.667  -0.266  0.00  0.00    -0.570 NA
ATOM     14  C   LIG    1        3.412  -2.250  -0.397  0.00  0.00    +0.190 C 
ENDROOT
BRANCH   6  15
ATOM     15  C   LIG    1        4.826   0.396  -2.129  0.00  0.00    -0.110 A 
ATOM     16  C   LIG    1        4.022   0.219  -3.241  0.00  0.00    +0.020 A 
ATOM     17  C   LIG    1        4.474   0.596  -4.489  0.00  0.00    +0.020 A 
ATOM     18  C   LIG    1        5.747   1.146  -4.630  0.00  0.00    -0.040 A 
ATOM     19  C   LIG    1        6.554   1.317  -3.507  0.00  0.00    +0.020 A 
ATOM     20  C   LIG    1        6.090   0.942  -2.263  0.00  0.00    +0.030 A 
BRANCH  18  21
ATOM     21  C   LIG    1        6.241   1.547  -5.970  0.00  0.00    -0.050 A 
ATOM     22  C   LIG    1        7.511   2.102  -6.110  0.00  0.00    +0.020 A 
ATOM     23  C   LIG    1        7.967   2.469  -7.360  0.00  0.00    +0.010 A 
ATOM     24  C   LIG    1        7.161   2.297  -8.471  0.00  0.00    +0.000 A 
ATOM     25  C   LIG    1        5.897   1.751  -8.337  0.00  0.00    +0.010 A 
ATOM     26  C   LIG    1        5.433   1.376  -7.093  0.00  0.00    +0.010 A 
ENDBRANCH  18  21
ENDBRANCH   6  15
BRANCH   1  28
ATOM     27  C   LIG    1        1.103  -3.922   0.521  0.00  0.00    +0.030 C 
ATOM     28  C   LIG    1        2.564  -4.193   0.885  0.00  0.00    -0.050 C 
ATOM     29  C   LIG    1        2.929  -3.409   2.147  0.00  0.00    +0.020 C 
ATOM     30  C   LIG    1        2.756  -5.689   1.141  0.00  0.00    +0.000 C 
ENDBRANCH   1  28
TORSDOF 3
