REMARK  Name = ZINCpk00000ea8te.0
REMARK                            x       y       z     vdW  Elec       q    Type
REMARK                         _______ _______ _______ _____ _____    ______ ____
ROOT
ATOM      1  C   LIG    1        1.255   2.100   0.001  0.00  0.00    -0.070 A 
ATOM      2  C   LIG    1        2.474   1.411  -0.014  0.00  0.00    +0.060 A 
ATOM      3  C   LIG    1        3.658   2.092  -0.022  0.00  0.00    +0.100 A 
ATOM      4  C   LIG    1        3.656   3.487  -0.014  0.00  0.00    -0.170 A 
ATOM      5  C   LIG    1        4.908   4.260  -0.021  0.00  0.00    +0.550 A 
ATOM      6  N   LIG    1        4.811   5.610  -0.013  0.00  0.00    -0.520 N 
ATOM      7  C   LIG    1        3.587   6.217   0.002  0.00  0.00    +0.390 A 
ATOM      8  N   LIG    1        2.459   5.551   0.009  0.00  0.00    -0.530 NA
ATOM      9  O   LIG    1        5.992   3.707  -0.034  0.00  0.00    -0.500 OA
ATOM     10  C   LIG    1        2.435   4.197   0.001  0.00  0.00    +0.160 A 
ATOM     11  C   LIG    1        1.230   3.489   0.003  0.00  0.00    +0.110 A 
ENDROOT
BRANCH   1  12
ATOM     12  C   LIG    1       -0.016   1.343   0.009  0.00  0.00    +0.510 C 
ATOM     13  O   LIG    1       -1.076   1.935   0.018  0.00  0.00    -0.490 OA
BRANCH  12  15
ATOM     14  C   LIG    1       -1.282  -0.681   0.011  0.00  0.00    +0.290 C 
ATOM     15  O   LIG    1        0.002  -0.004   0.002  0.00  0.00    -0.350 OA
ENDBRANCH  12  15
ENDBRANCH   1  12
BRANCH   7  16
ATOM     16  S   LIG    1        3.524   7.978   0.013  0.00  0.00    +0.040 S 
BRANCH  16  17
ATOM     17  C   LIG    1        1.731   8.227   0.031  0.00  0.00    +0.100 C 
BRANCH  17  18
ATOM     18  C   LIG    1        1.425   9.726   0.043  0.00  0.00    +0.210 C 
BRANCH  18  19
ATOM     19  O   LIG    1        0.009   9.923   0.058  0.00  0.00    -0.570 OA
ATOM     20  H   LIG    1       -0.258  10.852   0.066  0.00  0.00    +0.390 HD
ENDBRANCH  18  19
ENDBRANCH  17  18
ENDBRANCH  16  17
ENDBRANCH   7  16
BRANCH   6  21
ATOM     21  C   LIG    1        6.027   6.426  -0.020  0.00  0.00    +0.300 C 
BRANCH  21  22
ATOM     22  C   LIG    1        6.436   6.719  -1.465  0.00  0.00    +0.150 C 
ATOM     23  C   LIG    1        7.782   7.476  -1.485  0.00  0.00    +0.020 C 
ATOM     24  C   LIG    1        7.562   8.504  -2.630  0.00  0.00    +0.010 C 
ATOM     25  C   LIG    1        6.052   8.808  -2.469  0.00  0.00    +0.200 C 
ATOM     26  O   LIG    1        5.456   7.558  -2.087  0.00  0.00    -0.360 OA
ENDBRANCH  21  22
ENDBRANCH   6  21
TORSDOF 8
