REMARK  Name = ZINCvU0000000AZ3.0
REMARK                            x       y       z     vdW  Elec       q    Type
REMARK                         _______ _______ _______ _____ _____    ______ ____
ROOT
ATOM      1  O   LIG    1        3.162   0.162  -1.656  0.00  0.00    -0.420 OA
ATOM      2  C   LIG    1        2.821   1.328  -1.587  0.00  0.00    +0.490 C 
ATOM      3  O   LIG    1        3.578   2.383  -1.216  0.00  0.00    -0.290 OA
ATOM      4  C   LIG    1        2.823   3.497  -1.275  0.00  0.00    +0.360 C 
ATOM      5  N   LIG    1        1.608   3.231  -1.670  0.00  0.00    -0.490 NA
ATOM      6  C   LIG    1        1.495   1.890  -1.890  0.00  0.00    -0.090 C 
ATOM      7  C   LIG    1        0.371   1.202  -2.315  0.00  0.00    +0.250 C 
ENDROOT
BRANCH   7   8
ATOM      8  C   LIG    1       -0.831   1.901  -2.568  0.00  0.00    -0.130 A 
ATOM      9  C   LIG    1       -1.359   2.789  -1.620  0.00  0.00    +0.180 A 
ATOM     10  C   LIG    1       -2.542   3.477  -1.881  0.00  0.00    -0.010 A 
ATOM     11  C   LIG    1       -3.227   3.309  -3.043  0.00  0.00    +0.080 A 
ATOM     12  C   LIG    1       -2.760   2.429  -4.038  0.00  0.00    -0.070 A 
ATOM     13  C   LIG    1       -3.462   2.251  -5.240  0.00  0.00    +0.040 A 
ATOM     14  C   LIG    1       -2.981   1.390  -6.181  0.00  0.00    +0.010 A 
ATOM     15  C   LIG    1       -1.801   0.685  -5.969  0.00  0.00    +0.030 A 
ATOM     16  C   LIG    1       -1.093   0.835  -4.812  0.00  0.00    +0.010 A 
ATOM     17  C   LIG    1       -1.559   1.709  -3.826  0.00  0.00    -0.010 A 
BRANCH   9  18
ATOM     18  O   LIG    1       -0.711   2.983  -0.445  0.00  0.00    -0.490 OA
ATOM     19  H   LIG    1       -0.063   3.701  -0.467  0.00  0.00    +0.400 HD
ENDBRANCH   9  18
ENDBRANCH   7   8
BRANCH   4  20
ATOM     20  C   LIG    1        3.310   4.849  -0.940  0.00  0.00    -0.080 A 
ATOM     21  C   LIG    1        2.451   5.947  -1.037  0.00  0.00    +0.120 A 
ATOM     22  C   LIG    1        2.908   7.207  -0.719  0.00  0.00    -0.060 A 
ATOM     23  C   LIG    1        4.224   7.388  -0.312  0.00  0.00    +0.160 A 
ATOM     24  C   LIG    1        5.083   6.300  -0.220  0.00  0.00    +0.000 A 
ATOM     25  C   LIG    1        4.633   5.036  -0.531  0.00  0.00    +0.120 A 
BRANCH  23  26
ATOM     26  O   LIG    1        4.672   8.633  -0.004  0.00  0.00    -0.250 OA
BRANCH  26  27
ATOM     27  C   LIG    1        3.796   9.667  -0.095  0.00  0.00    +0.070 A 
ATOM     28  C   LIG    1        3.671  10.369  -1.286  0.00  0.00    +0.010 A 
ATOM     29  C   LIG    1        2.775  11.416  -1.378  0.00  0.00    +0.020 A 
ATOM     30  C   LIG    1        2.011  11.773  -0.282  0.00  0.00    +0.020 A 
ATOM     31  C   LIG    1        2.139  11.079   0.908  0.00  0.00    +0.020 A 
ATOM     32  C   LIG    1        3.029  10.027   1.003  0.00  0.00    +0.010 A 
ENDBRANCH  26  27
ENDBRANCH  23  26
ENDBRANCH   4  20
TORSDOF 5
