REMARK  Name = ZINCpe000000YzsV.0
REMARK                            x       y       z     vdW  Elec       q    Type
REMARK                         _______ _______ _______ _____ _____    ______ ____
ROOT
ATOM      1  N   LIG    1       -2.450   2.022   5.023  0.00  0.00    -0.720 N 
ATOM      2  H   LIG    1       -1.985   2.785   5.400  0.00  0.00    +0.400 HD
ATOM      3  C   LIG    1       -3.575   1.563   5.606  0.00  0.00    +0.570 C 
ATOM      4  O   LIG    1       -4.157   0.606   5.134  0.00  0.00    -0.530 OA
ENDROOT
BRANCH   1   8
ATOM      5  N   LIG    1       -0.589   1.569   1.270  0.00  0.00    -0.520 NA
ATOM      6  C   LIG    1       -2.032   1.303   1.326  0.00  0.00    +0.180 C 
ATOM      7  C   LIG    1       -2.623   1.946   2.582  0.00  0.00    +0.030 C 
ATOM      8  C   LIG    1       -1.929   1.369   3.820  0.00  0.00    +0.230 C 
ATOM      9  C   LIG    1       -0.422   1.618   3.713  0.00  0.00    +0.040 C 
ATOM     10  C   LIG    1        0.105   0.984   2.424  0.00  0.00    +0.180 C 
BRANCH   5  11
ATOM     11  C   LIG    1       -0.013   1.086   0.008  0.00  0.00    +0.200 C 
BRANCH  11  15
ATOM     12  N   LIG    1        2.170   1.182  -1.152  0.00  0.00    -0.860 N 
ATOM     13  H   LIG    1        3.077   1.514  -1.241  0.00  0.00    +0.400 HD
ATOM     14  H   LIG    1        1.819   0.549  -1.798  0.00  0.00    +0.400 HD
ATOM     15  C   LIG    1        1.397   1.601  -0.131  0.00  0.00    +0.520 C 
ATOM     16  O   LIG    1        1.835   2.392   0.677  0.00  0.00    -0.520 OA
ENDBRANCH  11  15
ENDBRANCH   5  11
ENDBRANCH   1   8
BRANCH   3  17
ATOM     17  C   LIG    1       -4.099   2.221   6.820  0.00  0.00    -0.260 A 
ATOM     18  C   LIG    1       -3.439   3.321   7.383  0.00  0.00    +0.360 A 
ATOM     19  N   LIG    1       -3.943   3.885   8.464  0.00  0.00    -0.510 NA
ATOM     20  C   LIG    1       -5.052   3.417   9.023  0.00  0.00    +0.390 A 
ATOM     21  N   LIG    1       -5.703   2.374   8.523  0.00  0.00    -0.510 NA
ATOM     22  C   LIG    1       -5.267   1.759   7.441  0.00  0.00    +0.410 A 
BRANCH  20  23
ATOM     23  C   LIG    1       -5.578   4.078  10.241  0.00  0.00    -0.060 A 
ATOM     24  C   LIG    1       -6.745   3.608  10.843  0.00  0.00    +0.080 A 
ATOM     25  C   LIG    1       -7.226   4.224  11.980  0.00  0.00    +0.000 A 
ATOM     26  C   LIG    1       -6.561   5.312  12.516  0.00  0.00    +0.040 A 
ATOM     27  C   LIG    1       -5.406   5.787  11.919  0.00  0.00    +0.000 A 
ATOM     28  C   LIG    1       -4.912   5.175  10.785  0.00  0.00    +0.080 A 
ENDBRANCH  20  23
ENDBRANCH   3  17
TORSDOF 5
