REMARK  Name = ZINCpk00000y6wBe.1
REMARK                            x       y       z     vdW  Elec       q    Type
REMARK                         _______ _______ _______ _____ _____    ______ ____
ROOT
ATOM      1  C   LIG    1       -1.187  -1.847   3.773  0.00  0.00    +0.110 C 
ATOM      2  C   LIG    1        0.063  -2.336   3.037  0.00  0.00    +0.170 C 
ENDROOT
BRANCH   2   3
ATOM      3  N   LIG    1        0.083  -3.805   3.029  0.00  0.00    -0.370 N 
ATOM      4  C   LIG    1        0.105  -4.312   4.413  0.00  0.00    +0.270 C 
ATOM      5  C   LIG    1        1.059  -5.516   4.440  0.00  0.00    +0.010 C 
ATOM      6  C   LIG    1        0.409  -6.733   5.000  0.00  0.00    +0.050 C 
ATOM      7  C   LIG    1        0.536  -8.054   4.312  0.00  0.00    +0.170 C 
ATOM      8  C   LIG    1        1.311  -8.052   3.011  0.00  0.00    +0.010 C 
ATOM      9  C   LIG    1        1.054  -6.751   2.251  0.00  0.00    +0.030 C 
ATOM     10  C   LIG    1        1.662  -5.619   3.049  0.00  0.00    +0.020 C 
ATOM     11  C   LIG    1        1.306  -4.285   2.357  0.00  0.00    +0.280 C 
ATOM     12  H   LIG    1       -0.733  -4.156   2.549  0.00  0.00    +0.430 HD
BRANCH   7  13
ATOM     13  O   LIG    1       -0.778  -8.548   4.048  0.00  0.00    -0.570 OA
ATOM     14  H   LIG    1       -0.794  -9.406   3.601  0.00  0.00    +0.390 HD
ENDBRANCH   7  13
ENDBRANCH   2   3
BRANCH   2  15
ATOM     15  C   LIG    1        0.042  -1.826   1.619  0.00  0.00    +0.500 C 
ATOM     16  N   LIG    1        0.022  -0.500   1.381  0.00  0.00    -0.690 N 
ATOM     17  H   LIG    1        0.020   0.127   2.121  0.00  0.00    +0.410 HD
ATOM     18  O   LIG    1        0.044  -2.609   0.693  0.00  0.00    -0.530 OA
BRANCH  16  19
ATOM     19  C   LIG    1        0.002  -0.004   0.002  0.00  0.00    +0.330 C 
BRANCH  19  20
ATOM     20  C   LIG    1       -0.018   1.503   0.010  0.00  0.00    -0.150 A 
ATOM     21  C   LIG    1       -1.228   2.175   0.020  0.00  0.00    +0.010 A 
ATOM     22  C   LIG    1       -1.254   3.554   0.032  0.00  0.00    +0.040 A 
ATOM     23  C   LIG    1       -0.056   4.272   0.024  0.00  0.00    -0.110 A 
ATOM     24  C   LIG    1        1.161   3.587   0.009  0.00  0.00    +0.040 A 
ATOM     25  C   LIG    1        1.173   2.208   0.003  0.00  0.00    +0.000 A 
BRANCH  23  26
ATOM     26  C   LIG    1       -0.076   5.747   0.032  0.00  0.00    +0.510 C 
ATOM     27  O   LIG    1       -1.143   6.344   0.045  0.00  0.00    -0.680 OA
ATOM     28  O   LIG    1        0.975   6.373   0.025  0.00  0.00    -0.680 OA
ENDBRANCH  23  26
ENDBRANCH  19  20
ENDBRANCH  16  19
ENDBRANCH   2  15
TORSDOF 6
