REMARK  Name = ZINCpk00000y6wBe.0
REMARK                            x       y       z     vdW  Elec       q    Type
REMARK                         _______ _______ _______ _____ _____    ______ ____
ROOT
ATOM      1  C   LIG    1       -4.124   0.393   4.370  0.00  0.00    +0.110 C 
ATOM      2  C   LIG    1       -2.986  -0.212   3.546  0.00  0.00    +0.170 C 
ENDROOT
BRANCH   2   3
ATOM      3  N   LIG    1       -2.127   0.863   3.034  0.00  0.00    -0.380 N 
ATOM      4  C   LIG    1       -1.071   0.310   2.140  0.00  0.00    +0.280 C 
ATOM      5  C   LIG    1       -0.631   1.527   1.291  0.00  0.00    +0.000 C 
ATOM      6  C   LIG    1       -0.013   1.086   0.008  0.00  0.00    +0.070 C 
ATOM      7  C   LIG    1       -0.664   1.547  -1.275  0.00  0.00    +0.180 C 
ATOM      8  C   LIG    1       -1.267   2.941  -1.105  0.00  0.00    +0.010 C 
ATOM      9  C   LIG    1       -2.379   2.836  -0.062  0.00  0.00    +0.050 C 
ATOM     10  C   LIG    1       -1.812   2.469   1.289  0.00  0.00    +0.010 C 
ATOM     11  C   LIG    1       -2.900   1.770   2.141  0.00  0.00    +0.280 C 
ATOM     12  H   LIG    1       -1.715   1.381   3.795  0.00  0.00    +0.430 HD
BRANCH   7  13
ATOM     13  O   LIG    1       -1.698   0.628  -1.634  0.00  0.00    -0.570 OA
ATOM     14  H   LIG    1       -2.163   0.859  -2.450  0.00  0.00    +0.380 HD
ENDBRANCH   7  13
ENDBRANCH   2   3
BRANCH   2  15
ATOM     15  C   LIG    1       -2.171  -1.134   4.417  0.00  0.00    +0.500 C 
ATOM     16  N   LIG    1       -2.753  -2.200   5.001  0.00  0.00    -0.690 N 
ATOM     17  H   LIG    1       -3.697  -2.374   4.860  0.00  0.00    +0.410 HD
ATOM     18  O   LIG    1       -0.991  -0.915   4.593  0.00  0.00    -0.540 OA
BRANCH  16  19
ATOM     19  C   LIG    1       -1.961  -3.095   5.847  0.00  0.00    +0.330 C 
BRANCH  19  20
ATOM     20  C   LIG    1       -2.842  -4.199   6.373  0.00  0.00    -0.150 A 
ATOM     21  C   LIG    1       -3.507  -4.035   7.576  0.00  0.00    +0.010 A 
ATOM     22  C   LIG    1       -4.319  -5.039   8.061  0.00  0.00    +0.040 A 
ATOM     23  C   LIG    1       -4.460  -6.228   7.341  0.00  0.00    -0.110 A 
ATOM     24  C   LIG    1       -3.782  -6.388   6.130  0.00  0.00    +0.040 A 
ATOM     25  C   LIG    1       -2.977  -5.374   5.655  0.00  0.00    +0.010 A 
BRANCH  23  26
ATOM     26  C   LIG    1       -5.323  -7.308   7.856  0.00  0.00    +0.510 C 
ATOM     27  O   LIG    1       -5.916  -7.164   8.916  0.00  0.00    -0.680 OA
ATOM     28  O   LIG    1       -5.446  -8.347   7.223  0.00  0.00    -0.680 OA
ENDBRANCH  23  26
ENDBRANCH  19  20
ENDBRANCH  16  19
ENDBRANCH   2  15
TORSDOF 6
