REMARK  Name = ZINCtV00000L6jK3.0
REMARK                            x       y       z     vdW  Elec       q    Type
REMARK                         _______ _______ _______ _____ _____    ______ ____
ROOT
ATOM      1  C   LIG    1        7.785  -2.979  -2.337  0.00  0.00    +0.190 C 
ATOM      2  C   LIG    1        6.481  -2.264  -2.539  0.00  0.00    -0.090 C 
ATOM      3  C   LIG    1        5.740  -1.843  -1.479  0.00  0.00    +0.160 C 
ATOM      4  N   LIG    1        6.173  -2.085  -0.196  0.00  0.00    -0.640 N 
ATOM      5  H   LIG    1        5.815  -1.562   0.538  0.00  0.00    +0.420 HD
ATOM      6  C   LIG    1        7.103  -3.057   0.054  0.00  0.00    +0.220 C 
ATOM      7  C   LIG    1        7.224  -3.588   1.461  0.00  0.00    +0.090 C 
ATOM      8  C   LIG    1        7.663  -5.053   1.420  0.00  0.00    +0.060 C 
ATOM      9  C   LIG    1        9.000  -5.140   0.677  0.00  0.00    +0.030 C 
ATOM     10  C   LIG    1        8.839  -4.535  -0.691  0.00  0.00    +0.400 C 
ATOM     11  O   LIG    1        9.541  -4.928  -1.602  0.00  0.00    -0.460 OA
ATOM     12  C   LIG    1        7.893  -3.524  -0.936  0.00  0.00    -0.260 C 
ENDROOT
BRANCH   1  17
ATOM     13  C   LIG    1       12.147   0.692  -3.285  0.00  0.00    +0.090 C 
ATOM     14  C   LIG    1       11.009  -0.266  -3.038  0.00  0.00    -0.090 A 
ATOM     15  C   LIG    1       10.868  -1.390  -3.829  0.00  0.00    +0.000 A 
ATOM     16  C   LIG    1        9.825  -2.268  -3.602  0.00  0.00    +0.030 A 
ATOM     17  C   LIG    1        8.923  -2.022  -2.584  0.00  0.00    -0.080 A 
ATOM     18  C   LIG    1        9.061  -0.894  -1.796  0.00  0.00    +0.010 A 
ATOM     19  C   LIG    1       10.107  -0.019  -2.019  0.00  0.00    +0.000 A 
ENDBRANCH   1  17
BRANCH   2  20
ATOM     20  C   LIG    1        6.012  -2.017  -3.869  0.00  0.00    +0.260 C 
ATOM     21  N   LIG    1        5.639  -1.821  -4.925  0.00  0.00    -0.400 NA
ENDBRANCH   2  20
BRANCH   3  22
ATOM     22  S   LIG    1        4.221  -0.993  -1.750  0.00  0.00    -0.030 S 
BRANCH  22  23
ATOM     23  C   LIG    1        3.711  -0.707  -0.037  0.00  0.00    +0.120 C 
BRANCH  23  24
ATOM     24  C   LIG    1        2.396   0.029  -0.021  0.00  0.00    -0.080 A 
ATOM     25  C   LIG    1        1.208  -0.678  -0.013  0.00  0.00    +0.050 A 
ATOM     26  C   LIG    1        0.002  -0.004   0.002  0.00  0.00    +0.030 A 
ATOM     27  C   LIG    1       -0.017   1.379   0.010  0.00  0.00    -0.020 A 
ATOM     28  C   LIG    1        1.172   2.087   0.002  0.00  0.00    +0.030 A 
ATOM     29 CL   LIG    1       -1.532   2.227   0.021  0.00  0.00    -0.060 Cl
ATOM     30  C   LIG    1        2.378   1.411  -0.013  0.00  0.00    +0.050 A 
ENDBRANCH  23  24
ENDBRANCH  22  23
ENDBRANCH   3  22
TORSDOF 5
