REMARK  Name = ZINCtV00001bB3QQ.0
REMARK                            x       y       z     vdW  Elec       q    Type
REMARK                         _______ _______ _______ _____ _____    ______ ____
ROOT
ATOM      1  C   LIG    1        2.375   3.923   0.001  0.00  0.00    +0.360 A 
ATOM      2  N   LIG    1        3.501   3.220  -0.013  0.00  0.00    -0.480 NA
ATOM      3  C   LIG    1        3.489   1.897  -0.020  0.00  0.00    +0.300 A 
ATOM      4  N   LIG    1        2.383   1.192  -0.014  0.00  0.00    -0.450 NA
ATOM      5  C   LIG    1        1.190   1.798   0.000  0.00  0.00    +0.160 A 
ATOM      6  C   LIG    1       -0.013   1.076   0.008  0.00  0.00    +0.060 A 
ATOM      7  C   LIG    1       -1.199   1.746   0.017  0.00  0.00    +0.070 A 
ATOM      8  C   LIG    1       -1.238   3.138   0.031  0.00  0.00    -0.070 A 
ATOM      9  C   LIG    1       -0.089   3.872   0.024  0.00  0.00    +0.080 A 
ATOM     10  C   LIG    1       -2.570   3.843   0.047  0.00  0.00    +0.100 C 
ATOM     11  C   LIG    1        1.147   3.217   0.008  0.00  0.00    -0.100 A 
ENDROOT
BRANCH   3  12
ATOM     12  C   LIG    1        4.807   1.167  -0.036  0.00  0.00    +0.210 C 
ATOM     13 CL   LIG    1        5.104   0.500  -1.685  0.00  0.00    -0.060 Cl
ATOM     14 CL   LIG    1        4.761  -0.182   1.159  0.00  0.00    -0.060 Cl
ATOM     15 CL   LIG    1        6.132   2.310   0.398  0.00  0.00    -0.040 Cl
ENDBRANCH   3  12
BRANCH   1  17
ATOM     16  N   LIG    1        3.485   5.894   0.002  0.00  0.00    -0.130 NA
ATOM     17  N   LIG    1        2.400   5.294   0.009  0.00  0.00    -0.210 NA
BRANCH  16  18
ATOM     18  C   LIG    1        3.512   7.359   0.010  0.00  0.00    +0.260 C 
BRANCH  18  22
ATOM     19  C   LIG    1        5.585   8.726   3.488  0.00  0.00    +0.230 A 
ATOM     20  C   LIG    1        6.283   8.488   2.311  0.00  0.00    -0.080 A 
ATOM     21  C   LIG    1        5.610   8.046   1.189  0.00  0.00    +0.090 A 
ATOM     22  C   LIG    1        4.243   7.841   1.236  0.00  0.00    -0.150 A 
ATOM     23  C   LIG    1        3.545   8.083   2.405  0.00  0.00    +0.070 A 
ATOM     24  C   LIG    1        4.212   8.519   3.533  0.00  0.00    -0.080 A 
BRANCH  19  25
ATOM     25  N   LIG    1        6.263   9.174   4.625  0.00  0.00    -0.630 N 
BRANCH  25  27
ATOM     26  C   LIG    1        5.488   8.145   6.705  0.00  0.00    +0.010 C 
ATOM     27  C   LIG    1        5.525   9.425   5.866  0.00  0.00    +0.270 C 
ENDBRANCH  25  27
BRANCH  25  28
ATOM     28  C   LIG    1        7.710   9.392   4.576  0.00  0.00    +0.270 C 
ATOM     29  C   LIG    1        7.995  10.835   4.152  0.00  0.00    +0.020 C 
ENDBRANCH  25  28
ENDBRANCH  19  25
ENDBRANCH  18  22
ENDBRANCH  16  18
ENDBRANCH   1  17
TORSDOF 7
