REMARK  Name = ZINCqH00000330Zb.0
REMARK                            x       y       z     vdW  Elec       q    Type
REMARK                         _______ _______ _______ _____ _____    ______ ____
ROOT
ATOM      1  N   LIG    1       -1.927   4.426   2.979  0.00  0.00    -0.630 N 
ATOM      2  H   LIG    1       -1.709   5.185   2.417  0.00  0.00    +0.420 HD
ATOM      3  C   LIG    1       -2.565   4.616   4.151  0.00  0.00    +0.710 C 
ATOM      4  N   LIG    1       -2.900   5.862   4.541  0.00  0.00    -0.720 N 
ATOM      5  H   LIG    1       -2.682   6.621   3.979  0.00  0.00    +0.400 HD
ATOM      6  O   LIG    1       -2.838   3.664   4.856  0.00  0.00    -0.550 OA
ENDROOT
BRANCH   4   7
ATOM      7  C   LIG    1       -3.594   6.068   5.815  0.00  0.00    +0.310 C 
ATOM      8  C   LIG    1       -4.348   7.415   5.802  0.00  0.00    +0.060 C 
ATOM      9  C   LIG    1       -3.311   8.381   6.415  0.00  0.00    +0.090 C 
ATOM     10  C   LIG    1       -2.431   7.514   7.289  0.00  0.00    -0.060 A 
ATOM     11  C   LIG    1       -1.556   7.861   8.306  0.00  0.00    -0.080 A 
ATOM     12  C   LIG    1       -0.847   6.883   8.977  0.00  0.00    +0.060 A 
ATOM     13  C   LIG    1       -1.010   5.554   8.632  0.00  0.00    +0.020 A 
ATOM     14  C   LIG    1       -1.881   5.207   7.618  0.00  0.00    +0.060 A 
ATOM     15 BR   LIG    1       -1.333   9.678   8.779  0.00  0.00    -0.050 Br
ATOM     16  C   LIG    1       -2.593   6.185   6.945  0.00  0.00    -0.110 A 
ENDBRANCH   4   7
BRANCH   1  20
ATOM     17  C   LIG    1       -0.718   1.572   1.248  0.00  0.00    +0.110 A 
ATOM     18  C   LIG    1       -1.139   0.747   2.208  0.00  0.00    -0.140 A 
ATOM     19  S   LIG    1       -1.903   1.716   3.465  0.00  0.00    +0.250 S 
ATOM     20  C   LIG    1       -1.581   3.141   2.576  0.00  0.00    +0.260 A 
ATOM     21  N   LIG    1       -0.964   2.849   1.474  0.00  0.00    -0.490 NA
BRANCH  17  22
ATOM     22  C   LIG    1       -0.013   1.086   0.008  0.00  0.00    +0.150 C 
BRANCH  22  25
ATOM     23  N   LIG    1       -0.288   1.272  -2.443  0.00  0.00    -0.740 N 
ATOM     24  H   LIG    1        0.507   0.726  -2.543  0.00  0.00    +0.400 HD
ATOM     25  C   LIG    1       -0.742   1.585  -1.213  0.00  0.00    +0.520 C 
ATOM     26  O   LIG    1       -1.736   2.268  -1.088  0.00  0.00    -0.520 OA
BRANCH  23  27
ATOM     27  C   LIG    1       -0.997   1.758  -3.630  0.00  0.00    +0.260 C 
BRANCH  27  29
ATOM     28  C   LIG    1       -1.021   1.771  -6.128  0.00  0.00    +0.030 C 
ATOM     29  C   LIG    1       -0.281   1.264  -4.889  0.00  0.00    +0.000 C 
ENDBRANCH  27  29
ENDBRANCH  23  27
ENDBRANCH  22  25
ENDBRANCH  17  22
ENDBRANCH   1  20
TORSDOF 6
