REMARK  Name = ZINCrD000006ViDW.0
REMARK                            x       y       z     vdW  Elec       q    Type
REMARK                         _______ _______ _______ _____ _____    ______ ____
ROOT
ATOM      1  C   LIG    1        0.791   6.213   0.029  0.00  0.00    -0.120 A 
ATOM      2  C   LIG    1       -0.357   5.424  -0.075  0.00  0.00    +0.110 A 
ATOM      3  C   LIG    1       -0.249   4.051  -0.077  0.00  0.00    +0.030 A 
ATOM      4  C   LIG    1        1.002   3.450   0.025  0.00  0.00    +0.130 A 
ATOM      5  C   LIG    1        2.146   4.233   0.135  0.00  0.00    +0.040 A 
ATOM      6  C   LIG    1        2.046   5.606   0.131  0.00  0.00    +0.070 A 
ENDROOT
BRANCH   4   7
ATOM      7  N   LIG    1        1.108   2.057   0.023  0.00  0.00    -0.510 N 
ATOM      8  C   LIG    1        0.579   1.339   1.051  0.00  0.00    +0.580 A 
ATOM      9  N   LIG    1        0.637   0.044   1.120  0.00  0.00    -0.510 NA
ATOM     10  C   LIG    1        1.240  -0.694   0.155  0.00  0.00    +0.140 A 
ATOM     11  C   LIG    1        1.302  -2.087   0.229  0.00  0.00    +0.030 A 
ATOM     12  C   LIG    1        1.924  -2.796  -0.774  0.00  0.00    +0.070 A 
ATOM     13  C   LIG    1        2.491  -2.143  -1.861  0.00  0.00    +0.010 A 
ATOM     14  C   LIG    1        2.442  -0.770  -1.957  0.00  0.00    +0.100 A 
ATOM     15  C   LIG    1        1.818  -0.033  -0.953  0.00  0.00    -0.190 A 
ATOM     16  C   LIG    1        1.735   1.434  -1.002  0.00  0.00    +0.550 A 
ATOM     17  O   LIG    1        2.213   2.063  -1.927  0.00  0.00    -0.490 OA
ENDBRANCH   4   7
BRANCH   1  20
ATOM     18  N   LIG    1        1.788   8.445   0.131  0.00  0.00    -0.660 N 
ATOM     19  H   LIG    1        2.664   8.028   0.125  0.00  0.00    +0.420 HD
ATOM     20  C   LIG    1        0.679   7.685   0.030  0.00  0.00    +0.550 C 
ATOM     21  O   LIG    1       -0.413   8.212  -0.059  0.00  0.00    -0.460 OA
BRANCH  18  27
ATOM     22  C   LIG    1       -1.056  12.269   0.602  0.00  0.00    +0.130 C 
ATOM     23  C   LIG    1        0.328  11.689   0.471  0.00  0.00    +0.160 A 
ATOM     24  C   LIG    1        1.423  12.530   0.465  0.00  0.00    -0.060 A 
ATOM     25  C   LIG    1        2.696  11.990   0.343  0.00  0.00    +0.100 A 
ATOM     26  C   LIG    1        2.822  10.616   0.236  0.00  0.00    -0.070 A 
ATOM     27  C   LIG    1        1.675   9.829   0.243  0.00  0.00    +0.360 A 
ATOM     28  N   LIG    1        0.479  10.383   0.362  0.00  0.00    -0.480 NA
ENDBRANCH  18  27
ENDBRANCH   1  20
TORSDOF 3
