REMARK  Name = ZINCrD00000F5LCO.2
REMARK                            x       y       z     vdW  Elec       q    Type
REMARK                         _______ _______ _______ _____ _____    ______ ____
ROOT
ATOM      1  C   LIG    1       -4.412   1.111  -1.542  0.00  0.00    +0.550 C 
ATOM      2  N   LIG    1       -3.081   1.242  -1.375  0.00  0.00    -0.720 N 
ATOM      3  H   LIG    1       -2.527   1.543  -2.112  0.00  0.00    +0.400 HD
ATOM      4  O   LIG    1       -5.118   0.818  -0.596  0.00  0.00    -0.540 OA
ENDROOT
BRANCH   1   6
ATOM      5  C   LIG    1       -6.305   1.080  -3.060  0.00  0.00    +0.170 C 
ATOM      6  C   LIG    1       -5.012   1.324  -2.868  0.00  0.00    -0.190 C 
BRANCH   6   7
ATOM      7  C   LIG    1       -4.161   1.818  -4.009  0.00  0.00    +0.220 C 
BRANCH   7   8
ATOM      8  N   LIG    1       -4.112   3.286  -3.983  0.00  0.00    -0.530 NA
ATOM      9  C   LIG    1       -3.735   3.777  -2.650  0.00  0.00    +0.160 C 
ATOM     10  C   LIG    1       -3.761   5.308  -2.647  0.00  0.00    +0.160 C 
ATOM     11  O   LIG    1       -2.880   5.795  -3.664  0.00  0.00    -0.370 OA
ATOM     12  C   LIG    1       -3.200   5.328  -4.973  0.00  0.00    +0.120 C 
ATOM     13  C   LIG    1       -4.589   5.847  -5.388  0.00  0.00    +0.010 C 
ATOM     14  C   LIG    1       -4.284   7.121  -6.215  0.00  0.00    +0.020 C 
ATOM     15  C   LIG    1       -3.007   6.725  -6.997  0.00  0.00    +0.020 C 
ATOM     16  C   LIG    1       -2.193   5.883  -5.992  0.00  0.00    +0.040 C 
ATOM     17  C   LIG    1       -3.301   5.824  -1.282  0.00  0.00    +0.060 C 
ATOM     18  C   LIG    1       -3.188   3.801  -5.006  0.00  0.00    +0.160 C 
ENDBRANCH   7   8
ENDBRANCH   6   7
ENDBRANCH   1   6
BRANCH   2  19
ATOM     19  C   LIG    1       -2.471   0.928  -0.081  0.00  0.00    +0.350 C 
BRANCH  19  20
ATOM     20  C   LIG    1       -0.997   1.236  -0.133  0.00  0.00    -0.200 A 
ATOM     21  C   LIG    1        0.000   0.347  -0.262  0.00  0.00    +0.250 A 
ATOM     22  N   LIG    1        1.205   0.995  -0.277  0.00  0.00    -0.590 N 
ATOM     23  H   LIG    1        2.069   0.564  -0.365  0.00  0.00    +0.420 HD
ATOM     24  C   LIG    1        1.008   2.352  -0.149  0.00  0.00    +0.090 A 
ATOM     25  C   LIG    1        1.867   3.445  -0.107  0.00  0.00    -0.010 A 
ATOM     26  C   LIG    1        1.352   4.715   0.032  0.00  0.00    +0.030 A 
ATOM     27  C   LIG    1       -0.017   4.917   0.130  0.00  0.00    -0.020 A 
ATOM     28  C   LIG    1       -0.880   3.858   0.091  0.00  0.00    +0.050 A 
ATOM     29  C   LIG    1       -0.380   2.562  -0.050  0.00  0.00    -0.090 A 
ENDBRANCH  19  20
ENDBRANCH   2  19
TORSDOF 5
