REMARK  Name = ZINCtV000002zjxC.0
REMARK                            x       y       z     vdW  Elec       q    Type
REMARK                         _______ _______ _______ _____ _____    ______ ____
ROOT
ATOM      1  C   LIG    1        2.847   5.008  -0.489  0.00  0.00    +0.520 C 
ATOM      2  N   LIG    1        2.657   3.675  -0.419  0.00  0.00    -0.670 N 
ATOM      3  H   LIG    1        3.405   3.071  -0.551  0.00  0.00    +0.420 HD
ATOM      4  O   LIG    1        1.930   5.764  -0.250  0.00  0.00    -0.490 OA
ENDROOT
BRANCH   2   5
ATOM      5  C   LIG    1        1.380   3.162  -0.157  0.00  0.00    +0.200 A 
ATOM      6  C   LIG    1        0.461   3.917   0.555  0.00  0.00    +0.020 A 
ATOM      7  C   LIG    1       -0.799   3.409   0.813  0.00  0.00    +0.060 A 
ATOM      8  C   LIG    1       -1.149   2.151   0.358  0.00  0.00    -0.020 A 
ATOM      9  C   LIG    1       -0.237   1.388  -0.348  0.00  0.00    +0.100 A 
ATOM     10  C   LIG    1        1.030   1.890  -0.611  0.00  0.00    -0.180 A 
BRANCH  10  11
ATOM     11  S   LIG    1        2.192   0.924  -1.516  0.00  0.00    +0.010 S 
BRANCH  11  12
ATOM     12  C   LIG    1        2.180   1.678  -3.109  0.00  0.00    -0.100 A 
ATOM     13  C   LIG    1        1.274   2.693  -3.392  0.00  0.00    +0.030 A 
ATOM     14  C   LIG    1        1.271   3.286  -4.639  0.00  0.00    +0.050 A 
ATOM     15  C   LIG    1        2.162   2.863  -5.610  0.00  0.00    -0.040 A 
ATOM     16  C   LIG    1        3.062   1.849  -5.333  0.00  0.00    +0.050 A 
ATOM     17 CL   LIG    1        2.150   3.606  -7.179  0.00  0.00    -0.070 Cl
ATOM     18  C   LIG    1        3.073   1.256  -4.086  0.00  0.00    +0.050 A 
ENDBRANCH  11  12
ENDBRANCH  10  11
ENDBRANCH   2   5
BRANCH   1  19
ATOM     19  C   LIG    1        4.199   5.557  -0.864  0.00  0.00    +0.220 C 
BRANCH  19  21
ATOM     20  C   LIG    1        3.920   7.549   0.484  0.00  0.00    +0.200 C 
ATOM     21  N   LIG    1        4.146   7.025  -0.870  0.00  0.00    -0.510 NA
BRANCH  21  22
ATOM     22  C   LIG    1        5.367   7.594  -1.456  0.00  0.00    +0.240 C 
BRANCH  22  23
ATOM     23  C   LIG    1        5.180   9.073  -1.671  0.00  0.00    -0.110 A 
ATOM     24  C   LIG    1        5.522   9.967  -0.671  0.00  0.00    +0.120 A 
ATOM     25  C   LIG    1        5.349  11.327  -0.870  0.00  0.00    -0.010 A 
ATOM     26  C   LIG    1        4.836  11.790  -2.067  0.00  0.00    +0.070 A 
ATOM     27  C   LIG    1        4.494  10.898  -3.065  0.00  0.00    +0.020 A 
ATOM     28  F   LIG    1        6.024   9.514   0.498  0.00  0.00    -0.130 F 
ATOM     29  C   LIG    1        4.671   9.540  -2.870  0.00  0.00    +0.010 A 
ATOM     30 CL   LIG    1        4.248   8.420  -4.128  0.00  0.00    -0.040 Cl
ENDBRANCH  22  23
ENDBRANCH  21  22
ENDBRANCH  19  21
ENDBRANCH   1  19
TORSDOF 7
