REMARK  Name = ZINCrD0000075IuV.0
REMARK                            x       y       z     vdW  Elec       q    Type
REMARK                         _______ _______ _______ _____ _____    ______ ____
ROOT
ATOM      1  O   LIG    1        0.445   0.503   1.998  0.00  0.00    -0.520 OA
ATOM      2  C   LIG    1       -0.354   0.624   1.089  0.00  0.00    +0.600 C 
ATOM      3  N   LIG    1       -0.035   1.357   0.004  0.00  0.00    -0.710 N 
ATOM      4  H   LIG    1       -0.637   1.386  -0.756  0.00  0.00    +0.410 HD
ENDROOT
BRANCH   2   5
ATOM      5  C   LIG    1       -1.671  -0.032   1.173  0.00  0.00    +0.000 A 
ATOM      6  C   LIG    1       -2.048  -0.786   2.246  0.00  0.00    -0.010 A 
ATOM      7  S   LIG    1       -3.631  -1.377   1.982  0.00  0.00    +0.280 S 
ATOM      8  C   LIG    1       -3.694  -0.564   0.422  0.00  0.00    +0.080 A 
ATOM      9  N   LIG    1       -2.580   0.070   0.217  0.00  0.00    -0.390 NA
BRANCH   8  10
ATOM     10  C   LIG    1       -4.843  -0.593  -0.509  0.00  0.00    +0.390 A 
ATOM     11  N   LIG    1       -4.764   0.070  -1.656  0.00  0.00    -0.480 NA
ATOM     12  C   LIG    1       -5.771   0.061  -2.512  0.00  0.00    +0.330 A 
ATOM     13  C   LIG    1       -6.923  -0.644  -2.195  0.00  0.00    -0.060 A 
ATOM     14  C   LIG    1       -6.974  -1.321  -0.986  0.00  0.00    +0.340 A 
ATOM     15  N   LIG    1       -5.931  -1.276  -0.176  0.00  0.00    -0.510 NA
ENDBRANCH   8  10
ENDBRANCH   2   5
BRANCH   3  16
ATOM     16  C   LIG    1        1.223   2.106  -0.030  0.00  0.00    +0.310 C 
BRANCH  16  17
ATOM     17  C   LIG    1        1.045   3.421   0.685  0.00  0.00    -0.110 A 
ATOM     18  C   LIG    1       -0.123   4.142   0.523  0.00  0.00    +0.050 A 
ATOM     19  C   LIG    1       -0.289   5.346   1.182  0.00  0.00    -0.030 A 
ATOM     20  C   LIG    1        0.719   5.834   1.996  0.00  0.00    +0.100 A 
ATOM     21  C   LIG    1        1.890   5.113   2.153  0.00  0.00    -0.010 A 
ATOM     22  F   LIG    1        0.559   7.012   2.637  0.00  0.00    -0.140 F 
ATOM     23  C   LIG    1        2.052   3.907   1.498  0.00  0.00    +0.070 A 
ENDBRANCH  16  17
BRANCH  16  24
ATOM     24  C   LIG    1        1.623   2.366  -1.483  0.00  0.00    +0.150 C 
ATOM     25  C   LIG    1        1.712   1.035  -2.263  0.00  0.00    +0.010 C 
ATOM     26  C   LIG    1        2.915   1.235  -3.212  0.00  0.00    +0.000 C 
ATOM     27  C   LIG    1        3.411   2.663  -2.893  0.00  0.00    +0.200 C 
ATOM     28  O   LIG    1        2.956   2.920  -1.547  0.00  0.00    -0.360 OA
ENDBRANCH  16  24
ENDBRANCH   3  16
TORSDOF 5
