REMARK  Name = ZINCrD00000F5Lzx.0
REMARK                            x       y       z     vdW  Elec       q    Type
REMARK                         _______ _______ _______ _____ _____    ______ ____
ROOT
ATOM      1  C   LIG    1        2.372   6.802   0.874  0.00  0.00    +0.200 C 
ATOM      2  N   LIG    1        3.432   6.695   1.612  0.00  0.00    -0.210 NA
ENDROOT
BRANCH   1   9
ATOM      3  C   LIG    1       -0.229   6.744  -0.940  0.00  0.00    +0.170 C 
ATOM      4  C   LIG    1        0.528   5.549  -0.419  0.00  0.00    +0.110 A 
ATOM      5  N   LIG    1        0.225   4.297  -0.637  0.00  0.00    -0.270 NA
ATOM      6  N   LIG    1        1.162   3.485   0.012  0.00  0.00    -0.310 N 
ATOM      7  C   LIG    1        2.052   4.284   0.643  0.00  0.00    +0.150 A 
ATOM      8 CL   LIG    1        3.408   3.764   1.595  0.00  0.00    +0.030 Cl
ATOM      9  C   LIG    1        1.685   5.589   0.388  0.00  0.00    -0.150 A 
BRANCH   6  10
ATOM     10  C   LIG    1        1.173   2.084   0.013  0.00  0.00    +0.140 A 
ATOM     11  C   LIG    1       -0.023   1.379   0.016  0.00  0.00    +0.040 A 
ATOM     12  C   LIG    1       -0.009  -0.002   0.017  0.00  0.00    +0.030 A 
ATOM     13  C   LIG    1        1.195  -0.683   0.015  0.00  0.00    +0.020 A 
ATOM     14  C   LIG    1        2.388   0.017   0.013  0.00  0.00    +0.040 A 
ATOM     15  C   LIG    1        2.380   1.398   0.011  0.00  0.00    +0.010 A 
ENDBRANCH   6  10
ENDBRANCH   1   9
BRANCH   2  16
ATOM     16  N   LIG    1        4.143   7.843   1.988  0.00  0.00    -0.540 N 
ATOM     17  C   LIG    1        3.642   9.184   1.654  0.00  0.00    +0.270 C 
ATOM     18  C   LIG    1        3.632  10.029   2.938  0.00  0.00    +0.190 C 
ATOM     19  N   LIG    1        4.968  10.000   3.547  0.00  0.00    -0.480 N 
ATOM     20  C   LIG    1        5.337   8.639   3.959  0.00  0.00    +0.200 C 
ATOM     21  C   LIG    1        5.413   7.737   2.723  0.00  0.00    +0.320 C 
BRANCH  19  22
ATOM     22  C   LIG    1        5.047  10.883   4.618  0.00  0.00    +0.310 A 
ATOM     23  C   LIG    1        4.736  12.225   4.428  0.00  0.00    -0.050 A 
ATOM     24  C   LIG    1        4.818  13.093   5.503  0.00  0.00    +0.090 A 
ATOM     25  C   LIG    1        5.211  12.587   6.734  0.00  0.00    -0.060 A 
ATOM     26  C   LIG    1        5.505  11.244   6.851  0.00  0.00    +0.290 A 
ATOM     27  N   LIG    1        5.413  10.438   5.810  0.00  0.00    -0.520 NA
ENDBRANCH  19  22
ENDBRANCH   2  16
TORSDOF 4
