REMARK  Name = ZINCpe00000MJLQS.2
REMARK                            x       y       z     vdW  Elec       q    Type
REMARK                         _______ _______ _______ _____ _____    ______ ____
ROOT
ATOM      1  C   LIG    1       -2.544   1.378   0.021  0.00  0.00    +0.260 C 
ENDROOT
BRANCH   1  10
ATOM      2  O   LIG    1       -5.965  -0.499   5.494  0.00  0.00    -0.540 OA
ATOM      3  C   LIG    1       -5.874   0.076   4.427  0.00  0.00    +0.700 C 
ATOM      4  N   LIG    1       -6.920   0.342   3.632  0.00  0.00    -0.680 N 
ATOM      5  H   LIG    1       -7.837   0.099   3.836  0.00  0.00    +0.430 HD
ATOM      6  C   LIG    1       -6.537   0.990   2.508  0.00  0.00    +0.540 C 
ATOM      7  C   LIG    1       -5.049   1.142   2.635  0.00  0.00    +0.110 C 
ATOM      8  C   LIG    1       -4.614   2.615   2.574  0.00  0.00    +0.040 C 
ATOM      9  C   LIG    1       -3.156   2.523   2.071  0.00  0.00    +0.200 C 
ATOM     10  N   LIG    1       -3.002   1.215   1.407  0.00  0.00    -0.520 NA
ATOM     11  C   LIG    1       -4.301   0.503   1.457  0.00  0.00    +0.230 C 
ATOM     12  O   LIG    1       -7.243   1.366   1.597  0.00  0.00    -0.460 OA
ATOM     13  N   LIG    1       -4.709   0.521   3.909  0.00  0.00    -0.700 N 
ATOM     14  H   LIG    1       -3.827   0.443   4.304  0.00  0.00    +0.450 HD
ENDBRANCH   1  10
BRANCH   1  15
ATOM     15  C   LIG    1       -1.116   1.859   0.017  0.00  0.00    -0.230 A 
ATOM     16  C   LIG    1       -0.013   1.076   0.008  0.00  0.00    +0.250 A 
ATOM     17  N   LIG    1        1.067   1.886   0.002  0.00  0.00    -0.370 N 
ATOM     18  N   LIG    1        0.611   3.211   0.013  0.00  0.00    -0.290 NA
ATOM     19  C   LIG    1       -0.697   3.193   0.025  0.00  0.00    +0.230 A 
BRANCH  17  20
ATOM     20  C   LIG    1        2.467   1.456  -0.013  0.00  0.00    +0.390 C 
BRANCH  20  21
ATOM     21  C   LIG    1        3.175   2.094  -1.181  0.00  0.00    -0.120 A 
ATOM     22  C   LIG    1        3.211   1.450  -2.403  0.00  0.00    +0.060 A 
ATOM     23  C   LIG    1        3.855   2.036  -3.476  0.00  0.00    -0.020 A 
ATOM     24  C   LIG    1        4.476   3.264  -3.323  0.00  0.00    +0.110 A 
ATOM     25  C   LIG    1        4.444   3.906  -2.096  0.00  0.00    -0.020 A 
ATOM     26  F   LIG    1        5.111   3.836  -4.369  0.00  0.00    -0.140 F 
ATOM     27  C   LIG    1        3.794   3.321  -1.027  0.00  0.00    +0.090 A 
ENDBRANCH  20  21
ENDBRANCH  17  20
ENDBRANCH   1  15
TORSDOF 4
