REMARK  Name = ZINCpk00000xIgpo.0
REMARK                            x       y       z     vdW  Elec       q    Type
REMARK                         _______ _______ _______ _____ _____    ______ ____
ROOT
ATOM      1  C   LIG    1       -0.182   1.546   2.400  0.00  0.00    -0.710 A 
ATOM      2  C   LIG    1       -0.862   1.856   3.564  0.00  0.00    +0.160 A 
ATOM      3  C   LIG    1       -2.232   2.032   3.539  0.00  0.00    -0.030 A 
ATOM      4  C   LIG    1       -2.926   1.897   2.344  0.00  0.00    +0.230 A 
ATOM      5  C   LIG    1       -2.240   1.591   1.176  0.00  0.00    -0.050 A 
ATOM      6  C   LIG    1       -0.871   1.412   1.208  0.00  0.00    +0.060 A 
ATOM      7  C   LIG    1       -0.126   1.075  -0.058  0.00  0.00    +0.110 C 
ENDROOT
BRANCH   4   8
ATOM      8  N   LIG    1       -4.314   2.075   2.316  0.00  0.00    -0.560 N 
ATOM      9  C   LIG    1       -5.154   1.846   1.135  0.00  0.00    +0.270 C 
ATOM     10  C   LIG    1       -6.599   1.735   1.675  0.00  0.00    +0.060 C 
ATOM     11  C   LIG    1       -6.509   2.556   2.982  0.00  0.00    +0.070 C 
ATOM     12  C   LIG    1       -5.048   2.484   3.366  0.00  0.00    +0.520 C 
ATOM     13  O   LIG    1       -4.603   2.755   4.461  0.00  0.00    -0.500 OA
ENDBRANCH   4   8
BRANCH   1  14
ATOM     14  S   LIG    1        1.565   1.322   2.436  0.00  0.00    +2.690 S 
ATOM     15  O   LIG    1        1.965   1.498   3.788  0.00  0.00    -0.960 OA
ATOM     16  O   LIG    1        2.090   2.094   1.364  0.00  0.00    -0.950 OA
BRANCH  14  17
ATOM     17  N   LIG    1        1.864  -0.263   2.061  0.00  0.00    -0.980 NA
BRANCH  17  18
ATOM     18  C   LIG    1        2.248  -0.633   0.697  0.00  0.00    +0.320 C 
BRANCH  18  19
ATOM     19  C   LIG    1        3.773  -0.718   0.602  0.00  0.00    +0.150 C 
BRANCH  19  21
ATOM     20  C   LIG    1        5.663  -1.949   1.413  0.00  0.00    +0.200 C 
ATOM     21  O   LIG    1        4.244  -1.783   1.430  0.00  0.00    -0.380 OA
ENDBRANCH  19  21
ENDBRANCH  18  19
ENDBRANCH  17  18
BRANCH  17  22
ATOM     22  C   LIG    1        1.745  -1.294   3.095  0.00  0.00    +0.330 C 
BRANCH  22  23
ATOM     23  C   LIG    1        0.351  -1.922   3.030  0.00  0.00    +0.150 C 
BRANCH  23  24
ATOM     24  O   LIG    1        0.197  -2.612   1.788  0.00  0.00    -0.380 OA
ATOM     25  C   LIG    1       -1.078  -3.237   1.625  0.00  0.00    +0.200 C 
ENDBRANCH  23  24
ENDBRANCH  22  23
ENDBRANCH  17  22
ENDBRANCH  14  17
ENDBRANCH   1  14
TORSDOF 9
