REMARK  Name = ZINCrD000006SzLR.0
REMARK                            x       y       z     vdW  Elec       q    Type
REMARK                         _______ _______ _______ _____ _____    ______ ____
ROOT
ATOM      1  N   LIG    1        3.244  -5.993   2.703  0.00  0.00    -0.480 N 
ATOM      2  C   LIG    1        1.955  -6.624   2.389  0.00  0.00    +0.210 C 
ATOM      3  C   LIG    1        1.485  -6.159   1.008  0.00  0.00    +0.200 C 
ATOM      4  N   LIG    1        1.367  -4.694   1.002  0.00  0.00    -0.530 NA
ATOM      5  C   LIG    1        2.656  -4.063   1.316  0.00  0.00    +0.190 C 
ATOM      6  C   LIG    1        3.126  -4.529   2.697  0.00  0.00    +0.210 C 
ENDROOT
BRANCH   1  17
ATOM      7 CL   LIG    1        6.199  -6.314   2.760  0.00  0.00    +0.010 Cl
ATOM      8  C   LIG    1        5.122  -6.643   4.081  0.00  0.00    +0.170 A 
ATOM      9  N   LIG    1        5.605  -7.071   5.223  0.00  0.00    -0.410 NA
ATOM     10  C   LIG    1        4.776  -7.325   6.244  0.00  0.00    +0.080 A 
ATOM     11  C   LIG    1        5.268  -7.784   7.477  0.00  0.00    +0.060 A 
ATOM     12  C   LIG    1        4.403  -8.034   8.499  0.00  0.00    +0.040 A 
ATOM     13  C   LIG    1        3.033  -7.842   8.341  0.00  0.00    +0.050 A 
ATOM     14  C   LIG    1        2.520  -7.399   7.160  0.00  0.00    +0.050 A 
ATOM     15  C   LIG    1        3.382  -7.130   6.083  0.00  0.00    +0.100 A 
ATOM     16  N   LIG    1        2.905  -6.687   4.912  0.00  0.00    -0.440 NA
ATOM     17  C   LIG    1        3.736  -6.447   3.917  0.00  0.00    +0.300 A 
ENDBRANCH   1  17
BRANCH   4  18
ATOM     18  C   LIG    1        0.845  -4.214  -0.284  0.00  0.00    +0.240 C 
BRANCH  18  19
ATOM     19  C   LIG    1        0.507  -2.749  -0.174  0.00  0.00    -0.070 A 
ATOM     20  C   LIG    1       -0.760  -2.362   0.221  0.00  0.00    +0.050 A 
ATOM     21  C   LIG    1       -1.075  -1.020   0.325  0.00  0.00    +0.040 A 
ATOM     22  C   LIG    1       -0.121  -0.059   0.032  0.00  0.00    +0.030 A 
ATOM     23  O   LIG    1       -0.174   1.304   0.052  0.00  0.00    -0.310 OA
ATOM     24  C   LIG    1        1.198   1.742   0.059  0.00  0.00    +0.430 C 
ATOM     25  O   LIG    1        1.902   0.670  -0.596  0.00  0.00    -0.310 OA
ATOM     26  C   LIG    1        1.155  -0.449  -0.367  0.00  0.00    +0.030 A 
ATOM     27  C   LIG    1        1.464  -1.796  -0.468  0.00  0.00    +0.030 A 
ENDBRANCH  18  19
ENDBRANCH   4  18
TORSDOF 3
