REMARK  Name = ZINCrm000000MLhB.2
REMARK                            x       y       z     vdW  Elec       q    Type
REMARK                         _______ _______ _______ _____ _____    ______ ____
ROOT
ATOM      1  C   LIG    1       -2.283   5.551   1.413  0.00  0.00    -0.140 A 
ATOM      2  C   LIG    1       -1.718   5.994   0.232  0.00  0.00    +0.050 A 
ATOM      3  C   LIG    1       -2.526   6.454  -0.791  0.00  0.00    +0.050 A 
ATOM      4  C   LIG    1       -3.899   6.468  -0.634  0.00  0.00    +0.060 A 
ATOM      5  C   LIG    1       -4.465   6.024   0.546  0.00  0.00    +0.050 A 
ATOM      6  C   LIG    1       -3.657   5.561   1.568  0.00  0.00    -0.110 A 
ENDROOT
BRANCH   1   7
ATOM      7  C   LIG    1       -1.403   5.050   2.528  0.00  0.00    +0.310 C 
BRANCH   7  11
ATOM      8  C   LIG    1        0.236   1.047   4.828  0.00  0.00    +0.100 C 
ATOM      9  C   LIG    1       -0.605   1.560   3.658  0.00  0.00    +0.160 C 
ATOM     10  C   LIG    1       -0.623   3.091   3.673  0.00  0.00    +0.240 C 
ATOM     11  N   LIG    1       -1.384   3.581   2.515  0.00  0.00    -0.390 N 
ATOM     12  C   LIG    1       -0.748   3.110   1.277  0.00  0.00    +0.240 C 
ATOM     13  C   LIG    1       -0.729   1.579   1.267  0.00  0.00    +0.160 C 
ATOM     14  C   LIG    1       -0.013   1.086   0.008  0.00  0.00    +0.110 C 
ATOM     15  H   LIG    1       -2.329   3.232   2.562  0.00  0.00    +0.420 HD
ATOM     16  O   LIG    1       -0.036   1.108   2.426  0.00  0.00    -0.350 OA
ENDBRANCH   7  11
ENDBRANCH   1   7
BRANCH   6  17
ATOM     17  C   LIG    1       -4.274   5.071   2.853  0.00  0.00    +0.320 C 
BRANCH  17  18
ATOM     18  N   LIG    1       -4.188   6.123   3.868  0.00  0.00    -0.710 N 
ATOM     19  H   LIG    1       -3.778   6.975   3.650  0.00  0.00    +0.420 HD
ATOM     20  C   LIG    1       -4.679   5.909   5.104  0.00  0.00    +0.500 C 
ATOM     21  O   LIG    1       -5.193   4.844   5.377  0.00  0.00    -0.510 OA
BRANCH  20  22
ATOM     22  C   LIG    1       -4.591   6.992   6.149  0.00  0.00    +0.300 C 
BRANCH  22  23
ATOM     23  N   LIG    1       -5.192   6.514   7.401  0.00  0.00    -0.490 N 
ATOM     24  H   LIG    1       -4.696   5.696   7.722  0.00  0.00    +0.430 HD
ATOM     25  H   LIG    1       -6.160   6.279   7.241  0.00  0.00    +0.440 HD
BRANCH  23  26
ATOM     26  C   LIG    1       -5.106   7.570   8.419  0.00  0.00    +0.290 C 
BRANCH  26  27
ATOM     27  C   LIG    1       -5.732   7.072   9.724  0.00  0.00    +0.150 C 
ATOM     28  C   LIG    1       -5.716   8.196  10.790  0.00  0.00    +0.040 C 
ATOM     29  C   LIG    1       -6.894   7.755  11.701  0.00  0.00    +0.030 C 
ATOM     30  C   LIG    1       -7.875   7.126  10.688  0.00  0.00    +0.220 C 
ATOM     31  O   LIG    1       -7.121   6.764   9.524  0.00  0.00    -0.390 OA
ENDBRANCH  26  27
ENDBRANCH  23  26
ENDBRANCH  22  23
ENDBRANCH  20  22
ENDBRANCH  17  18
ENDBRANCH   6  17
TORSDOF 8
