REMARK  Name = ZINCrm000000MLhB.1
REMARK                            x       y       z     vdW  Elec       q    Type
REMARK                         _______ _______ _______ _____ _____    ______ ____
ROOT
ATOM      1  C   LIG    1       -0.058  10.858   1.320  0.00  0.00    -0.150 A 
ATOM      2  C   LIG    1        0.027  11.999   2.095  0.00  0.00    +0.050 A 
ATOM      3  C   LIG    1       -0.951  12.271   3.034  0.00  0.00    +0.060 A 
ATOM      4  C   LIG    1       -2.017  11.405   3.193  0.00  0.00    +0.060 A 
ATOM      5  C   LIG    1       -2.104  10.266   2.413  0.00  0.00    +0.050 A 
ATOM      6  C   LIG    1       -1.127   9.994   1.475  0.00  0.00    -0.110 A 
ENDROOT
BRANCH   1   7
ATOM      7  C   LIG    1        1.011  10.558   0.301  0.00  0.00    +0.310 C 
BRANCH   7  11
ATOM      8  C   LIG    1       -1.597  12.645  -2.577  0.00  0.00    +0.020 C 
ATOM      9  C   LIG    1       -0.088  12.871  -2.451  0.00  0.00    +0.220 C 
ATOM     10  C   LIG    1        0.397  12.417  -1.079  0.00  0.00    +0.240 C 
ATOM     11  N   LIG    1        0.541  10.958  -1.036  0.00  0.00    -0.380 N 
ATOM     12  C   LIG    1        1.538  10.553  -2.036  0.00  0.00    +0.240 C 
ATOM     13  C   LIG    1        1.052  10.921  -3.436  0.00  0.00    +0.220 C 
ATOM     14  C   LIG    1       -0.032   9.946  -3.895  0.00  0.00    +0.030 C 
ATOM     15  H   LIG    1       -0.341  10.512  -1.217  0.00  0.00    +0.420 HD
ATOM     16  O   LIG    1        0.614  12.261  -3.513  0.00  0.00    -0.350 OA
ENDBRANCH   7  11
ENDBRANCH   1   7
BRANCH   6  17
ATOM     17  C   LIG    1       -1.222   8.753   0.626  0.00  0.00    +0.320 C 
BRANCH  17  18
ATOM     18  N   LIG    1       -0.345   7.717   1.175  0.00  0.00    -0.710 N 
ATOM     19  H   LIG    1        0.180   7.897   1.970  0.00  0.00    +0.420 HD
ATOM     20  C   LIG    1       -0.267   6.512   0.575  0.00  0.00    +0.500 C 
ATOM     21  O   LIG    1       -0.923   6.287  -0.420  0.00  0.00    -0.510 OA
BRANCH  20  22
ATOM     22  C   LIG    1        0.636   5.446   1.140  0.00  0.00    +0.300 C 
BRANCH  22  23
ATOM     23  N   LIG    1        0.543   4.236   0.312  0.00  0.00    -0.490 N 
ATOM     24  H   LIG    1       -0.410   3.904   0.308  0.00  0.00    +0.440 HD
ATOM     25  H   LIG    1        0.827   4.452  -0.632  0.00  0.00    +0.430 HD
BRANCH  23  26
ATOM     26  C   LIG    1        1.423   3.197   0.862  0.00  0.00    +0.290 C 
BRANCH  26  27
ATOM     27  C   LIG    1        1.326   1.937  -0.000  0.00  0.00    +0.150 C 
ATOM     28  C   LIG    1        2.192   0.804   0.604  0.00  0.00    +0.040 C 
ATOM     29  C   LIG    1        1.480  -0.451   0.029  0.00  0.00    +0.030 C 
ATOM     30  C   LIG    1        0.002  -0.004   0.002  0.00  0.00    +0.220 C 
ATOM     31  O   LIG    1       -0.017   1.428   0.010  0.00  0.00    -0.390 OA
ENDBRANCH  26  27
ENDBRANCH  23  26
ENDBRANCH  22  23
ENDBRANCH  20  22
ENDBRANCH  17  18
ENDBRANCH   6  17
TORSDOF 8
