REMARK  Name = ZINCpk000000oDbj.0
REMARK                            x       y       z     vdW  Elec       q    Type
REMARK                         _______ _______ _______ _____ _____    ______ ____
ROOT
ATOM      1  C   LIG    1        1.294   1.674   0.137  0.00  0.00    +0.130 A 
ATOM      2  C   LIG    1        0.134   0.914   0.151  0.00  0.00    -0.010 A 
ATOM      3  C   LIG    1       -1.100   1.537   0.128  0.00  0.00    +0.130 A 
ATOM      4  C   LIG    1       -1.182   2.917   0.103  0.00  0.00    -0.660 A 
ATOM      5  C   LIG    1       -0.030   3.682   0.088  0.00  0.00    +0.140 A 
ATOM      6  C   LIG    1        1.211   3.066   0.105  0.00  0.00    +0.150 A 
ENDROOT
BRANCH   6   7
ATOM      7  N   LIG    1        2.380   3.840   0.089  0.00  0.00    -0.660 N 
ATOM      8  H   LIG    1        3.165   3.542   0.574  0.00  0.00    +0.420 HD
ATOM      9  C   LIG    1        2.412   4.998  -0.598  0.00  0.00    +0.510 C 
ATOM     10  O   LIG    1        1.408   5.410  -1.140  0.00  0.00    -0.500 OA
BRANCH   9  11
ATOM     11  C   LIG    1        3.695   5.782  -0.694  0.00  0.00    +0.220 C 
BRANCH  11  12
ATOM     12  N   LIG    1        3.470   6.996  -1.491  0.00  0.00    -0.520 NA
ATOM     13  C   LIG    1        2.550   7.913  -0.804  0.00  0.00    +0.200 C 
BRANCH  12  14
ATOM     14  C   LIG    1        4.740   7.662  -1.806  0.00  0.00    +0.210 C 
BRANCH  14  15
ATOM     15  C   LIG    1        4.494   8.769  -2.834  0.00  0.00    +0.090 C 
BRANCH  15  16
ATOM     16  S   LIG    1        6.063   9.592  -3.224  0.00  0.00    -0.260 S 
ATOM     17  C   LIG    1        5.574  10.849  -4.437  0.00  0.00    +0.140 C 
ENDBRANCH  15  16
ENDBRANCH  14  15
ENDBRANCH  12  14
ENDBRANCH  11  12
ENDBRANCH   9  11
ENDBRANCH   6   7
BRANCH   4  18
ATOM     18  S   LIG    1       -2.759   3.702   0.081  0.00  0.00    +2.700 S 
ATOM     19  O   LIG    1       -2.562   5.012   0.597  0.00  0.00    -0.960 OA
ATOM     20  O   LIG    1       -3.677   2.775   0.645  0.00  0.00    -0.960 OA
BRANCH  18  21
ATOM     21  N   LIG    1       -3.195   3.885  -1.506  0.00  0.00    -1.250 NA
ATOM     22  H   LIG    1       -4.041   4.302  -1.732  0.00  0.00    +0.420 HD
ATOM     23  H   LIG    1       -2.603   3.575  -2.210  0.00  0.00    +0.420 HD
ENDBRANCH  18  21
ENDBRANCH   4  18
BRANCH   1  24
ATOM     24  N   LIG    1        2.545   1.046   0.155  0.00  0.00    -0.510 N 
BRANCH  24  26
ATOM     25  C   LIG    1        2.718   1.129   2.596  0.00  0.00    +0.030 C 
ATOM     26  C   LIG    1        2.704   0.225   1.362  0.00  0.00    +0.180 C 
ENDBRANCH  24  26
BRANCH  24  27
ATOM     27  C   LIG    1        2.748   0.243  -1.059  0.00  0.00    +0.180 C 
ATOM     28  C   LIG    1        4.231  -0.108  -1.195  0.00  0.00    +0.040 C 
ENDBRANCH  24  27
ENDBRANCH   1  24
TORSDOF 11
