REMARK  Name = ZINCpk00000KfKk3.0
REMARK                            x       y       z     vdW  Elec       q    Type
REMARK                         _______ _______ _______ _____ _____    ______ ____
ROOT
ATOM      1  N   LIG    1       -0.011   0.966   0.007  0.00  0.00    -1.120 NA
ATOM      2  H   LIG    1        0.002  -0.004   0.002  0.00  0.00    +0.420 HD
ENDROOT
BRANCH   1   3
ATOM      3  S   LIG    1        1.412   1.813  -0.002  0.00  0.00    +2.690 S 
ATOM      4  O   LIG    1        1.285   2.800  -1.017  0.00  0.00    -0.940 OA
ATOM      5  O   LIG    1        2.454   0.848   0.018  0.00  0.00    -0.940 OA
BRANCH   3   9
ATOM      6  C   LIG    1        1.667   4.051   3.931  0.00  0.00    -0.110 A 
ATOM      7  C   LIG    1        2.192   2.760   3.822  0.00  0.00    +0.070 A 
ATOM      8  C   LIG    1        2.111   2.085   2.622  0.00  0.00    +0.120 A 
ATOM      9  C   LIG    1        1.510   2.683   1.528  0.00  0.00    -0.660 A 
ATOM     10  C   LIG    1        0.992   3.963   1.626  0.00  0.00    +0.120 A 
ATOM     11  C   LIG    1        1.061   4.648   2.821  0.00  0.00    +0.050 A 
BRANCH   6  13
ATOM     12  C   LIG    1        1.183   6.169   5.322  0.00  0.00    +0.090 C 
ATOM     13  C   LIG    1        1.750   4.778   5.208  0.00  0.00    +0.390 C 
ATOM     14  O   LIG    1        2.276   4.258   6.169  0.00  0.00    -0.440 OA
ENDBRANCH   6  13
ENDBRANCH   3   9
ENDBRANCH   1   3
BRANCH   1  15
ATOM     15  C   LIG    1       -1.290   1.681   0.017  0.00  0.00    +0.430 C 
BRANCH  15  16
ATOM     16  C   LIG    1       -2.400   0.731  -0.350  0.00  0.00    +0.120 A 
ATOM     17  N   LIG    1       -2.845   0.490  -1.556  0.00  0.00    -0.200 NA
ATOM     18  N   LIG    1       -3.796  -0.375  -1.516  0.00  0.00    -0.260 NA
ATOM     19  C   LIG    1       -4.019  -0.733  -0.262  0.00  0.00    +0.370 A 
ATOM     20  N   LIG    1       -4.884  -1.582   0.308  0.00  0.00    -0.440 NA
ATOM     21  C   LIG    1       -4.896  -1.758   1.609  0.00  0.00    +0.220 A 
ATOM     22  C   LIG    1       -3.999  -1.057   2.429  0.00  0.00    -0.030 A 
ATOM     23  C   LIG    1       -3.118  -0.195   1.866  0.00  0.00    +0.160 A 
ATOM     24  C   LIG    1       -2.143   0.572   2.723  0.00  0.00    +0.160 C 
ATOM     25  C   LIG    1       -5.880  -2.718   2.225  0.00  0.00    +0.170 C 
ATOM     26  N   LIG    1       -3.127  -0.031   0.512  0.00  0.00    -0.420 N 
ENDBRANCH  15  16
ENDBRANCH   1  15
TORSDOF 5
