REMARK  Name = ZINCrD00000hQ6p8.0
REMARK                            x       y       z     vdW  Elec       q    Type
REMARK                         _______ _______ _______ _____ _____    ______ ____
ROOT
ATOM      1  C   LIG    1       -2.603   7.565  -0.955  0.00  0.00    +0.240 C 
ATOM      2  C   LIG    1       -3.331   6.201  -0.791  0.00  0.00    +0.040 C 
ATOM      3  C   LIG    1       -2.553   5.516   0.372  0.00  0.00    +0.250 C 
ATOM      4  C   LIG    1       -2.953   6.291   1.663  0.00  0.00    +0.020 C 
ATOM      5  C   LIG    1       -2.227   7.649   1.508  0.00  0.00    +0.020 C 
ATOM      6  N   LIG    1       -1.165   6.043   0.139  0.00  0.00    -0.630 N 
ATOM      7  C   LIG    1        0.009   5.398  -0.011  0.00  0.00    +0.590 C 
ATOM      8  O   LIG    1        0.035   4.183  -0.040  0.00  0.00    -0.530 OA
ATOM      9  C   LIG    1       -1.488   7.510   0.132  0.00  0.00    +0.230 C 
ENDROOT
BRANCH   7  10
ATOM     10  C   LIG    1        1.264   6.168  -0.141  0.00  0.00    -0.130 A 
ATOM     11  C   LIG    1        1.275   7.379  -0.835  0.00  0.00    +0.070 A 
ATOM     12  C   LIG    1        2.449   8.095  -0.947  0.00  0.00    +0.020 A 
ATOM     13  C   LIG    1        3.615   7.611  -0.383  0.00  0.00    +0.080 A 
ATOM     14  C   LIG    1        3.611   6.411   0.306  0.00  0.00    -0.180 A 
ATOM     15  C   LIG    1        2.444   5.687   0.430  0.00  0.00    +0.110 A 
BRANCH  14  16
ATOM     16  C   LIG    1        4.886   5.893   0.922  0.00  0.00    +0.430 C 
ATOM     17  F   LIG    1        5.199   4.647   0.369  0.00  0.00    -0.200 F 
ATOM     18  F   LIG    1        4.716   5.761   2.304  0.00  0.00    -0.200 F 
ENDBRANCH  14  16
ENDBRANCH   7  10
BRANCH   1  20
ATOM     19  C   LIG    1       -3.232   9.910  -1.161  0.00  0.00    +0.520 C 
ATOM     20  N   LIG    1       -3.520   8.678  -0.697  0.00  0.00    -0.720 N 
ATOM     21  H   LIG    1       -4.335   8.527  -0.193  0.00  0.00    +0.400 HD
ATOM     22  O   LIG    1       -2.213  10.098  -1.791  0.00  0.00    -0.530 OA
BRANCH  19  23
ATOM     23  C   LIG    1       -4.176  11.055  -0.895  0.00  0.00    +0.050 C 
BRANCH  23  24
ATOM     24  C   LIG    1       -3.617  12.333  -1.524  0.00  0.00    +0.060 C 
BRANCH  24  25
ATOM     25  C   LIG    1       -4.575  13.495  -1.255  0.00  0.00    +0.140 C 
ATOM     26  C   LIG    1       -3.959  14.795  -1.775  0.00  0.00    +0.020 C 
BRANCH  25  28
ATOM     27  C   LIG    1       -6.949  13.826  -1.269  0.00  0.00    +0.200 C 
ATOM     28  O   LIG    1       -5.815  13.255  -1.924  0.00  0.00    -0.390 OA
ENDBRANCH  25  28
ENDBRANCH  24  25
ENDBRANCH  23  24
ENDBRANCH  19  23
ENDBRANCH   1  20
TORSDOF 7
