REMARK  Name = ZINCvU0000000GSX.0
REMARK                            x       y       z     vdW  Elec       q    Type
REMARK                         _______ _______ _______ _____ _____    ______ ____
ROOT
ATOM      1  O   LIG    1       -1.590   2.004   0.700  0.00  0.00    -0.490 OA
ATOM      2  C   LIG    1       -1.441   0.808   0.561  0.00  0.00    +0.550 C 
ATOM      3  N   LIG    1       -0.210   0.302   0.347  0.00  0.00    -0.660 N 
ATOM      4  H   LIG    1       -0.100  -0.645   0.168  0.00  0.00    +0.420 HD
ENDROOT
BRANCH   3   5
ATOM      5  C   LIG    1        0.907   1.144   0.378  0.00  0.00    +0.150 A 
ATOM      6  C   LIG    1        0.810   2.446  -0.098  0.00  0.00    +0.060 A 
ATOM      7  C   LIG    1        1.910   3.282  -0.064  0.00  0.00    +0.040 A 
ATOM      8  C   LIG    1        3.114   2.826   0.433  0.00  0.00    +0.030 A 
ATOM      9  C   LIG    1        3.223   1.519   0.908  0.00  0.00    -0.020 A 
ATOM     10  C   LIG    1        2.113   0.677   0.879  0.00  0.00    +0.050 A 
BRANCH   9  11
ATOM     11  C   LIG    1        4.513   1.028   1.442  0.00  0.00    +0.300 A 
ATOM     12  N   LIG    1        4.692  -0.023   2.214  0.00  0.00    -0.320 NA
ATOM     13  N   LIG    1        5.936  -0.168   2.495  0.00  0.00    -0.040 NA
ATOM     14  N   LIG    1        6.634   0.760   1.937  0.00  0.00    -0.080 NA
ATOM     15  N   LIG    1        5.736   1.573   1.223  0.00  0.00    -0.350 N 
BRANCH  15  16
ATOM     16  C   LIG    1        6.052   2.756   0.419  0.00  0.00    +0.210 C 
ATOM     17  C   LIG    1        7.524   3.151   0.292  0.00  0.00    +0.090 C 
ATOM     18  C   LIG    1        6.579   3.990   1.155  0.00  0.00    +0.060 C 
ENDBRANCH  15  16
ENDBRANCH   9  11
ENDBRANCH   3   5
BRANCH   2  19
ATOM     19  C   LIG    1       -2.633  -0.112   0.627  0.00  0.00    +0.050 C 
BRANCH  19  20
ATOM     20  C   LIG    1       -2.771  -0.655   2.026  0.00  0.00    -0.100 A 
ATOM     21  C   LIG    1       -2.951   0.209   3.089  0.00  0.00    +0.040 A 
ATOM     22  C   LIG    1       -3.082  -0.289   4.372  0.00  0.00    +0.020 A 
ATOM     23  C   LIG    1       -3.023  -1.653   4.592  0.00  0.00    +0.030 A 
ATOM     24  C   LIG    1       -2.838  -2.517   3.530  0.00  0.00    +0.010 A 
ATOM     25  C   LIG    1       -2.711  -2.019   2.247  0.00  0.00    +0.020 A 
ENDBRANCH  19  20
BRANCH  19  26
ATOM     26  S   LIG    1       -4.133   0.808   0.186  0.00  0.00    -0.030 S 
BRANCH  26  27
ATOM     27  C   LIG    1       -5.375  -0.441   0.172  0.00  0.00    -0.100 A 
ATOM     28  C   LIG    1       -5.040  -1.759   0.460  0.00  0.00    -0.010 A 
ATOM     29  C   LIG    1       -6.018  -2.735   0.453  0.00  0.00    +0.020 A 
ATOM     30  C   LIG    1       -7.326  -2.404   0.151  0.00  0.00    +0.000 A 
ATOM     31  C   LIG    1       -7.662  -1.094  -0.141  0.00  0.00    +0.030 A 
ATOM     32  C   LIG    1       -6.691  -0.112  -0.131  0.00  0.00    +0.030 A 
ENDBRANCH  26  27
ENDBRANCH  19  26
ENDBRANCH   2  19
TORSDOF 7
