REMARK  Name = ZINCqH0000000XIv.0
REMARK                            x       y       z     vdW  Elec       q    Type
REMARK                         _______ _______ _______ _____ _____    ______ ____
ROOT
ATOM      1  N   LIG    1       -2.062   0.977   1.338  0.00  0.00    -0.740 N 
ATOM      2  H   LIG    1       -2.357   0.367   0.643  0.00  0.00    +0.410 HD
ENDROOT
BRANCH   1   7
ATOM      3  C   LIG    1       -5.008   1.009   3.534  0.00  0.00    -0.040 A 
ATOM      4  C   LIG    1       -4.586   1.877   4.525  0.00  0.00    -0.040 A 
ATOM      5  C   LIG    1       -3.328   2.447   4.459  0.00  0.00    +0.050 A 
ATOM      6  C   LIG    1       -2.486   2.147   3.406  0.00  0.00    -0.070 A 
ATOM      7  C   LIG    1       -2.909   1.279   2.407  0.00  0.00    +0.210 A 
ATOM      8  C   LIG    1       -4.174   0.708   2.476  0.00  0.00    -0.050 A 
BRANCH   3   9
ATOM      9  C   LIG    1       -6.380   0.391   3.610  0.00  0.00    +0.220 C 
BRANCH   9  10
ATOM     10  O   LIG    1       -6.308  -0.843   4.328  0.00  0.00    -0.370 OA
BRANCH  10  12
ATOM     11  C   LIG    1       -8.117  -1.833   3.068  0.00  0.00    +0.010 C 
ATOM     12  C   LIG    1       -7.563  -1.514   4.458  0.00  0.00    +0.110 C 
ATOM     13  C   LIG    1       -8.548  -0.614   5.205  0.00  0.00    +0.020 C 
ATOM     14  C   LIG    1       -7.367  -2.815   5.239  0.00  0.00    +0.050 C 
ENDBRANCH  10  12
ENDBRANCH   9  10
ENDBRANCH   3   9
ENDBRANCH   1   7
BRANCH   1  15
ATOM     15  C   LIG    1       -0.729   1.579   1.267  0.00  0.00    +0.240 C 
BRANCH  15  16
ATOM     16  C   LIG    1       -0.013   1.086   0.008  0.00  0.00    +0.220 C 
BRANCH  16  17
ATOM     17  O   LIG    1       -0.704   1.559  -1.150  0.00  0.00    -0.540 OA
ATOM     18  H   LIG    1       -0.756   2.523  -1.210  0.00  0.00    +0.380 HD
ENDBRANCH  16  17
BRANCH  16  19
ATOM     19  C   LIG    1        1.423   1.615  -0.003  0.00  0.00    +0.190 C 
BRANCH  19  20
ATOM     20  O   LIG    1        2.126   1.061  -1.116  0.00  0.00    -0.300 OA
BRANCH  20  21
ATOM     21  C   LIG    1        3.422   1.432  -1.272  0.00  0.00    +0.170 A 
ATOM     22  C   LIG    1        4.008   2.311  -0.374  0.00  0.00    -0.070 A 
ATOM     23  C   LIG    1        5.328   2.687  -0.534  0.00  0.00    +0.090 A 
ATOM     24  C   LIG    1        6.075   2.191  -1.589  0.00  0.00    -0.020 A 
ATOM     25  C   LIG    1        5.508   1.316  -2.492  0.00  0.00    +0.110 A 
ATOM     26  C   LIG    1        4.177   0.923  -2.339  0.00  0.00    -0.060 A 
BRANCH  26  27
ATOM     27  C   LIG    1        3.584   0.010  -3.269  0.00  0.00    +0.260 C 
ATOM     28  N   LIG    1        3.114  -0.714  -4.007  0.00  0.00    -0.410 NA
ENDBRANCH  26  27
ENDBRANCH  20  21
ENDBRANCH  19  20
ENDBRANCH  16  19
ENDBRANCH  15  16
ENDBRANCH   1  15
TORSDOF 11
