REMARK  Name = ZINCqH0000003UkR.0
REMARK                            x       y       z     vdW  Elec       q    Type
REMARK                         _______ _______ _______ _____ _____    ______ ____
ROOT
ATOM      1  N   LIG    1        5.160   5.073  -0.338  0.00  0.00    -0.660 N 
ATOM      2  H   LIG    1        4.202   4.943  -0.261  0.00  0.00    +0.410 HD
ATOM      3  C   LIG    1        5.993   4.018  -0.245  0.00  0.00    +0.550 C 
ATOM      4  O   LIG    1        7.196   4.191  -0.246  0.00  0.00    -0.440 OA
ENDROOT
BRANCH   3   5
ATOM      5  C   LIG    1        5.444   2.650  -0.141  0.00  0.00    -0.100 A 
ATOM      6  C   LIG    1        4.063   2.448  -0.140  0.00  0.00    +0.010 A 
ATOM      7  C   LIG    1        3.556   1.162  -0.043  0.00  0.00    +0.190 A 
ATOM      8  C   LIG    1        4.420   0.079   0.059  0.00  0.00    +0.060 A 
ATOM      9  C   LIG    1        5.788   0.277   0.051  0.00  0.00    +0.070 A 
ATOM     10  C   LIG    1        6.305   1.554  -0.045  0.00  0.00    -0.010 A 
ATOM     11 CL   LIG    1        8.024   1.797  -0.046  0.00  0.00    -0.030 Cl
BRANCH   7  12
ATOM     12  N   LIG    1        2.171   0.955  -0.041  0.00  0.00    -0.570 N 
ATOM     13  C   LIG    1        1.151   2.014  -0.017  0.00  0.00    +0.270 C 
ATOM     14  C   LIG    1       -0.183   1.242  -0.025  0.00  0.00    +0.270 C 
ATOM     15  N   LIG    1        0.227  -0.170  -0.054  0.00  0.00    -0.730 N 
ATOM     16  H   LIG    1       -0.375  -0.930  -0.062  0.00  0.00    +0.440 HD
ATOM     17  C   LIG    1        1.565  -0.239  -0.061  0.00  0.00    +0.700 C 
ATOM     18  O   LIG    1        2.174  -1.292  -0.083  0.00  0.00    -0.560 OA
ENDBRANCH   7  12
ENDBRANCH   3   5
BRANCH   1  23
ATOM     19  C   LIG    1        5.346   8.712  -0.740  0.00  0.00    -0.000 A 
ATOM     20  C   LIG    1        6.712   8.835  -0.955  0.00  0.00    -0.050 A 
ATOM     21  C   LIG    1        7.501   7.701  -0.955  0.00  0.00    +0.300 A 
ATOM     22  N   LIG    1        6.973   6.510  -0.749  0.00  0.00    -0.470 NA
ATOM     23  C   LIG    1        5.675   6.351  -0.546  0.00  0.00    +0.370 A 
ATOM     24  C   LIG    1        4.821   7.448  -0.533  0.00  0.00    -0.050 A 
BRANCH  19  25
ATOM     25  C   LIG    1        4.454   9.927  -0.734  0.00  0.00    +0.150 C 
BRANCH  25  26
ATOM     26  S   LIG    1        4.345  10.588   0.952  0.00  0.00    -0.240 S 
BRANCH  26  28
ATOM     27  C   LIG    1        3.053  12.699   2.115  0.00  0.00    +0.070 C 
ATOM     28  C   LIG    1        3.249  12.020   0.758  0.00  0.00    +0.070 C 
ENDBRANCH  26  28
ENDBRANCH  25  26
ENDBRANCH  19  25
ENDBRANCH   1  23
TORSDOF 6
