REMARK  Name = ZINCrD000000CdI9.0
REMARK                            x       y       z     vdW  Elec       q    Type
REMARK                         _______ _______ _______ _____ _____    ______ ____
ROOT
ATOM      1  C   LIG    1       -1.234   3.143   0.031  0.00  0.00    -0.120 A 
ATOM      2  C   LIG    1       -1.217   1.748   0.017  0.00  0.00    +0.040 A 
ATOM      3  C   LIG    1       -0.013   1.076   0.008  0.00  0.00    +0.040 A 
ATOM      4  C   LIG    1        1.177   1.782   0.000  0.00  0.00    -0.100 A 
ATOM      5  C   LIG    1        1.167   3.166   0.008  0.00  0.00    +0.030 A 
ATOM      6  C   LIG    1       -0.031   3.850   0.024  0.00  0.00    +0.080 A 
ENDROOT
BRANCH   1   8
ATOM      7  O   LIG    1       -2.533   5.086   0.053  0.00  0.00    -0.480 OA
ATOM      8  C   LIG    1       -2.522   3.870   0.046  0.00  0.00    +0.550 C 
ATOM      9  N   LIG    1       -3.682   3.185   0.053  0.00  0.00    -0.630 N 
ATOM     10  H   LIG    1       -3.673   2.215   0.048  0.00  0.00    +0.420 HD
BRANCH   9  11
ATOM     11  C   LIG    1       -4.902   3.873   0.068  0.00  0.00    +0.310 A 
ATOM     12  N   LIG    1       -5.051   5.177   0.082  0.00  0.00    -0.270 NA
ATOM     13  N   LIG    1       -6.423   5.460   0.092  0.00  0.00    -0.470 N 
ATOM     14  H   LIG    1       -6.823   6.343   0.101  0.00  0.00    +0.450 HD
ATOM     15  C   LIG    1       -7.092   4.287   0.091  0.00  0.00    +0.260 A 
ATOM     16  C   LIG    1       -6.179   3.289   0.077  0.00  0.00    -0.220 A 
BRANCH  16  17
ATOM     17  C   LIG    1       -6.479   1.812   0.071  0.00  0.00    +0.030 C 
ATOM     18  C   LIG    1       -7.936   1.388  -0.121  0.00  0.00    +0.020 C 
ATOM     19  C   LIG    1       -7.274   1.248   1.251  0.00  0.00    +0.020 C 
ENDBRANCH  16  17
ENDBRANCH   9  11
ENDBRANCH   1   8
BRANCH   4  20
ATOM     20  C   LIG    1        2.489   1.042  -0.016  0.00  0.00    +0.400 C 
BRANCH  20  21
ATOM     21  N   LIG    1        2.901   0.809  -1.403  0.00  0.00    -0.390 N 
ATOM     22  N   LIG    1        2.590  -0.306  -2.195  0.00  0.00    -0.000 NA
ATOM     23  N   LIG    1        3.119  -0.165  -3.359  0.00  0.00    -0.220 NA
ATOM     24  C   LIG    1        3.801   0.997  -3.426  0.00  0.00    -0.020 A 
ATOM     25  C   LIG    1        4.546   1.612  -4.440  0.00  0.00    +0.110 A 
ATOM     26  C   LIG    1        5.139   2.819  -4.213  0.00  0.00    +0.010 A 
ATOM     27  C   LIG    1        5.013   3.451  -2.983  0.00  0.00    +0.080 A 
ATOM     28  C   LIG    1        4.286   2.868  -1.970  0.00  0.00    +0.000 A 
ATOM     29  C   LIG    1        3.674   1.637  -2.181  0.00  0.00    +0.090 A 
ENDBRANCH  20  21
ENDBRANCH   4  20
TORSDOF 5
