REMARK  Name = ZINCrH000004rwmV.0
REMARK                            x       y       z     vdW  Elec       q    Type
REMARK                         _______ _______ _______ _____ _____    ______ ____
ROOT
ATOM      1  N   LIG    1       -0.829   0.428  -3.195  0.00  0.00    -0.570 N 
ATOM      2  C   LIG    1       -1.992   0.246  -2.560  0.00  0.00    +0.700 C 
ATOM      3  N   LIG    1       -2.043   0.899  -1.385  0.00  0.00    -0.720 N 
ATOM      4  H   LIG    1       -2.785   0.910  -0.760  0.00  0.00    +0.440 HD
ATOM      5  C   LIG    1       -0.753   1.593  -1.232  0.00  0.00    +0.230 C 
ATOM      6  O   LIG    1       -2.901  -0.432  -2.996  0.00  0.00    -0.540 OA
ATOM      7  C   LIG    1        0.003   1.222  -2.492  0.00  0.00    +0.520 C 
ATOM      8  O   LIG    1        1.122   1.568  -2.804  0.00  0.00    -0.460 OA
ENDROOT
BRANCH   1   9
ATOM      9  C   LIG    1       -0.498  -0.165  -4.494  0.00  0.00    +0.360 C 
BRANCH   9  10
ATOM     10  C   LIG    1        0.160  -1.530  -4.279  0.00  0.00    +0.060 C 
BRANCH  10  11
ATOM     11  S   LIG    1        0.568  -2.264  -5.886  0.00  0.00    -0.090 S 
BRANCH  11  16
ATOM     12  C   LIG    1        3.089  -7.535  -4.371  0.00  0.00    +0.090 C 
ATOM     13  C   LIG    1        2.460  -6.219  -4.750  0.00  0.00    -0.090 A 
ATOM     14  C   LIG    1        2.333  -5.873  -6.082  0.00  0.00    +0.030 A 
ATOM     15  C   LIG    1        1.757  -4.668  -6.433  0.00  0.00    +0.040 A 
ATOM     16  C   LIG    1        1.304  -3.802  -5.444  0.00  0.00    -0.090 A 
ATOM     17  C   LIG    1        1.438  -4.151  -4.106  0.00  0.00    -0.010 A 
ATOM     18  C   LIG    1        2.010  -5.360  -3.763  0.00  0.00    +0.030 A 
ENDBRANCH  11  16
ENDBRANCH  10  11
ENDBRANCH   9  10
ENDBRANCH   1   9
BRANCH   5  19
ATOM     19  C   LIG    1       -0.013   1.086   0.008  0.00  0.00    +0.140 C 
BRANCH  19  20
ATOM     20  C   LIG    1       -0.718   1.572   1.248  0.00  0.00    -0.180 A 
ATOM     21  C   LIG    1       -0.416   2.668   1.960  0.00  0.00    +0.240 A 
ATOM     22  N   LIG    1       -1.276   2.790   3.017  0.00  0.00    -0.590 N 
ATOM     23  H   LIG    1       -1.257   3.505   3.672  0.00  0.00    +0.420 HD
ATOM     24  C   LIG    1       -2.170   1.743   3.016  0.00  0.00    +0.090 A 
ATOM     25  C   LIG    1       -3.227   1.385   3.846  0.00  0.00    -0.010 A 
ATOM     26  C   LIG    1       -3.954   0.246   3.576  0.00  0.00    +0.030 A 
ATOM     27  C   LIG    1       -3.644  -0.549   2.481  0.00  0.00    -0.020 A 
ATOM     28  C   LIG    1       -2.610  -0.215   1.652  0.00  0.00    +0.040 A 
ATOM     29  C   LIG    1       -1.860   0.934   1.908  0.00  0.00    -0.100 A 
ENDBRANCH  19  20
ENDBRANCH   5  19
TORSDOF 6
