REMARK  Name = ZINC9u0000001MWK.0
REMARK                            x       y       z     vdW  Elec       q    Type
REMARK                         _______ _______ _______ _____ _____    ______ ____
ROOT
ATOM      1  C   LIG    1       -0.749   3.086   1.275  0.00  0.00    -0.270 A 
ATOM      2  C   LIG    1       -1.853   3.842   1.290  0.00  0.00    +0.180 A 
ATOM      3  C   LIG    1       -1.620   5.210   1.295  0.00  0.00    -0.030 A 
ATOM      4  C   LIG    1       -0.333   5.561   1.284  0.00  0.00    -0.020 A 
ATOM      5  S   LIG    1        0.674   4.119   1.275  0.00  0.00    +0.110 S 
ENDROOT
BRANCH   1   7
ATOM      6  C   LIG    1       -0.013   1.086   0.008  0.00  0.00    +0.030 C 
ATOM      7  C   LIG    1       -0.729   1.579   1.267  0.00  0.00    +0.060 C 
ATOM      8  C   LIG    1        0.011   1.072   2.506  0.00  0.00    +0.030 C 
ENDBRANCH   1   7
BRANCH   2   9
ATOM      9  N   LIG    1       -3.149   3.292   1.300  0.00  0.00    -0.870 N 
ATOM     10  H   LIG    1       -3.923   3.877   1.310  0.00  0.00    +0.400 HD
ATOM     11  H   LIG    1       -3.267   2.330   1.296  0.00  0.00    +0.400 HD
ENDBRANCH   2   9
TORSDOF 2
