REMARK  Name = ZINCpk000000nWGg.0
REMARK                            x       y       z     vdW  Elec       q    Type
REMARK                         _______ _______ _______ _____ _____    ______ ____
ROOT
ATOM      1  C   LIG    1        2.129   1.367  -1.405  0.00  0.00    +0.060 C 
ATOM      2  C   LIG    1        1.517   1.433  -0.005  0.00  0.00    -0.090 C 
ATOM      3  C   LIG    1       -0.018   1.466   0.010  0.00  0.00    +0.270 C 
ATOM      4  N   LIG    1        0.002  -0.004   0.002  0.00  0.00    -0.660 N 
ATOM      5  C   LIG    1       -0.821  -0.983  -0.422  0.00  0.00    +0.730 C 
ATOM      6  N   LIG    1       -1.995  -0.671  -1.006  0.00  0.00    -0.740 N 
ATOM      7  H   LIG    1       -2.247   0.258  -1.121  0.00  0.00    +0.400 HD
ATOM      8  O   LIG    1       -0.504  -2.148  -0.278  0.00  0.00    -0.570 OA
ATOM      9  C   LIG    1        2.175   2.478   0.898  0.00  0.00    +0.050 C 
ATOM     10  C   LIG    1        1.316   0.064   0.660  0.00  0.00    +0.310 C 
ENDROOT
BRANCH  10  11
ATOM     11  C   LIG    1        2.283  -0.986   0.178  0.00  0.00    -0.150 A 
ATOM     12  C   LIG    1        3.377  -1.341   0.953  0.00  0.00    +0.070 A 
ATOM     13  C   LIG    1        4.240  -2.312   0.470  0.00  0.00    -0.040 A 
ATOM     14  C   LIG    1        3.984  -2.890  -0.758  0.00  0.00    +0.250 A 
ATOM     15  N   LIG    1        2.934  -2.528  -1.468  0.00  0.00    -0.490 NA
ATOM     16  C   LIG    1        2.089  -1.611  -1.039  0.00  0.00    +0.300 A 
ENDBRANCH  10  11
BRANCH   6  17
ATOM     17  C   LIG    1       -2.889  -1.736  -1.468  0.00  0.00    +0.290 C 
BRANCH  17  18
ATOM     18  C   LIG    1       -4.143  -1.116  -2.088  0.00  0.00    -0.020 C 
ATOM     19  C   LIG    1       -3.797  -0.347  -3.390  0.00  0.00    +0.040 C 
ATOM     20  C   LIG    1       -5.117  -0.405  -4.187  0.00  0.00    +0.270 C 
ATOM     21  N   LIG    1       -5.887  -1.547  -3.674  0.00  0.00    -1.010 NA
ATOM     22  C   LIG    1       -5.100  -2.212  -2.619  0.00  0.00    +0.280 C 
BRANCH  21  23
ATOM     23  S   LIG    1       -7.389  -2.010  -4.194  0.00  0.00    +2.630 S 
ATOM     24  O   LIG    1       -7.970  -0.815  -4.698  0.00  0.00    -0.950 OA
ATOM     25  O   LIG    1       -7.954  -2.684  -3.078  0.00  0.00    -0.950 OA
ATOM     26  C   LIG    1       -7.061  -3.177  -5.543  0.00  0.00    -0.280 C 
ENDBRANCH  21  23
ENDBRANCH  17  18
ENDBRANCH   6  17
TORSDOF 4
