REMARK  Name = ZINCpk00000y6uwa.0
REMARK                            x       y       z     vdW  Elec       q    Type
REMARK                         _______ _______ _______ _____ _____    ______ ____
ROOT
ATOM      1  C   UNK A  0       -1.986   1.290  -2.876  0.00  0.00    +0.260 C 
ATOM      2  O   UNK A  0       -1.486   0.214  -3.688  0.00  0.00    -0.350 OA
ATOM      3  C   UNK A  0       -2.582  -0.704  -3.891  0.00  0.00    +0.220 C 
ATOM      4  C   UNK A  0       -3.284  -0.740  -2.510  0.00  0.00    +0.040 C 
ATOM      5  C   UNK A  0       -3.155   0.734  -2.042  0.00  0.00    -0.030 C 
ENDROOT
BRANCH   1  10
ATOM      6  N   UNK A  0       -0.730   3.064  -1.542  0.00  0.00    -0.310 N 
ATOM      7  N   UNK A  0        0.400   3.101  -0.715  0.00  0.00    -0.260 NA
ATOM      8  C   UNK A  0        0.890   1.890  -0.638  0.00  0.00    +0.230 A 
ATOM      9  C   UNK A  0        0.090   1.043  -1.413  0.00  0.00    -0.080 A 
ATOM     10  C   UNK A  0       -0.896   1.790  -1.962  0.00  0.00    +0.070 A 
BRANCH   6  16
ATOM     11  C   UNK A  0       -2.024   5.003  -0.883  0.00  0.00    +0.140 A 
ATOM     12  C   UNK A  0       -2.825   6.082  -1.222  0.00  0.00    -0.060 A 
ATOM     13  C   UNK A  0       -3.146   6.315  -2.547  0.00  0.00    +0.060 A 
ATOM     14  C   UNK A  0       -2.668   5.476  -3.536  0.00  0.00    +0.010 A 
ATOM     15  C   UNK A  0       -1.864   4.401  -3.207  0.00  0.00    +0.060 A 
ATOM     16  C   UNK A  0       -1.542   4.157  -1.880  0.00  0.00    +0.110 A 
BRANCH  11  18
ATOM     17  C   UNK A  0       -2.238   5.681   1.386  0.00  0.00    +0.240 C 
ATOM     18  O   UNK A  0       -1.709   4.772   0.419  0.00  0.00    -0.300 OA
ENDBRANCH  11  18
ENDBRANCH   6  16
ENDBRANCH   1  10
BRANCH   5  19
ATOM     19  C   UNK A  0       -4.422   1.496  -2.335  0.00  0.00    +0.520 C 
ATOM     20  N   ALA A  1       -5.311   1.729  -1.350  0.00  0.00    -0.720 N 
ATOM     21  H   ALA A  1       -5.136   1.407  -0.452  0.00  0.00    +0.410 HD
ATOM     22  O   UNK A  0       -4.641   1.899  -3.458  0.00  0.00    -0.530 OA
BRANCH  20  23
ATOM     23  CA  ALA A  1       -6.543   2.470  -1.635  0.00  0.00    +0.240 C 
ATOM     24  CB  ALA A  1       -7.606   1.507  -2.167  0.00  0.00    +0.030 C 
BRANCH  23  25
ATOM     25  C   ALA A  1       -7.049   3.131  -0.351  0.00  0.00    +0.180 C 
BRANCH  25  26
ATOM     26  O   ALA A  1       -7.425   2.121   0.588  0.00  0.00    -0.570 OA
ATOM     27  H   ALA A  1       -7.756   2.469   1.427  0.00  0.00    +0.380 HD
ENDBRANCH  25  26
ENDBRANCH  23  25
ENDBRANCH  20  23
ENDBRANCH   5  19
TORSDOF 7
