REMARK  Name = ZINCpk00000y6z83.0
REMARK                            x       y       z     vdW  Elec       q    Type
REMARK                         _______ _______ _______ _____ _____    ______ ____
ROOT
ATOM      1  C   LIG    1        1.151   4.090   1.433  0.00  0.00    +0.520 C 
ATOM      2  N   LIG    1        1.132   5.414   1.687  0.00  0.00    -0.610 N 
ATOM      3  C   LIG    1        1.106   6.386   0.586  0.00  0.00    +0.260 C 
ATOM      4  C   LIG    1        2.260   7.377   0.775  0.00  0.00    +0.030 C 
ATOM      5  C   LIG    1        2.166   8.002   2.169  0.00  0.00    +0.050 C 
ATOM      6  C   LIG    1        2.289   6.907   3.231  0.00  0.00    +0.140 C 
ATOM      7  C   LIG    1        1.131   5.912   3.069  0.00  0.00    +0.270 C 
ATOM      8  O   LIG    1        1.172   3.297   2.351  0.00  0.00    -0.520 OA
ENDROOT
BRANCH   6   9
ATOM      9  O   LIG    1        3.535   6.225   3.070  0.00  0.00    -0.550 OA
ATOM     10  H   LIG    1        3.681   5.516   3.711  0.00  0.00    +0.390 HD
ENDBRANCH   6   9
BRANCH   1  11
ATOM     11  C   LIG    1        1.146   3.595   0.010  0.00  0.00    +0.110 C 
BRANCH  11  16
ATOM     12  C   LIG    1        2.399   0.030  -0.021  0.00  0.00    +0.130 A 
ATOM     13  C   LIG    1        1.207  -0.680  -0.014  0.00  0.00    -0.080 A 
ATOM     14  C   LIG    1        0.002  -0.004   0.002  0.00  0.00    +0.050 A 
ATOM     15  C   LIG    1       -0.017   1.378   0.010  0.00  0.00    -0.020 A 
ATOM     16  C   LIG    1        1.170   2.088   0.002  0.00  0.00    -0.030 A 
ATOM     17  C   LIG    1        2.377   1.417  -0.013  0.00  0.00    -0.010 A 
BRANCH  12  18
ATOM     18  O   LIG    1        3.586  -0.632  -0.037  0.00  0.00    -0.310 OA
BRANCH  18  19
ATOM     19  C   LIG    1        3.531  -2.060  -0.045  0.00  0.00    +0.230 C 
BRANCH  19  22
ATOM     20  C   LIG    1        6.654  -4.163   0.713  0.00  0.00    +0.070 C 
ATOM     21  C   LIG    1        5.253  -3.608   0.731  0.00  0.00    -0.030 C 
ATOM     22  C   LIG    1        4.932  -2.616  -0.062  0.00  0.00    -0.050 C 
ENDBRANCH  19  22
ENDBRANCH  18  19
ENDBRANCH  12  18
ENDBRANCH  11  16
ENDBRANCH   1  11
BRANCH   6  23
ATOM     23  C   LIG    1        2.229   7.538   4.623  0.00  0.00    +0.050 C 
BRANCH  23  24
ATOM     24  C   LIG    1        2.351   6.459   5.669  0.00  0.00    +0.520 C 
ATOM     25  O   LIG    1        2.474   5.300   5.333  0.00  0.00    -0.540 OA
ATOM     26  N   LIG    1        2.323   6.782   6.977  0.00  0.00    -0.850 N 
ATOM     27  H   LIG    1        2.402   6.088   7.650  0.00  0.00    +0.400 HD
ATOM     28  H   LIG    1        2.225   7.709   7.246  0.00  0.00    +0.400 HD
ENDBRANCH  23  24
ENDBRANCH   6  23
TORSDOF 8
