REMARK  Name = ZINCqH0000032734.0
REMARK                            x       y       z     vdW  Elec       q    Type
REMARK                         _______ _______ _______ _____ _____    ______ ____
ROOT
ATOM      1  C   LIG    1        4.857   1.132  -0.019  0.00  0.00    +0.180 A 
ATOM      2  N   LIG    1        4.736  -0.156   0.104  0.00  0.00    -0.360 NA
ATOM      3  O   LIG    1        5.826  -0.686   0.066  0.00  0.00    +0.080 OA
ATOM      4  C   LIG    1        6.775   0.242  -0.090  0.00  0.00    +0.180 A 
ATOM      5  N   LIG    1        6.168   1.403  -0.151  0.00  0.00    -0.460 NA
ENDROOT
BRANCH   4   6
ATOM      6  C   LIG    1        8.260   0.001  -0.185  0.00  0.00    +0.030 C 
ATOM      7  C   LIG    1        8.547  -1.501  -0.074  0.00  0.00    +0.070 C 
ATOM      8  C   LIG    1        7.680  -2.242  -1.093  0.00  0.00    +0.260 C 
ATOM      9  N   LIG    1        7.823  -1.644  -2.414  0.00  0.00    -0.720 N 
ATOM     10  H   LIG    1        7.561  -2.174  -3.184  0.00  0.00    +0.400 HD
ATOM     11  C   LIG    1        8.292  -0.415  -2.632  0.00  0.00    +0.520 C 
ATOM     12  O   LIG    1        8.328  -0.008  -3.774  0.00  0.00    -0.550 OA
ATOM     13  C   LIG    1        8.976   0.747   0.943  0.00  0.00    +0.090 C 
ATOM     14  C   LIG    1        8.777   0.493  -1.539  0.00  0.00    +0.120 C 
ENDBRANCH   4   6
BRANCH   1  16
ATOM     15  C   LIG    1        3.833   3.010  -1.274  0.00  0.00    +0.060 C 
ATOM     16  C   LIG    1        3.734   2.137  -0.021  0.00  0.00    +0.070 C 
ATOM     17  C   LIG    1        3.836   3.018   1.225  0.00  0.00    +0.070 C 
BRANCH  16  18
ATOM     18  C   LIG    1        2.412   1.413  -0.018  0.00  0.00    -0.070 A 
ATOM     19  C   LIG    1        1.502   1.656   0.964  0.00  0.00    +0.020 A 
ATOM     20  C   LIG    1        0.274   0.997   0.984  0.00  0.00    +0.010 A 
ATOM     21  C   LIG    1       -0.050   0.090   0.022  0.00  0.00    +0.030 A 
ATOM     22  C   LIG    1        0.865  -0.188  -1.008  0.00  0.00    -0.050 A 
ATOM     23  C   LIG    1        0.568  -1.122  -2.015  0.00  0.00    +0.030 A 
ATOM     24  C   LIG    1        1.477  -1.362  -2.999  0.00  0.00    +0.010 A 
ATOM     25  C   LIG    1        2.704  -0.703  -3.019  0.00  0.00    +0.010 A 
ATOM     26  C   LIG    1        3.028   0.205  -2.058  0.00  0.00    +0.020 A 
ATOM     27  C   LIG    1        2.113   0.483  -1.028  0.00  0.00    -0.030 A 
ENDBRANCH  16  18
ENDBRANCH   1  16
TORSDOF 3
