REMARK  Name = ZINCpk00000ebM8H.0
REMARK                            x       y       z     vdW  Elec       q    Type
REMARK                         _______ _______ _______ _____ _____    ______ ____
ROOT
ATOM      1  N   LIG    1       -2.431   0.879   2.868  0.00  0.00    -0.520 NA
ATOM      2  C   LIG    1       -1.490   0.052   3.636  0.00  0.00    +0.190 C 
ATOM      3  C   LIG    1       -1.863   0.103   5.120  0.00  0.00    +0.170 C 
ATOM      4  N   LIG    1       -3.242  -0.376   5.291  0.00  0.00    -0.530 NA
ATOM      5  C   LIG    1       -4.183   0.451   4.523  0.00  0.00    +0.200 C 
ATOM      6  C   LIG    1       -3.810   0.400   3.040  0.00  0.00    +0.190 C 
ENDROOT
BRANCH   1  15
ATOM      7  O   LIG    1       -3.758   2.558   1.316  0.00  0.00    -0.530 OA
ATOM      8  C   LIG    1       -3.001   1.838   0.700  0.00  0.00    +0.520 C 
ATOM      9  N   LIG    1       -3.000   1.861  -0.634  0.00  0.00    -0.730 N 
ATOM     10  H   LIG    1       -3.603   2.456  -1.106  0.00  0.00    +0.400 HD
ATOM     11  C   LIG    1       -2.091   0.987  -1.393  0.00  0.00    +0.270 C 
ATOM     12  C   LIG    1       -0.664   1.518  -1.244  0.00  0.00    +0.010 C 
ATOM     13  C   LIG    1       -0.008   0.961   0.006  0.00  0.00    +0.010 C 
ATOM     14  C   LIG    1       -0.638   1.453   1.296  0.00  0.00    +0.040 C 
ATOM     15  C   LIG    1       -2.060   0.917   1.447  0.00  0.00    +0.140 C 
ENDBRANCH   1  15
BRANCH   4  16
ATOM     16  C   LIG    1       -3.613  -0.413   6.712  0.00  0.00    +0.310 C 
BRANCH  16  17
ATOM     17  C   LIG    1       -2.785  -1.454   7.420  0.00  0.00    +0.300 A 
ATOM     18  N   LIG    1       -3.074  -2.721   7.483  0.00  0.00    -0.460 NA
ATOM     19  C   LIG    1       -2.117  -3.373   8.192  0.00  0.00    +0.010 A 
ATOM     20  C   LIG    1       -1.931  -4.711   8.557  0.00  0.00    +0.160 A 
ATOM     21  C   LIG    1       -0.832  -5.068   9.307  0.00  0.00    -0.030 A 
ATOM     22  C   LIG    1        0.092  -4.112   9.703  0.00  0.00    +0.070 A 
ATOM     23  C   LIG    1       -0.077  -2.789   9.351  0.00  0.00    +0.010 A 
ATOM     24  F   LIG    1       -2.826  -5.649   8.175  0.00  0.00    -0.130 F 
ATOM     25  C   LIG    1       -1.178  -2.410   8.596  0.00  0.00    +0.080 A 
ATOM     26  N   LIG    1       -1.628  -1.205   8.092  0.00  0.00    -0.600 N 
ATOM     27  H   LIG    1       -1.199  -0.342   8.198  0.00  0.00    +0.420 HD
ENDBRANCH  16  17
ENDBRANCH   4  16
TORSDOF 3
