REMARK  Name = ZINCqH0000000oxy.0
REMARK                            x       y       z     vdW  Elec       q    Type
REMARK                         _______ _______ _______ _____ _____    ______ ____
ROOT
ATOM      1  C   LIG    1        1.013  -0.421  -3.957  0.00  0.00    +0.280 C 
ATOM      2  C   LIG    1        0.057  -0.498  -5.149  0.00  0.00    +0.040 C 
ENDROOT
BRANCH   1   3
ATOM      3  C   LIG    1        1.677  -1.759  -3.759  0.00  0.00    -0.090 A 
ATOM      4  C   LIG    1        1.002  -2.773  -3.102  0.00  0.00    +0.010 A 
ATOM      5  C   LIG    1        1.603  -4.002  -2.922  0.00  0.00    +0.030 A 
ATOM      6  C   LIG    1        2.897  -4.218  -3.393  0.00  0.00    -0.040 A 
ATOM      7  C   LIG    1        3.574  -3.192  -4.049  0.00  0.00    +0.020 A 
ATOM      8  C   LIG    1        2.961  -1.968  -4.228  0.00  0.00    +0.030 A 
BRANCH   6   9
ATOM      9  C   LIG    1        3.550  -5.535  -3.197  0.00  0.00    -0.050 A 
ATOM     10  C   LIG    1        4.842  -5.753  -3.673  0.00  0.00    +0.020 A 
ATOM     11  C   LIG    1        5.447  -6.978  -3.483  0.00  0.00    +0.010 A 
ATOM     12  C   LIG    1        4.770  -7.994  -2.832  0.00  0.00    +0.000 A 
ATOM     13  C   LIG    1        3.486  -7.785  -2.362  0.00  0.00    +0.010 A 
ATOM     14  C   LIG    1        2.873  -6.561  -2.541  0.00  0.00    +0.020 A 
ENDBRANCH   6   9
ENDBRANCH   1   3
BRANCH   1  16
ATOM     15  C   LIG    1        0.013   1.230  -2.469  0.00  0.00    +0.520 C 
ATOM     16  N   LIG    1        0.262  -0.065  -2.751  0.00  0.00    -0.730 N 
ATOM     17  H   LIG    1       -0.057  -0.760  -2.155  0.00  0.00    +0.400 HD
ATOM     18  O   LIG    1        0.411   2.099  -3.215  0.00  0.00    -0.530 OA
BRANCH  15  25
ATOM     19  C   LIG    1       -1.801   1.201   3.401  0.00  0.00    +0.090 C 
ATOM     20  C   LIG    1       -1.091   0.697   2.171  0.00  0.00    +0.510 C 
ATOM     21  N   LIG    1       -0.706   1.562   1.213  0.00  0.00    -0.610 N 
ATOM     22  C   LIG    1       -0.975   3.001   1.350  0.00  0.00    +0.260 C 
ATOM     23  C   LIG    1       -1.711   3.490   0.099  0.00  0.00    +0.010 C 
ATOM     24  C   LIG    1       -0.898   3.118  -1.144  0.00  0.00    +0.050 C 
ATOM     25  C   LIG    1       -0.759   1.596  -1.228  0.00  0.00    -0.020 C 
ATOM     26  C   LIG    1       -0.013   1.086   0.008  0.00  0.00    +0.290 C 
ATOM     27  O   LIG    1       -0.866  -0.488   2.044  0.00  0.00    -0.540 OA
ENDBRANCH  15  25
ENDBRANCH   1  16
TORSDOF 4
