REMARK  Name = ZINCkj000005jVbS.1
REMARK                            x       y       z     vdW  Elec       q    Type
REMARK                         _______ _______ _______ _____ _____    ______ ____
ROOT
ATOM      1  C   LIG    1       -0.174   5.263   2.731  0.00  0.00    +0.110 C 
ATOM      2  C   LIG    1        0.421   4.921   1.364  0.00  0.00    +0.150 C 
ATOM      3  C   LIG    1        1.802   5.567   1.231  0.00  0.00    +0.230 C 
ATOM      4  N   LIG    1        2.394   5.190  -0.060  0.00  0.00    -0.380 N 
ATOM      5  C   LIG    1        2.527   3.728  -0.128  0.00  0.00    +0.260 C 
ATOM      6  C   LIG    1        1.145   3.085   0.008  0.00  0.00    +0.160 C 
ATOM      7  H   LIG    1        3.305   5.615  -0.149  0.00  0.00    +0.430 HD
ATOM      8  O   LIG    1        0.550   3.502   1.240  0.00  0.00    -0.340 OA
ENDROOT
BRANCH   6   9
ATOM      9  C   LIG    1        1.286   1.562  -0.002  0.00  0.00    +0.230 C 
BRANCH   9  10
ATOM     10  O   LIG    1       -0.011   0.963   0.007  0.00  0.00    -0.560 OA
ATOM     11  H   LIG    1        0.002  -0.004   0.002  0.00  0.00    +0.400 HD
ENDBRANCH   9  10
ENDBRANCH   6   9
BRANCH   4  12
ATOM     12  C   LIG    1        1.528   5.654  -1.151  0.00  0.00    +0.310 C 
BRANCH  12  13
ATOM     13  C   LIG    1        1.490   7.160  -1.157  0.00  0.00    -0.160 A 
ATOM     14  C   LIG    1        0.414   7.823  -0.600  0.00  0.00    +0.040 A 
ATOM     15  C   LIG    1        0.382   9.205  -0.599  0.00  0.00    +0.030 A 
ATOM     16  C   LIG    1        1.420   9.918  -1.166  0.00  0.00    +0.060 A 
ATOM     17  C   LIG    1        2.498   9.253  -1.732  0.00  0.00    -0.110 A 
ATOM     18  C   LIG    1        3.607  10.066  -2.346  0.00  0.00    +0.290 C 
ATOM     19  O   LIG    1        4.766   9.256  -2.537  0.00  0.00    -0.370 OA
ATOM     20  C   LIG    1        4.493   8.040  -3.242  0.00  0.00    +0.240 C 
ATOM     21  C   LIG    1        3.690   7.117  -2.324  0.00  0.00    +0.040 C 
ATOM     22  C   LIG    1        2.532   7.875  -1.726  0.00  0.00    -0.050 A 
ENDBRANCH  12  13
ENDBRANCH   4  12
TORSDOF 4
