REMARK  Name = ZINCkj000005jVbS.2
REMARK                            x       y       z     vdW  Elec       q    Type
REMARK                         _______ _______ _______ _____ _____    ______ ____
ROOT
ATOM      1  C   LIG    1       -0.457   2.174  -1.647  0.00  0.00    +0.110 C 
ATOM      2  C   LIG    1        0.084   1.554  -0.356  0.00  0.00    +0.150 C 
ATOM      3  C   LIG    1        1.567   1.900  -0.207  0.00  0.00    +0.240 C 
ATOM      4  N   LIG    1        2.070   1.352   1.061  0.00  0.00    -0.380 N 
ATOM      5  C   LIG    1        1.315   1.935   2.179  0.00  0.00    +0.250 C 
ATOM      6  C   LIG    1       -0.169   1.590   2.024  0.00  0.00    +0.160 C 
ATOM      7  H   LIG    1        1.955   0.350   1.064  0.00  0.00    +0.420 HD
ATOM      8  O   LIG    1       -0.637   2.076   0.763  0.00  0.00    -0.340 OA
ENDROOT
BRANCH   6   9
ATOM      9  C   LIG    1       -0.966   2.245   3.154  0.00  0.00    +0.230 C 
BRANCH   9  10
ATOM     10  O   LIG    1       -2.331   1.828   3.077  0.00  0.00    -0.560 OA
ATOM     11  H   LIG    1       -2.897   2.206   3.765  0.00  0.00    +0.400 HD
ENDBRANCH   9  10
ENDBRANCH   6   9
BRANCH   4  12
ATOM     12  C   LIG    1        3.494   1.683   1.207  0.00  0.00    +0.320 C 
BRANCH  12  13
ATOM     13  C   LIG    1        4.287   0.965   0.145  0.00  0.00    -0.160 A 
ATOM     14  C   LIG    1        4.686   1.643  -0.990  0.00  0.00    +0.040 A 
ATOM     15  C   LIG    1        5.415   0.985  -1.963  0.00  0.00    +0.030 A 
ATOM     16  C   LIG    1        5.738  -0.347  -1.799  0.00  0.00    +0.060 A 
ATOM     17  C   LIG    1        5.335  -1.029  -0.661  0.00  0.00    -0.110 A 
ATOM     18  C   LIG    1        5.697  -2.485  -0.523  0.00  0.00    +0.290 C 
ATOM     19  O   LIG    1        5.548  -2.904   0.836  0.00  0.00    -0.360 OA
ATOM     20  C   LIG    1        4.261  -2.587   1.378  0.00  0.00    +0.220 C 
ATOM     21  C   LIG    1        4.178  -1.072   1.574  0.00  0.00    +0.040 C 
ATOM     22  C   LIG    1        4.618  -0.370   0.315  0.00  0.00    -0.050 A 
ENDBRANCH  12  13
ENDBRANCH   4  12
TORSDOF 4
