REMARK  Name = ZINCpe00000gMYSD.0
REMARK                            x       y       z     vdW  Elec       q    Type
REMARK                         _______ _______ _______ _____ _____    ______ ____
ROOT
ATOM      1  C   LIG    1       -0.162  -0.549  -2.464  0.00  0.00    +0.240 A 
ATOM      2  C   LIG    1       -0.102   0.770  -2.877  0.00  0.00    -0.060 A 
ATOM      3  C   LIG    1       -0.221   1.079  -4.227  0.00  0.00    +0.270 A 
ATOM      4  C   LIG    1       -0.410   0.066  -5.165  0.00  0.00    -0.060 A 
ATOM      5  C   LIG    1       -0.475  -1.238  -4.768  0.00  0.00    +0.160 A 
ATOM      6  C   LIG    1       -0.353  -1.567  -3.414  0.00  0.00    -0.170 A 
ENDROOT
BRANCH   1  12
ATOM      7  C   LIG    1       -1.976   0.519  -0.194  0.00  0.00    +0.220 C 
ATOM      8  C   LIG    1       -0.807  -0.425  -0.088  0.00  0.00    +0.260 A 
ATOM      9  N   LIG    1       -0.350  -0.973   1.008  0.00  0.00    -0.330 NA
ATOM     10  N   LIG    1        0.658  -1.727   0.751  0.00  0.00    -0.040 NA
ATOM     11  N   LIG    1        0.913  -1.715  -0.513  0.00  0.00    -0.040 NA
ATOM     12  N   LIG    1       -0.039  -0.868  -1.108  0.00  0.00    -0.340 N 
ENDBRANCH   1  12
BRANCH   3  13
ATOM     13  N   LIG    1       -0.156   2.404  -4.643  0.00  0.00    -0.850 N 
ATOM     14  H   LIG    1       -0.025   3.111  -3.991  0.00  0.00    +0.410 HD
ATOM     15  H   LIG    1       -0.243   2.622  -5.584  0.00  0.00    +0.410 HD
ENDBRANCH   3  13
BRANCH   6  16
ATOM     16  C   LIG    1       -0.424  -2.973  -2.986  0.00  0.00    +0.510 C 
ATOM     17  O   LIG    1       -0.423  -3.248  -1.802  0.00  0.00    -0.490 OA
BRANCH  16  18
ATOM     18  O   LIG    1       -0.491  -3.955  -3.906  0.00  0.00    -0.320 OA
BRANCH  18  19
ATOM     19  C   LIG    1       -0.559  -5.319  -3.411  0.00  0.00    +0.180 C 
ATOM     20  C   LIG    1        0.857  -5.877  -3.257  0.00  0.00    +0.060 C 
BRANCH  19  21
ATOM     21  C   LIG    1       -1.331  -6.169  -4.387  0.00  0.00    +0.520 C 
ATOM     22  N   LIG    1       -1.610  -7.453  -4.088  0.00  0.00    -0.720 N 
ATOM     23  H   LIG    1       -1.314  -7.830  -3.245  0.00  0.00    +0.400 HD
ATOM     24  O   LIG    1       -1.701  -5.698  -5.441  0.00  0.00    -0.520 OA
BRANCH  22  25
ATOM     25  C   LIG    1       -2.360  -8.280  -5.037  0.00  0.00    +0.260 C 
BRANCH  25  26
ATOM     26  C   LIG    1       -2.540  -9.685  -4.458  0.00  0.00    -0.030 C 
ATOM     27  C   LIG    1       -1.173 -10.360  -4.325  0.00  0.00    +0.020 C 
ATOM     28  C   LIG    1       -3.428 -10.511  -5.390  0.00  0.00    +0.030 C 
ENDBRANCH  25  26
ENDBRANCH  22  25
ENDBRANCH  19  21
ENDBRANCH  18  19
ENDBRANCH  16  18
ENDBRANCH   6  16
TORSDOF 8
