REMARK  Name = ZINCpk000000nVli.0
REMARK                            x       y       z     vdW  Elec       q    Type
REMARK                         _______ _______ _______ _____ _____    ______ ____
ROOT
ATOM      1  C   LIG    1        0.171   5.109  -2.277  0.00  0.00    +0.030 C 
ATOM      2  C   LIG    1       -0.700   5.857  -1.266  0.00  0.00    -0.050 C 
ATOM      3  C   LIG    1       -0.661   7.357  -1.570  0.00  0.00    +0.020 C 
ATOM      4  C   LIG    1       -1.560   8.100  -0.578  0.00  0.00    +0.260 C 
ATOM      5  N   LIG    1       -1.147   7.750   0.788  0.00  0.00    -0.610 N 
ATOM      6  C   LIG    1       -1.063   6.331   1.160  0.00  0.00    +0.300 C 
ATOM      7  C   LIG    1       -0.849   8.713   1.683  0.00  0.00    +0.500 C 
ATOM      8  O   LIG    1       -0.508   8.412   2.807  0.00  0.00    -0.500 OA
ATOM      9  C   LIG    1       -2.142   5.355  -1.365  0.00  0.00    +0.030 C 
ATOM     10  C   LIG    1       -0.169   5.608   0.147  0.00  0.00    +0.030 C 
ENDROOT
BRANCH  10  11
ATOM     11  C   LIG    1       -0.179   4.129   0.435  0.00  0.00    -0.070 A 
ATOM     12  C   LIG    1       -1.372   3.485   0.705  0.00  0.00    +0.000 A 
ATOM     13  C   LIG    1       -1.381   2.128   0.968  0.00  0.00    +0.000 A 
ATOM     14  C   LIG    1       -0.197   1.414   0.959  0.00  0.00    +0.000 A 
ATOM     15  C   LIG    1        0.997   2.059   0.694  0.00  0.00    +0.000 A 
ATOM     16  C   LIG    1        1.005   3.416   0.427  0.00  0.00    +0.010 A 
ENDBRANCH  10  11
BRANCH   7  17
ATOM     17  C   LIG    1       -0.939  10.164   1.287  0.00  0.00    +0.370 C 
BRANCH  17  18
ATOM     18  N   LIG    1       -0.568  11.006   2.427  0.00  0.00    -0.290 N 
ATOM     19  C   LIG    1        0.390  11.951   2.428  0.00  0.00    +0.430 A 
ATOM     20  N   LIG    1        0.421  12.482   3.623  0.00  0.00    -0.480 NA
ATOM     21  C   LIG    1       -0.518  11.863   4.361  0.00  0.00    +0.130 A 
ATOM     22  N   LIG    1       -1.108  10.970   3.596  0.00  0.00    -0.220 NA
BRANCH  21  23
ATOM     23  C   LIG    1       -0.836  12.141   5.778  0.00  0.00    +0.620 C 
ATOM     24  O   LIG    1       -1.711  11.512   6.339  0.00  0.00    -0.520 OA
ATOM     25  N   LIG    1       -0.155  13.092   6.447  0.00  0.00    -0.830 N 
ATOM     26  H   LIG    1       -0.363  13.275   7.376  0.00  0.00    +0.410 HD
ATOM     27  H   LIG    1        0.543  13.595   5.998  0.00  0.00    +0.410 HD
ENDBRANCH  21  23
ENDBRANCH  17  18
ENDBRANCH   7  17
TORSDOF 4
