REMARK  Name = ZINCvU00000004i0.0
REMARK                            x       y       z     vdW  Elec       q    Type
REMARK                         _______ _______ _______ _____ _____    ______ ____
ROOT
ATOM      1  C   LIG    1       -6.101   2.163   0.246  0.00  0.00    +0.100 A 
ATOM      2  C   LIG    1       -4.928   1.437   0.231  0.00  0.00    -0.010 A 
ATOM      3  C   LIG    1       -3.699   2.101   0.134  0.00  0.00    -0.080 A 
ATOM      4  C   LIG    1       -3.668   3.497   0.043  0.00  0.00    +0.040 A 
ATOM      5  C   LIG    1       -4.845   4.214   0.055  0.00  0.00    -0.040 A 
ATOM      6  C   LIG    1       -6.063   3.554   0.156  0.00  0.00    +0.120 A 
ENDROOT
BRANCH   1   8
ATOM      7  C   LIG    1       -7.262   0.096   0.434  0.00  0.00    +0.240 C 
ATOM      8  O   LIG    1       -7.296   1.521   0.345  0.00  0.00    -0.300 OA
ENDBRANCH   1   8
BRANCH   3   9
ATOM      9  C   LIG    1       -2.445   1.334   0.121  0.00  0.00    +0.130 C 
ATOM     10  C   LIG    1       -1.262   1.976   0.021  0.00  0.00    -0.090 C 
BRANCH  10  11
ATOM     11  C   LIG    1       -0.014   1.213   0.009  0.00  0.00    +0.550 C 
ATOM     12  N   LIG    1        1.169   1.857   0.007  0.00  0.00    -0.610 N 
ATOM     13  C   LIG    1        1.232   3.323  -0.098  0.00  0.00    +0.260 C 
ATOM     14  C   LIG    1        2.074   3.869   1.065  0.00  0.00    +0.010 C 
ATOM     15  C   LIG    1        3.439   3.175   1.083  0.00  0.00    +0.020 C 
ATOM     16  C   LIG    1        3.236   1.673   1.282  0.00  0.00    -0.030 C 
ATOM     17  C   LIG    1        4.581   0.952   1.355  0.00  0.00    +0.020 C 
ATOM     18  C   LIG    1        4.334  -0.543   1.580  0.00  0.00    +0.000 C 
ATOM     19  C   LIG    1        3.501  -1.111   0.430  0.00  0.00    -0.010 C 
ATOM     20  C   LIG    1        2.163  -0.371   0.341  0.00  0.00    +0.050 C 
ATOM     21  C   LIG    1        2.431   1.115   0.104  0.00  0.00    +0.220 C 
ATOM     22  O   LIG    1       -0.045  -0.004  -0.006  0.00  0.00    -0.540 OA
ENDBRANCH  10  11
ENDBRANCH   3   9
BRANCH   6  23
ATOM     23  O   LIG    1       -7.219   4.266   0.167  0.00  0.00    -0.290 OA
BRANCH  23  24
ATOM     24  C   LIG    1       -7.107   5.688   0.071  0.00  0.00    +0.300 C 
BRANCH  24  25
ATOM     25  C   LIG    1       -8.483   6.303   0.099  0.00  0.00    -0.220 A 
ATOM     26  C   LIG    1       -9.192   6.711   1.179  0.00  0.00    +0.010 A 
ATOM     27  O   LIG    1      -10.354   7.189   0.711  0.00  0.00    +0.100 OA
ATOM     28  N   LIG    1      -10.412   7.113  -0.495  0.00  0.00    -0.360 NA
ATOM     29  C   LIG    1       -8.761   6.641   2.621  0.00  0.00    +0.190 C 
ATOM     30  C   LIG    1       -9.329   6.594  -0.996  0.00  0.00    +0.040 A 
ATOM     31  C   LIG    1       -9.036   6.347  -2.453  0.00  0.00    +0.160 C 
ENDBRANCH  24  25
ENDBRANCH  23  24
ENDBRANCH   6  23
TORSDOF 6
