REMARK  Name = ZINCzw0000000eKI.0
REMARK                            x       y       z     vdW  Elec       q    Type
REMARK                         _______ _______ _______ _____ _____    ______ ____
ROOT
ATOM      1  N   LIG    1       -4.426  -0.309  -5.241  0.00  0.00    -0.360 N 
ATOM      2  N   LIG    1       -4.940   0.509  -6.254  0.00  0.00    -0.220 NA
ATOM      3  C   LIG    1       -4.698   1.758  -5.975  0.00  0.00    +0.300 A 
ATOM      4  C   LIG    1       -4.003   1.815  -4.747  0.00  0.00    -0.290 A 
ATOM      5  C   LIG    1       -3.484   2.856  -3.952  0.00  0.00    +0.460 A 
ATOM      6  N   LIG    1       -2.868   2.541  -2.819  0.00  0.00    -0.610 NA
ATOM      7  C   LIG    1       -2.739   1.276  -2.437  0.00  0.00    +0.530 A 
ATOM      8  N   LIG    1       -3.206   0.268  -3.153  0.00  0.00    -0.510 NA
ATOM      9  C   LIG    1       -3.843   0.489  -4.302  0.00  0.00    +0.370 A 
ENDROOT
BRANCH   7  10
ATOM     10  N   LIG    1       -2.087   1.003  -1.247  0.00  0.00    -0.460 N 
ATOM     11  C   LIG    1       -0.733   1.582  -1.242  0.00  0.00    +0.240 C 
ATOM     12  C   LIG    1       -0.013   1.086   0.008  0.00  0.00    +0.280 C 
ATOM     13  N   LIG    1       -0.684   1.551   1.231  0.00  0.00    -0.360 N 
ATOM     14  C   LIG    1       -0.052   0.802   2.344  0.00  0.00    +0.260 C 
ATOM     15  C   LIG    1       -0.903   0.911   3.610  0.00  0.00    +0.090 C 
ATOM     16  C   LIG    1       -2.377   0.701   3.206  0.00  0.00    +0.000 C 
ATOM     17  C   LIG    1       -2.861   1.918   2.392  0.00  0.00    +0.090 C 
ATOM     18  C   LIG    1       -2.466  -0.080   1.875  0.00  0.00    +0.100 C 
ATOM     19  C   LIG    1       -2.118   1.255   1.207  0.00  0.00    +0.020 C 
ATOM     20  H   LIG    1       -0.539   2.543   1.347  0.00  0.00    +0.430 HD
ATOM     21  C   LIG    1       -2.840   1.527  -0.103  0.00  0.00    +0.270 C 
ENDBRANCH   7  10
BRANCH   5  22
ATOM     22  N   LIG    1       -3.614   4.175  -4.342  0.00  0.00    -0.460 N 
ATOM     23  C   LIG    1       -5.023   4.521  -4.566  0.00  0.00    +0.210 C 
ATOM     24  C   LIG    1       -5.117   5.939  -5.134  0.00  0.00    +0.070 C 
ATOM     25  C   LIG    1       -4.480   6.923  -4.149  0.00  0.00    +0.030 C 
ATOM     26  C   LIG    1       -3.027   6.511  -3.896  0.00  0.00    +0.300 C 
ATOM     27  C   LIG    1       -2.994   5.077  -3.363  0.00  0.00    +0.230 C 
BRANCH  26  28
ATOM     28  N   LIG    1       -2.427   7.413  -2.911  0.00  0.00    -0.160 N 
ATOM     29  N   LIG    1       -2.861   7.580  -1.712  0.00  0.00    -0.290 NA
ATOM     30  C   LIG    1       -2.092   8.452  -1.102  0.00  0.00    +0.170 A 
ATOM     31  C   LIG    1       -1.127   8.833  -2.038  0.00  0.00    +0.180 A 
ATOM     32  N   LIG    1       -1.397   8.152  -3.129  0.00  0.00    -0.290 NA
ENDBRANCH  26  28
ENDBRANCH   5  22
BRANCH   1  34
ATOM     33  C   LIG    1       -5.235  -2.282  -6.439  0.00  0.00    +0.070 C 
ATOM     34  C   LIG    1       -4.502  -1.772  -5.197  0.00  0.00    +0.190 C 
ATOM     35  C   LIG    1       -5.261  -2.206  -3.942  0.00  0.00    +0.050 C 
ATOM     36  C   LIG    1       -3.087  -2.355  -5.165  0.00  0.00    +0.050 C 
ENDBRANCH   1  34
TORSDOF 4
