REMARK  Name = ZINCzw0000000eKI.1
REMARK                            x       y       z     vdW  Elec       q    Type
REMARK                         _______ _______ _______ _____ _____    ______ ____
ROOT
ATOM      1  N   LIG    1       -1.433  -1.097  -5.130  0.00  0.00    -0.360 N 
ATOM      2  N   LIG    1       -0.485  -1.550  -6.056  0.00  0.00    -0.220 NA
ATOM      3  C   LIG    1        0.701  -1.139  -5.708  0.00  0.00    +0.300 A 
ATOM      4  C   LIG    1        0.582  -0.387  -4.519  0.00  0.00    -0.290 A 
ATOM      5  C   LIG    1        1.490   0.295  -3.685  0.00  0.00    +0.470 A 
ATOM      6  N   LIG    1        1.020   0.918  -2.611  0.00  0.00    -0.610 NA
ATOM      7  C   LIG    1       -0.276   0.903  -2.322  0.00  0.00    +0.540 A 
ATOM      8  N   LIG    1       -1.163   0.272  -3.073  0.00  0.00    -0.510 NA
ATOM      9  C   LIG    1       -0.783  -0.376  -4.173  0.00  0.00    +0.370 A 
ENDROOT
BRANCH   7  10
ATOM     10  N   LIG    1       -0.714   1.568  -1.190  0.00  0.00    -0.470 N 
ATOM     11  C   LIG    1       -0.013   1.086   0.008  0.00  0.00    +0.240 C 
ATOM     12  C   LIG    1       -0.720   1.575   1.277  0.00  0.00    +0.280 C 
ATOM     13  N   LIG    1       -1.319   2.879   1.013  0.00  0.00    -0.350 N 
ATOM     14  C   LIG    1       -1.556   3.663   2.220  0.00  0.00    +0.250 C 
ATOM     15  C   LIG    1       -0.291   4.419   2.634  0.00  0.00    +0.080 C 
ATOM     16  C   LIG    1        0.399   4.962   1.368  0.00  0.00    +0.000 C 
ATOM     17  C   LIG    1       -0.621   5.132   0.191  0.00  0.00    +0.110 C 
ATOM     18  C   LIG    1        0.966   3.803   0.559  0.00  0.00    +0.080 C 
ATOM     19  C   LIG    1       -0.479   3.618   0.063  0.00  0.00    +0.010 C 
ATOM     20  H   LIG    1       -2.212   2.721   0.571  0.00  0.00    +0.430 HD
ATOM     21  C   LIG    1       -0.554   3.030  -1.340  0.00  0.00    +0.270 C 
ENDBRANCH   7  10
BRANCH   5  22
ATOM     22  N   LIG    1        2.840   0.315  -3.978  0.00  0.00    -0.460 N 
ATOM     23  C   LIG    1        3.077   0.845  -5.327  0.00  0.00    +0.210 C 
ATOM     24  C   LIG    1        4.563   0.717  -5.672  0.00  0.00    +0.070 C 
ATOM     25  C   LIG    1        5.389   1.496  -4.645  0.00  0.00    +0.030 C 
ATOM     26  C   LIG    1        5.087   0.957  -3.244  0.00  0.00    +0.300 C 
ATOM     27  C   LIG    1        3.586   1.078  -2.969  0.00  0.00    +0.230 C 
BRANCH  26  28
ATOM     28  N   LIG    1        5.831   1.735  -2.250  0.00  0.00    -0.160 N 
ATOM     29  N   LIG    1        5.707   3.002  -2.072  0.00  0.00    -0.290 NA
ATOM     30  C   LIG    1        6.515   3.373  -1.104  0.00  0.00    +0.170 A 
ATOM     31  C   LIG    1        7.172   2.213  -0.689  0.00  0.00    +0.180 A 
ATOM     32  N   LIG    1        6.700   1.243  -1.440  0.00  0.00    -0.290 NA
ENDBRANCH  26  28
ENDBRANCH   5  22
BRANCH   1  34
ATOM     33  C   LIG    1       -3.197  -2.203  -6.412  0.00  0.00    +0.070 C 
ATOM     34  C   LIG    1       -2.874  -1.355  -5.181  0.00  0.00    +0.190 C 
ATOM     35  C   LIG    1       -3.627  -0.025  -5.265  0.00  0.00    +0.050 C 
ATOM     36  C   LIG    1       -3.303  -2.104  -3.917  0.00  0.00    +0.050 C 
ENDBRANCH   1  34
TORSDOF 4
