REMARK  Name = ZINCpk00000ebg2J.0
REMARK                            x       y       z     vdW  Elec       q    Type
REMARK                         _______ _______ _______ _____ _____    ______ ____
ROOT
ATOM      1  C   LIG    1       -5.112   1.333   3.591  0.00  0.00    +0.400 C 
ATOM      2  O   LIG    1       -4.989   2.534   3.699  0.00  0.00    -0.430 OA
ENDROOT
BRANCH   1   3
ATOM      3  C   LIG    1       -6.174   0.634   4.326  0.00  0.00    -0.190 A 
ATOM      4  C   LIG    1       -6.321  -0.753   4.199  0.00  0.00    +0.090 A 
ATOM      5  C   LIG    1       -7.307  -1.399   4.889  0.00  0.00    -0.020 A 
ATOM      6  C   LIG    1       -8.172  -0.680   5.709  0.00  0.00    +0.200 A 
ATOM      7  C   LIG    1       -8.033   0.700   5.834  0.00  0.00    +0.010 A 
ATOM      8  C   LIG    1       -7.047   1.354   5.152  0.00  0.00    +0.110 A 
BRANCH   6   9
ATOM      9  N   LIG    1       -9.179  -1.343   6.407  0.00  0.00    -0.680 N 
ATOM     10  H   LIG    1       -9.030  -2.244   6.734  0.00  0.00    +0.410 HD
ATOM     11  C   LIG    1      -10.360  -0.732   6.627  0.00  0.00    +0.700 C 
ATOM     12  O   LIG    1      -10.583   0.357   6.135  0.00  0.00    -0.570 OA
ATOM     13  N   LIG    1      -11.295  -1.329   7.392  0.00  0.00    -0.860 N 
ATOM     14  H   LIG    1      -12.145  -0.890   7.551  0.00  0.00    +0.420 HD
ATOM     15  H   LIG    1      -11.118  -2.198   7.785  0.00  0.00    +0.400 HD
ENDBRANCH   6   9
ENDBRANCH   1   3
BRANCH   1  16
ATOM     16  C   LIG    1       -4.174   0.556   2.703  0.00  0.00    +0.240 C 
BRANCH  16  17
ATOM     17  O   LIG    1       -3.222   1.466   2.092  0.00  0.00    -0.330 OA
BRANCH  17  18
ATOM     18  C   LIG    1       -2.310   0.929   1.266  0.00  0.00    +0.500 C 
ATOM     19  O   LIG    1       -2.308  -0.261   1.060  0.00  0.00    -0.510 OA
BRANCH  18  22
ATOM     20  C   LIG    1       -0.277   1.140  -0.335  0.00  0.00    +0.100 C 
ATOM     21  C   LIG    1       -1.401   1.997  -0.920  0.00  0.00    +0.080 C 
ATOM     22  C   LIG    1       -1.289   1.812   0.596  0.00  0.00    -0.020 C 
BRANCH  20  26
ATOM     23  C   LIG    1        4.703   1.590   0.019  0.00  0.00    +0.360 C 
ATOM     24  N   LIG    1        3.289   1.895  -0.212  0.00  0.00    -0.370 N 
ATOM     25  C   LIG    1        2.256   1.042  -0.051  0.00  0.00    +0.250 A 
ATOM     26  C   LIG    1        1.120   1.706  -0.368  0.00  0.00    -0.220 A 
ATOM     27  C   LIG    1        1.470   3.012  -0.727  0.00  0.00    +0.240 A 
ATOM     28  N   LIG    1        2.770   3.126  -0.634  0.00  0.00    -0.290 NA
ENDBRANCH  20  26
ENDBRANCH  18  22
ENDBRANCH  17  18
ENDBRANCH  16  17
ENDBRANCH   1  16
TORSDOF 7
