REMARK  Name = ZINCqH0000033keh.0
REMARK                            x       y       z     vdW  Elec       q    Type
REMARK                         _______ _______ _______ _____ _____    ______ ____
ROOT
ATOM      1  N   LIG    1       -0.119   1.586   0.032  0.00  0.00    -0.590 N 
ATOM      2  C   LIG    1       -1.396   1.987  -0.129  0.00  0.00    +0.600 C 
ATOM      3  O   LIG    1       -2.300   1.178  -0.057  0.00  0.00    -0.510 OA
ENDROOT
BRANCH   2   4
ATOM      4  C   LIG    1       -1.697   3.414  -0.395  0.00  0.00    -0.020 A 
ATOM      5  N   LIG    1       -0.830   4.377  -0.595  0.00  0.00    -0.320 NA
ATOM      6  O   LIG    1       -1.375   5.438  -0.790  0.00  0.00    +0.120 OA
ATOM      7  C   LIG    1       -2.714   5.327  -0.735  0.00  0.00    +0.020 A 
ATOM      8  C   LIG    1       -2.982   4.012  -0.477  0.00  0.00    +0.010 A 
BRANCH   7   9
ATOM      9  C   LIG    1       -3.701   6.413  -0.918  0.00  0.00    -0.030 A 
ATOM     10  C   LIG    1       -5.067   6.139  -0.838  0.00  0.00    +0.040 A 
ATOM     11  C   LIG    1       -5.983   7.158  -1.004  0.00  0.00    +0.010 A 
ATOM     12  C   LIG    1       -5.550   8.446  -1.261  0.00  0.00    +0.030 A 
ATOM     13  C   LIG    1       -4.197   8.723  -1.348  0.00  0.00    +0.010 A 
ATOM     14  C   LIG    1       -3.271   7.715  -1.178  0.00  0.00    +0.040 A 
ENDBRANCH   7   9
ENDBRANCH   2   4
BRANCH   1  16
ATOM     15  C   LIG    1        1.424   2.856  -1.378  0.00  0.00    +0.030 C 
ATOM     16  C   LIG    1        0.962   2.575   0.053  0.00  0.00    +0.270 C 
ENDBRANCH   1  16
BRANCH   1  17
ATOM     17  C   LIG    1        0.189   0.162   0.181  0.00  0.00    +0.360 C 
BRANCH  17  18
ATOM     18  C   LIG    1        0.160  -0.209   1.641  0.00  0.00    -0.100 A 
ATOM     19  C   LIG    1        1.313  -0.123   2.398  0.00  0.00    +0.050 A 
ATOM     20  C   LIG    1        1.290  -0.457   3.740  0.00  0.00    +0.040 A 
ATOM     21  C   LIG    1        0.112  -0.889   4.326  0.00  0.00    +0.040 A 
ATOM     22  O   LIG    1       -0.174  -1.277   5.603  0.00  0.00    -0.310 OA
ATOM     23  C   LIG    1       -1.419  -1.996   5.517  0.00  0.00    +0.430 C 
ATOM     24  O   LIG    1       -2.062  -1.427   4.361  0.00  0.00    -0.310 OA
ATOM     25  C   LIG    1       -1.049  -0.982   3.562  0.00  0.00    +0.030 A 
ATOM     26  C   LIG    1       -1.020  -0.640   2.220  0.00  0.00    +0.060 A 
ENDBRANCH  17  18
ENDBRANCH   1  17
TORSDOF 5
