REMARK  Name = ZINCrD000000BjuF.0
REMARK                            x       y       z     vdW  Elec       q    Type
REMARK                         _______ _______ _______ _____ _____    ______ ____
ROOT
ATOM      1  O   LIG    1        1.483   8.168   0.355  0.00  0.00    -0.580 OA
ATOM      2  C   LIG    1        0.852   7.533  -0.468  0.00  0.00    +0.710 C 
ATOM      3  N   LIG    1       -0.121   8.135  -1.181  0.00  0.00    -0.630 N 
ATOM      4  C   LIG    1       -0.971   7.365  -2.103  0.00  0.00    +0.240 C 
ATOM      5  C   LIG    1       -0.980   8.075  -3.461  0.00  0.00    +0.220 C 
ATOM      6  O   LIG    1       -1.330   9.448  -3.272  0.00  0.00    -0.370 OA
ATOM      7  C   LIG    1       -0.402  10.184  -2.470  0.00  0.00    +0.200 C 
ATOM      8  C   LIG    1       -0.368   9.580  -1.056  0.00  0.00    +0.300 C 
ATOM      9  N   LIG    1        1.124   6.229  -0.666  0.00  0.00    -0.740 N 
ATOM     10  H   LIG    1        0.573   5.704  -1.268  0.00  0.00    +0.400 HD
ENDROOT
BRANCH   7  11
ATOM     11  C   LIG    1       -0.838  11.624  -2.389  0.00  0.00    -0.070 A 
ATOM     12  C   LIG    1       -2.179  11.934  -2.259  0.00  0.00    +0.060 A 
ATOM     13  C   LIG    1       -2.578  13.255  -2.180  0.00  0.00    +0.050 A 
ATOM     14  C   LIG    1       -1.637  14.267  -2.243  0.00  0.00    -0.080 A 
ATOM     15  C   LIG    1       -0.296  13.957  -2.379  0.00  0.00    +0.050 A 
ATOM     16 BR   LIG    1       -2.184  16.075  -2.142  0.00  0.00    -0.050 Br
ATOM     17  C   LIG    1        0.103  12.635  -2.452  0.00  0.00    +0.030 A 
ENDBRANCH   7  11
BRANCH   9  18
ATOM     18  C   LIG    1        2.253   5.602   0.026  0.00  0.00    +0.320 C 
BRANCH  18  19
ATOM     19  C   LIG    1        2.341   4.127  -0.372  0.00  0.00    +0.130 C 
ATOM     20  C   LIG    1        3.522   3.466   0.351  0.00  0.00    +0.240 C 
ATOM     21  O   LIG    1        3.567   2.087  -0.032  0.00  0.00    -0.300 OA
ATOM     22  C   LIG    1        2.387   1.409  -0.016  0.00  0.00    +0.050 A 
ATOM     23  C   LIG    1        2.399   0.022  -0.021  0.00  0.00    +0.030 A 
ATOM     24  C   LIG    1        1.208  -0.681  -0.010  0.00  0.00    +0.020 A 
ATOM     25  C   LIG    1        0.004  -0.004   0.007  0.00  0.00    +0.020 A 
ATOM     26  C   LIG    1       -0.015   1.378   0.014  0.00  0.00    +0.020 A 
ATOM     27  C   LIG    1        1.175   2.089   0.004  0.00  0.00    +0.050 A 
ATOM     28  O   LIG    1        1.141   3.450   0.017  0.00  0.00    -0.300 OA
ENDBRANCH  18  19
ENDBRANCH   9  18
TORSDOF 3
