REMARK  Name = ZINCtV000002OI9P.0
REMARK                            x       y       z     vdW  Elec       q    Type
REMARK                         _______ _______ _______ _____ _____    ______ ____
ROOT
ATOM      1  C   LIG    1       -3.096   2.802  -0.780  0.00  0.00    +0.420 A 
ATOM      2  N   LIG    1       -2.682   1.654  -0.306  0.00  0.00    -0.480 NA
ATOM      3  C   LIG    1       -1.750   1.884   0.643  0.00  0.00    +0.070 A 
ATOM      4  C   LIG    1       -1.604   3.252   0.745  0.00  0.00    +0.000 A 
ATOM      5  O   LIG    1       -2.450   3.800  -0.158  0.00  0.00    -0.170 OA
ENDROOT
BRANCH   4   6
ATOM      6  C   LIG    1       -0.698   3.976   1.657  0.00  0.00    -0.020 A 
ATOM      7  C   LIG    1        0.637   3.581   1.780  0.00  0.00    +0.050 A 
ATOM      8  C   LIG    1        1.479   4.266   2.631  0.00  0.00    +0.010 A 
ATOM      9  C   LIG    1        1.002   5.335   3.369  0.00  0.00    +0.030 A 
ATOM     10  C   LIG    1       -0.320   5.728   3.256  0.00  0.00    +0.010 A 
ATOM     11  C   LIG    1       -1.172   5.056   2.406  0.00  0.00    +0.040 A 
ENDBRANCH   4   6
BRANCH   3  12
ATOM     12  C   LIG    1       -1.026   0.861   1.432  0.00  0.00    -0.020 A 
ATOM     13  C   LIG    1       -0.580  -0.310   0.819  0.00  0.00    +0.040 A 
ATOM     14  C   LIG    1        0.089  -1.262   1.560  0.00  0.00    +0.010 A 
ATOM     15  C   LIG    1        0.318  -1.057   2.909  0.00  0.00    +0.010 A 
ATOM     16  C   LIG    1       -0.122   0.102   3.523  0.00  0.00    +0.010 A 
ATOM     17  C   LIG    1       -0.792   1.061   2.792  0.00  0.00    +0.030 A 
ENDBRANCH   3  12
BRANCH   1  20
ATOM     18  O   LIG    1       -3.871   5.174  -1.677  0.00  0.00    -0.450 OA
ATOM     19  C   LIG    1       -4.396   4.198  -2.178  0.00  0.00    +0.560 C 
ATOM     20  N   LIG    1       -4.050   2.962  -1.769  0.00  0.00    -0.610 N 
ATOM     21  H   LIG    1       -4.469   2.183  -2.168  0.00  0.00    +0.440 HD
BRANCH  19  22
ATOM     22  C   LIG    1       -5.415   4.369  -3.233  0.00  0.00    -0.150 A 
ATOM     23  C   LIG    1       -6.028   3.253  -3.817  0.00  0.00    +0.130 A 
ATOM     24  C   LIG    1       -6.977   3.466  -4.803  0.00  0.00    +0.070 A 
ATOM     25  C   LIG    1       -7.287   4.766  -5.176  0.00  0.00    +0.190 A 
ATOM     26  N   LIG    1       -6.692   5.798  -4.607  0.00  0.00    -0.440 NA
ATOM     27 CL   LIG    1       -8.476   5.039  -6.412  0.00  0.00    +0.030 Cl
ATOM     28  F   LIG    1       -7.594   2.420  -5.395  0.00  0.00    -0.100 F 
ATOM     29  C   LIG    1       -5.787   5.646  -3.661  0.00  0.00    +0.240 A 
ATOM     30 CL   LIG    1       -5.046   7.043  -2.946  0.00  0.00    +0.050 Cl
ENDBRANCH  19  22
ENDBRANCH   1  20
TORSDOF 4
