REMARK  Name = ZINCpk00000kEZ4I.0
REMARK                            x       y       z     vdW  Elec       q    Type
REMARK                         _______ _______ _______ _____ _____    ______ ____
ROOT
ATOM      1  C   LIG    1       -5.201   6.704   4.996  0.00  0.00    +0.610 C 
ATOM      2  N   LIG    1       -4.403   6.860   3.921  0.00  0.00    -0.620 N 
ATOM      3  C   LIG    1       -4.359   8.045   3.051  0.00  0.00    +0.230 C 
ATOM      4  C   LIG    1       -3.322   7.762   1.944  0.00  0.00    +0.090 C 
ATOM      5  C   LIG    1       -3.250   6.212   1.923  0.00  0.00    +0.110 C 
ATOM      6  C   LIG    1       -3.429   5.872   3.423  0.00  0.00    +0.250 C 
ATOM      7  O   LIG    1       -5.152   5.677   5.646  0.00  0.00    -0.520 OA
ENDROOT
BRANCH   1  13
ATOM      8  C   LIG    1       -8.745   9.392   7.432  0.00  0.00    +0.100 C 
ATOM      9  C   LIG    1       -7.688   8.967   6.446  0.00  0.00    -0.180 A 
ATOM     10  C   LIG    1       -7.237   9.696   5.397  0.00  0.00    +0.050 A 
ATOM     11  N   LIG    1       -6.285   8.984   4.745  0.00  0.00    -0.540 N 
ATOM     12  H   LIG    1       -5.797   9.277   3.960  0.00  0.00    +0.410 HD
ATOM     13  C   LIG    1       -6.128   7.773   5.382  0.00  0.00    -0.060 A 
ATOM     14  C   LIG    1       -7.712  11.075   5.019  0.00  0.00    +0.150 C 
ATOM     15  C   LIG    1       -6.998   7.750   6.451  0.00  0.00    +0.060 A 
ENDBRANCH   1  13
BRANCH   5  16
ATOM     16  O   LIG    1       -4.312   5.660   1.142  0.00  0.00    -0.540 OA
ATOM     17  H   LIG    1       -4.337   4.694   1.140  0.00  0.00    +0.380 HD
ENDBRANCH   5  16
BRANCH   5  18
ATOM     18  C   LIG    1       -1.891   5.733   1.410  0.00  0.00    +0.280 C 
BRANCH  18  19
ATOM     19  N   LIG    1       -1.803   4.277   1.546  0.00  0.00    -0.730 N 
ATOM     20  H   LIG    1       -2.548   3.779   1.917  0.00  0.00    +0.400 HD
ATOM     21  C   LIG    1       -0.687   3.629   1.155  0.00  0.00    +0.500 C 
ATOM     22  O   LIG    1        0.244   4.252   0.691  0.00  0.00    -0.510 OA
BRANCH  21  23
ATOM     23  C   LIG    1       -0.597   2.132   1.294  0.00  0.00    +0.190 C 
ATOM     24  F   LIG    1        0.234   1.813   2.373  0.00  0.00    -0.180 F 
BRANCH  23  25
ATOM     25  C   LIG    1       -0.019   1.534   0.011  0.00  0.00    -0.020 C 
ATOM     26  C   LIG    1        1.518   1.476  -0.004  0.00  0.00    +0.030 C 
ATOM     27  C   LIG    1        1.381   0.097  -0.670  0.00  0.00    +0.010 C 
ATOM     28  C   LIG    1        0.002  -0.004   0.002  0.00  0.00    +0.030 C 
ENDBRANCH  23  25
ENDBRANCH  21  23
ENDBRANCH  18  19
ENDBRANCH   5  18
TORSDOF 6
