REMARK  Name = ZINCrD000001YJ9D.0
REMARK                            x       y       z     vdW  Elec       q    Type
REMARK                         _______ _______ _______ _____ _____    ______ ____
ROOT
ATOM      1  C   LIG    1       -1.807   6.467   0.544  0.00  0.00    +0.570 C 
ATOM      2  N   LIG    1       -2.216   5.254   0.964  0.00  0.00    -0.720 N 
ATOM      3  H   LIG    1       -2.443   5.114   1.896  0.00  0.00    +0.400 HD
ATOM      4  O   LIG    1       -1.609   6.667  -0.639  0.00  0.00    -0.530 OA
ENDROOT
BRANCH   2   5
ATOM      5  C   LIG    1       -2.317   4.145   0.011  0.00  0.00    +0.310 C 
ATOM      6  C   LIG    1       -3.661   4.200  -0.712  0.00  0.00    +0.020 C 
ATOM      7  C   LIG    1       -3.863   2.882  -1.470  0.00  0.00    +0.260 C 
ATOM      8  O   LIG    1       -3.950   1.822  -0.517  0.00  0.00    -0.300 OA
ATOM      9  C   LIG    1       -2.993   1.755   0.446  0.00  0.00    +0.150 A 
ATOM     10  C   LIG    1       -2.838   0.561   1.147  0.00  0.00    +0.060 A 
ATOM     11  C   LIG    1       -1.879   0.453   2.135  0.00  0.00    +0.080 A 
ATOM     12  C   LIG    1       -1.073   1.536   2.435  0.00  0.00    -0.010 A 
ATOM     13  C   LIG    1       -1.226   2.724   1.744  0.00  0.00    +0.140 A 
ATOM     14  F   LIG    1       -0.437   3.780   2.039  0.00  0.00    -0.120 F 
ATOM     15  F   LIG    1       -3.626  -0.498   0.855  0.00  0.00    -0.120 F 
ATOM     16  C   LIG    1       -2.187   2.837   0.749  0.00  0.00    -0.190 A 
ENDBRANCH   2   5
BRANCH   1  20
ATOM     17  C   LIG    1       -1.207   9.595   3.353  0.00  0.00    +0.170 A 
ATOM     18  C   LIG    1       -0.980   9.825   1.999  0.00  0.00    +0.000 A 
ATOM     19  C   LIG    1       -1.173   8.813   1.086  0.00  0.00    +0.100 A 
ATOM     20  C   LIG    1       -1.598   7.554   1.520  0.00  0.00    -0.140 A 
ATOM     21  C   LIG    1       -1.830   7.328   2.880  0.00  0.00    +0.060 A 
ATOM     22  C   LIG    1       -1.629   8.343   3.788  0.00  0.00    +0.020 A 
BRANCH  17  24
ATOM     23  C   LIG    1       -2.061  11.146   4.935  0.00  0.00    +0.550 C 
ATOM     24  N   LIG    1       -1.010  10.621   4.275  0.00  0.00    -0.580 N 
ATOM     25  C   LIG    1        0.341  11.130   4.526  0.00  0.00    +0.300 C 
ATOM     26  O   LIG    1       -3.190  10.780   4.668  0.00  0.00    -0.520 OA
BRANCH  23  28
ATOM     27  C   LIG    1       -2.882  12.677   6.629  0.00  0.00    +0.160 C 
ATOM     28  C   LIG    1       -1.844  12.159   5.978  0.00  0.00    -0.090 C 
ENDBRANCH  23  28
ENDBRANCH  17  24
ENDBRANCH   1  20
TORSDOF 4
