REMARK  Name = ZINCpe000000Un3A.0
REMARK                            x       y       z     vdW  Elec       q    Type
REMARK                         _______ _______ _______ _____ _____    ______ ____
ROOT
ATOM      1  C   LIG    1       -4.552   4.862   2.866  0.00  0.00    +0.220 C 
ATOM      2  C   LIG    1       -4.529   6.169   2.045  0.00  0.00    +0.050 C 
ATOM      3  C   LIG    1       -5.828   6.887   2.499  0.00  0.00    +0.040 C 
ATOM      4  C   LIG    1       -6.791   5.690   2.701  0.00  0.00    +0.250 C 
ATOM      5  N   LIG    1       -5.948   4.617   3.258  0.00  0.00    -0.610 N 
ATOM      6  C   LIG    1       -6.384   3.582   4.003  0.00  0.00    +0.540 C 
ATOM      7  O   LIG    1       -5.597   2.754   4.410  0.00  0.00    -0.510 OA
ENDROOT
BRANCH   1  10
ATOM      8  C   LIG    1       -1.913   4.878   1.832  0.00  0.00    +0.290 C 
ATOM      9  N   LIG    1       -2.790   3.742   1.539  0.00  0.00    -0.610 N 
ATOM     10  C   LIG    1       -4.048   3.719   2.023  0.00  0.00    +0.510 C 
ATOM     11  O   LIG    1       -4.774   2.778   1.781  0.00  0.00    -0.510 OA
BRANCH   9  12
ATOM     12  C   LIG    1       -2.300   2.631   0.720  0.00  0.00    +0.270 C 
ATOM     13  C   LIG    1       -1.895   3.152  -0.670  0.00  0.00    +0.060 C 
ATOM     14  C   LIG    1       -1.088   2.017  -1.351  0.00  0.00    -0.310 C 
ATOM     15  S   LIG    1       -0.017   1.417   0.010  0.00  0.00    +2.390 S 
ATOM     16  O   LIG    1        1.205   2.141   0.002  0.00  0.00    -0.930 OA
ATOM     17  O   LIG    1        0.002  -0.004   0.002  0.00  0.00    -0.930 OA
ATOM     18  C   LIG    1       -1.059   2.001   1.395  0.00  0.00    -0.330 C 
ENDBRANCH   9  12
ENDBRANCH   1  10
BRANCH   6  19
ATOM     19  C   LIG    1       -7.849   3.454   4.330  0.00  0.00    +0.110 C 
BRANCH  19  20
ATOM     20  C   LIG    1       -8.071   2.221   5.168  0.00  0.00    -0.070 A 
ATOM     21  C   LIG    1       -8.345   1.011   4.559  0.00  0.00    +0.020 A 
ATOM     22  C   LIG    1       -8.544  -0.120   5.327  0.00  0.00    +0.000 A 
ATOM     23  C   LIG    1       -8.479  -0.040   6.705  0.00  0.00    +0.000 A 
ATOM     24  C   LIG    1       -8.211   1.171   7.315  0.00  0.00    +0.000 A 
ATOM     25  C   LIG    1       -8.008   2.302   6.547  0.00  0.00    +0.010 A 
ENDBRANCH  19  20
ENDBRANCH   6  19
TORSDOF 4
