REMARK  Name = ZINCrg000000nCCF.0
REMARK                            x       y       z     vdW  Elec       q    Type
REMARK                         _______ _______ _______ _____ _____    ______ ____
ROOT
ATOM      1  N   LIG    1       -3.922   4.460   2.960  0.00  0.00    -1.000 NA
ENDROOT
BRANCH   1   2
ATOM      2  S   LIG    1       -3.846   2.819   3.173  0.00  0.00    +2.710 S 
ATOM      3  O   LIG    1       -3.828   2.597   4.576  0.00  0.00    -0.960 OA
ATOM      4  O   LIG    1       -4.824   2.257   2.309  0.00  0.00    -0.950 OA
BRANCH   2   5
ATOM      5  C   LIG    1       -2.281   2.286   2.565  0.00  0.00    -0.750 A 
ATOM      6  C   LIG    1       -2.007   1.902   1.295  0.00  0.00    +0.330 A 
ATOM      7  N   LIG    1       -0.698   1.559   1.213  0.00  0.00    -0.400 N 
ATOM      8  C   LIG    1       -0.119   1.736   2.449  0.00  0.00    -0.060 A 
ATOM      9  C   LIG    1       -0.013   1.086   0.008  0.00  0.00    +0.350 C 
ATOM     10  C   LIG    1       -1.099   2.191   3.306  0.00  0.00    +0.110 A 
BRANCH   8  11
ATOM     11  C   LIG    1        1.285   1.486   2.792  0.00  0.00    +0.600 C 
ATOM     12  O   LIG    1        2.077   1.171   1.924  0.00  0.00    -0.550 OA
ATOM     13  N   LIG    1        1.698   1.606   4.069  0.00  0.00    -0.840 N 
ATOM     14  H   LIG    1        2.639   1.513   4.286  0.00  0.00    +0.410 HD
ATOM     15  H   LIG    1        1.055   1.786   4.773  0.00  0.00    +0.410 HD
ENDBRANCH   8  11
ENDBRANCH   2   5
ENDBRANCH   1   2
BRANCH   1  16
ATOM     16  C   LIG    1       -3.450   5.358   4.017  0.00  0.00    +0.290 C 
BRANCH  16  17
ATOM     17  C   LIG    1       -1.999   5.756   3.738  0.00  0.00    +0.000 C 
BRANCH  17  18
ATOM     18  C   LIG    1       -1.506   6.694   4.841  0.00  0.00    +0.010 C 
BRANCH  18  19
ATOM     19  C   LIG    1       -0.055   7.092   4.562  0.00  0.00    +0.000 C 
BRANCH  19  21
ATOM     20  C   LIG    1        1.889   8.428   5.386  0.00  0.00    +0.000 C 
ATOM     21  C   LIG    1        0.438   8.030   5.665  0.00  0.00    -0.010 C 
ENDBRANCH  19  21
ENDBRANCH  18  19
ENDBRANCH  17  18
ENDBRANCH  16  17
ENDBRANCH   1  16
BRANCH   1  22
ATOM     22  C   LIG    1       -4.461   5.013   1.716  0.00  0.00    +0.300 C 
BRANCH  22  23
ATOM     23  C   LIG    1       -5.945   5.336   1.902  0.00  0.00    +0.160 C 
BRANCH  23  24
ATOM     24  N   LIG    1       -6.485   5.891   0.653  0.00  0.00    -0.530 NA
ATOM     25  C   LIG    1       -5.884   7.199   0.354  0.00  0.00    +0.140 C 
ATOM     26  C   LIG    1       -6.430   7.712  -0.981  0.00  0.00    +0.220 C 
ATOM     27  O   LIG    1       -7.857   7.774  -0.915  0.00  0.00    -0.390 OA
ATOM     28  C   LIG    1       -8.476   6.517  -0.626  0.00  0.00    +0.220 C 
ATOM     29  C   LIG    1       -7.951   5.992   0.713  0.00  0.00    +0.150 C 
ENDBRANCH  23  24
ENDBRANCH  22  23
ENDBRANCH   1  22
TORSDOF 11
