REMARK  Name = ZINCrH00000tj18e.0
REMARK                            x       y       z     vdW  Elec       q    Type
REMARK                         _______ _______ _______ _____ _____    ______ ____
ROOT
ATOM      1  C   LIG    1       -7.264   5.189   0.064  0.00  0.00    +0.580 C 
ATOM      2  N   LIG    1       -5.970   5.566   0.060  0.00  0.00    -0.600 N 
ATOM      3  H   LIG    1       -5.740   6.508   0.064  0.00  0.00    +0.430 HD
ATOM      4  O   LIG    1       -7.553   4.008   0.059  0.00  0.00    -0.480 OA
ENDROOT
BRANCH   2   5
ATOM      5  C   LIG    1       -4.967   4.605   0.050  0.00  0.00    +0.320 A 
ATOM      6  N   LIG    1       -3.690   4.812   0.045  0.00  0.00    -0.300 NA
ATOM      7  N   LIG    1       -2.828   3.722   0.035  0.00  0.00    -0.300 N 
ATOM      8  C   LIG    1       -1.467   3.464   0.033  0.00  0.00    +0.210 A 
ATOM      9  C   LIG    1       -1.310   2.116   0.020  0.00  0.00    +0.070 A 
ATOM     10  N   LIG    1       -2.534   1.554   0.023  0.00  0.00    -0.420 NA
ATOM     11  C   LIG    1       -3.437   2.505   0.032  0.00  0.00    +0.100 A 
ATOM     12  S   LIG    1       -5.175   2.845   0.042  0.00  0.00    +0.250 S 
BRANCH   9  13
ATOM     13  C   LIG    1       -0.017   1.389   0.010  0.00  0.00    -0.010 A 
ATOM     14  C   LIG    1        1.184   2.098   0.002  0.00  0.00    +0.010 A 
ATOM     15  C   LIG    1        2.384   1.416  -0.013  0.00  0.00    +0.010 A 
ATOM     16  C   LIG    1        2.396   0.033  -0.021  0.00  0.00    +0.000 A 
ATOM     17  C   LIG    1        1.208  -0.675  -0.013  0.00  0.00    +0.010 A 
ATOM     18  C   LIG    1        0.002  -0.004   0.002  0.00  0.00    +0.040 A 
ENDBRANCH   9  13
ENDBRANCH   2   5
BRANCH   1  23
ATOM     19  C   LIG    1       -9.006   8.522   0.090  0.00  0.00    +0.170 A 
ATOM     20  C   LIG    1      -10.337   8.132   0.094  0.00  0.00    -0.120 A 
ATOM     21  C   LIG    1      -10.669   6.785   0.088  0.00  0.00    +0.170 A 
ATOM     22  C   LIG    1       -9.672   5.823   0.079  0.00  0.00    +0.030 A 
ATOM     23  C   LIG    1       -8.332   6.211   0.074  0.00  0.00    -0.060 A 
ATOM     24  C   LIG    1       -8.002   7.567   0.086  0.00  0.00    -0.010 A 
BRANCH  19  26
ATOM     25  C   LIG    1       -9.770  10.773   0.105  0.00  0.00    +0.250 C 
ATOM     26  O   LIG    1       -8.686   9.843   0.096  0.00  0.00    -0.310 OA
ENDBRANCH  19  26
BRANCH  21  27
ATOM     27  O   LIG    1      -11.975   6.408   0.093  0.00  0.00    -0.310 OA
ATOM     28  C   LIG    1      -12.951   7.451   0.103  0.00  0.00    +0.250 C 
ENDBRANCH  21  27
ENDBRANCH   1  23
TORSDOF 5
