REMARK  Name = ZINCqH0000008uVO.0
REMARK                            x       y       z     vdW  Elec       q    Type
REMARK                         _______ _______ _______ _____ _____    ______ ____
ROOT
ATOM      1  C   LIG    1        3.551  -0.894  -0.536  0.00  0.00    +0.520 C 
ATOM      2  N   LIG    1        3.676  -2.232  -0.645  0.00  0.00    -0.720 N 
ATOM      3  H   LIG    1        2.969  -2.812  -0.321  0.00  0.00    +0.400 HD
ATOM      4  O   LIG    1        4.434  -0.168  -0.941  0.00  0.00    -0.500 OA
ENDROOT
BRANCH   1   6
ATOM      5  C   LIG    1        2.246  -0.703   1.564  0.00  0.00    +0.060 C 
ATOM      6  C   LIG    1        2.315  -0.301   0.089  0.00  0.00    +0.170 C 
BRANCH   6   7
ATOM      7  O   LIG    1        2.366   1.123  -0.015  0.00  0.00    -0.270 OA
BRANCH   7   8
ATOM      8  C   LIG    1        1.179   1.786   0.001  0.00  0.00    +0.160 A 
ATOM      9  C   LIG    1       -0.001   1.092   0.227  0.00  0.00    -0.050 A 
ATOM     10  C   LIG    1       -1.207   1.766   0.236  0.00  0.00    +0.100 A 
ATOM     11  C   LIG    1       -1.238   3.134   0.030  0.00  0.00    -0.070 A 
ATOM     12  C   LIG    1       -0.063   3.829  -0.196  0.00  0.00    +0.110 A 
ATOM     13 CL   LIG    1       -2.755   3.979   0.048  0.00  0.00    -0.050 Cl
ATOM     14  C   LIG    1        1.145   3.157  -0.211  0.00  0.00    -0.110 A 
ATOM     15 BR   LIG    1        2.751   4.106  -0.520  0.00  0.00    -0.010 Br
ENDBRANCH   7   8
ENDBRANCH   6   7
ENDBRANCH   1   6
BRANCH   2  16
ATOM     16  C   LIG    1        4.877  -2.809  -1.253  0.00  0.00    +0.410 C 
BRANCH  16  17
ATOM     17  C   LIG    1        4.768  -4.312  -1.254  0.00  0.00    +0.160 A 
ATOM     18  N   LIG    1        4.251  -5.050  -2.198  0.00  0.00    -0.260 NA
ATOM     19  N   LIG    1        4.322  -6.291  -1.871  0.00  0.00    -0.290 NA
ATOM     20  C   LIG    1        4.887  -6.410  -0.700  0.00  0.00    +0.400 A 
ATOM     21  N   LIG    1        5.195  -5.154  -0.271  0.00  0.00    -0.420 N 
BRANCH  21  22
ATOM     22  C   LIG    1        5.820  -4.801   0.934  0.00  0.00    +0.100 A 
ATOM     23  C   LIG    1        6.912  -3.945   0.926  0.00  0.00    +0.020 A 
ATOM     24  C   LIG    1        7.523  -3.595   2.115  0.00  0.00    +0.040 A 
ATOM     25  C   LIG    1        7.053  -4.105   3.311  0.00  0.00    +0.030 A 
ATOM     26  C   LIG    1        5.968  -4.963   3.321  0.00  0.00    +0.040 A 
ATOM     27  C   LIG    1        5.351  -5.312   2.136  0.00  0.00    +0.020 A 
ENDBRANCH  21  22
ENDBRANCH  16  17
ENDBRANCH   2  16
TORSDOF 6
