REMARK  Name = ZINCvU00000008pb.0
REMARK                            x       y       z     vdW  Elec       q    Type
REMARK                         _______ _______ _______ _____ _____    ______ ____
ROOT
ATOM      1  N   LIG    1        5.743   4.078  -1.246  0.00  0.00    -0.660 N 
ATOM      2  H   LIG    1        5.234   4.792  -0.831  0.00  0.00    +0.410 HD
ATOM      3  C   LIG    1        5.128   3.198  -2.061  0.00  0.00    +0.570 C 
ATOM      4  O   LIG    1        5.745   2.253  -2.511  0.00  0.00    -0.500 OA
ENDROOT
BRANCH   3   5
ATOM      5  C   LIG    1        3.702   3.381  -2.406  0.00  0.00    -0.070 A 
ATOM      6  C   LIG    1        2.942   4.383  -1.822  0.00  0.00    +0.040 A 
ATOM      7  C   LIG    1        1.588   4.518  -2.176  0.00  0.00    +0.240 A 
ATOM      8  N   LIG    1        1.010   3.728  -3.060  0.00  0.00    -0.440 NA
ATOM      9  C   LIG    1        1.669   2.742  -3.673  0.00  0.00    +0.130 A 
ATOM     10  C   LIG    1        1.026   1.914  -4.611  0.00  0.00    +0.050 A 
ATOM     11  C   LIG    1        1.723   0.916  -5.220  0.00  0.00    +0.040 A 
ATOM     12  C   LIG    1        3.068   0.699  -4.931  0.00  0.00    +0.020 A 
ATOM     13  C   LIG    1        3.724   1.482  -4.027  0.00  0.00    +0.060 A 
ATOM     14  C   LIG    1        3.038   2.516  -3.383  0.00  0.00    -0.060 A 
BRANCH   7  15
ATOM     15  C   LIG    1        0.789   5.585  -1.544  0.00  0.00    +0.000 A 
ATOM     16  C   LIG    1       -0.525   5.847  -1.783  0.00  0.00    +0.020 A 
ATOM     17  C   LIG    1       -0.876   6.937  -0.965  0.00  0.00    -0.060 A 
ATOM     18  C   LIG    1        0.230   7.289  -0.279  0.00  0.00    +0.200 A 
ATOM     19  O   LIG    1        1.233   6.469  -0.629  0.00  0.00    -0.170 OA
ENDBRANCH   7  15
ENDBRANCH   3   5
BRANCH   1  24
ATOM     20  C   LIG    1        9.073   2.600  -0.691  0.00  0.00    -0.110 A 
ATOM     21  C   LIG    1        9.840   3.752  -0.511  0.00  0.00    +0.030 A 
ATOM     22  C   LIG    1        9.243   4.995  -0.575  0.00  0.00    +0.040 A 
ATOM     23  C   LIG    1        7.888   5.104  -0.824  0.00  0.00    +0.010 A 
ATOM     24  C   LIG    1        7.115   3.962  -1.000  0.00  0.00    +0.140 A 
ATOM     25  C   LIG    1        7.704   2.709  -0.937  0.00  0.00    +0.080 A 
BRANCH  20  27
ATOM     26  N   LIG    1       10.863   1.036  -1.280  0.00  0.00    -0.610 N 
ATOM     27  C   LIG    1        9.710   1.267  -0.622  0.00  0.00    +0.560 C 
ATOM     28  O   LIG    1        9.193   0.380   0.029  0.00  0.00    -0.530 OA
BRANCH  26  30
ATOM     29  C   LIG    1       12.690   2.647  -1.055  0.00  0.00    +0.010 C 
ATOM     30  C   LIG    1       11.557   2.138  -1.950  0.00  0.00    +0.260 C 
ENDBRANCH  26  30
BRANCH  26  31
ATOM     31  C   LIG    1       11.422  -0.318  -1.325  0.00  0.00    +0.280 C 
ATOM     32  C   LIG    1       10.874  -1.055  -2.549  0.00  0.00    +0.020 C 
ENDBRANCH  26  31
ENDBRANCH  20  27
ENDBRANCH   1  24
TORSDOF 6
