REMARK  Name = ZINCrg00000zqI1P.0
REMARK                            x       y       z     vdW  Elec       q    Type
REMARK                         _______ _______ _______ _____ _____    ______ ____
ROOT
ATOM      1  C   LIG    1       -1.278   0.318   1.922  0.00  0.00    +0.560 C 
ATOM      2  N   LIG    1       -0.852   1.257   1.054  0.00  0.00    -0.610 N 
ATOM      3  C   LIG    1       -0.120   0.875  -0.162  0.00  0.00    +0.270 C 
ATOM      4  C   LIG    1       -0.818   1.496  -1.376  0.00  0.00    +0.020 C 
ATOM      5  C   LIG    1       -0.947   3.007  -1.168  0.00  0.00    -0.010 C 
ATOM      6  C   LIG    1       -1.800   3.282   0.072  0.00  0.00    +0.020 C 
ATOM      7  C   LIG    1       -1.113   2.681   1.303  0.00  0.00    +0.270 C 
ATOM      8  O   LIG    1       -1.058  -0.855   1.703  0.00  0.00    -0.540 OA
ENDROOT
BRANCH   1  11
ATOM      9  C   LIG    1       -3.939   0.615   4.171  0.00  0.00    +0.190 C 
ATOM     10  C   LIG    1       -3.359   1.466   3.039  0.00  0.00    +0.090 C 
ATOM     11  C   LIG    1       -2.027   0.725   3.165  0.00  0.00    -0.200 C 
ATOM     12  C   LIG    1       -1.322   0.680   4.522  0.00  0.00    +0.130 C 
ATOM     13  C   LIG    1       -2.606  -0.126   4.297  0.00  0.00    -0.020 C 
BRANCH   9  15
ATOM     14  C   LIG    1       -6.293   0.170   4.240  0.00  0.00    +0.210 C 
ATOM     15  O   LIG    1       -5.013  -0.228   3.747  0.00  0.00    -0.370 OA
ENDBRANCH   9  15
ENDBRANCH   1  11
BRANCH   5  16
ATOM     16  C   LIG    1       -1.613   3.635  -2.394  0.00  0.00    +0.030 C 
BRANCH  16  17
ATOM     17  C   LIG    1       -0.690   3.489  -3.606  0.00  0.00    +0.240 C 
ATOM     18  C   LIG    1       -1.405   4.006  -4.856  0.00  0.00    +0.020 C 
BRANCH  17  19
ATOM     19  N   LIG    1        0.532   4.267  -3.385  0.00  0.00    -0.690 N 
ATOM     20  H   LIG    1        0.521   5.027  -2.783  0.00  0.00    +0.410 HD
ATOM     21  C   LIG    1        1.671   3.926  -4.020  0.00  0.00    +0.510 C 
ATOM     22  O   LIG    1        1.684   2.975  -4.774  0.00  0.00    -0.520 OA
BRANCH  21  23
ATOM     23  C   LIG    1        2.918   4.719  -3.795  0.00  0.00    +0.510 C 
ATOM     24  N   LIG    1        4.057   4.378  -4.430  0.00  0.00    -0.700 N 
ATOM     25  H   LIG    1        4.067   3.618  -5.033  0.00  0.00    +0.410 HD
ATOM     26  O   LIG    1        2.904   5.670  -3.041  0.00  0.00    -0.520 OA
BRANCH  24  27
ATOM     27  C   LIG    1        5.279   5.155  -4.210  0.00  0.00    +0.220 C 
ATOM     28  C   LIG    1        6.201   5.010  -5.421  0.00  0.00    +0.040 C 
ATOM     29  C   LIG    1        5.994   4.638  -2.960  0.00  0.00    +0.020 C 
ENDBRANCH  24  27
ENDBRANCH  21  23
ENDBRANCH  17  19
ENDBRANCH  16  17
ENDBRANCH   5  16
TORSDOF 7
