REMARK  Name = ZINCqH0000000scX.0
REMARK                            x       y       z     vdW  Elec       q    Type
REMARK                         _______ _______ _______ _____ _____    ______ ____
ROOT
ATOM      1  C   LIG    1       -0.004   1.134   0.004  0.00  0.00    +0.280 C 
ENDROOT
BRANCH   1   2
ATOM      2  C   LIG    1       -0.733   1.640  -1.214  0.00  0.00    +0.510 C 
ATOM      3  N   LIG    1       -0.278   1.338  -2.446  0.00  0.00    -0.720 N 
ATOM      4  H   LIG    1        0.519   0.795  -2.549  0.00  0.00    +0.400 HD
ATOM      5  O   LIG    1       -1.730   2.320  -1.085  0.00  0.00    -0.520 OA
BRANCH   3   6
ATOM      6  C   LIG    1       -0.986   1.830  -3.630  0.00  0.00    +0.290 C 
BRANCH   6   7
ATOM      7  C   LIG    1       -0.706   0.920  -4.798  0.00  0.00    -0.090 A 
ATOM      8  C   LIG    1        0.566   0.413  -4.989  0.00  0.00    +0.000 A 
ATOM      9  C   LIG    1        0.822  -0.425  -6.058  0.00  0.00    +0.010 A 
ATOM     10  C   LIG    1       -0.191  -0.750  -6.940  0.00  0.00    +0.000 A 
ATOM     11  C   LIG    1       -1.462  -0.238  -6.752  0.00  0.00    +0.020 A 
ATOM     12  C   LIG    1       -1.719   0.597  -5.681  0.00  0.00    +0.010 A 
ENDBRANCH   6   7
BRANCH   6  13
ATOM     13  C   LIG    1       -0.507   3.245  -3.959  0.00  0.00    -0.030 C 
ATOM     14  C   LIG    1       -0.792   4.170  -2.774  0.00  0.00    +0.020 C 
ATOM     15  C   LIG    1       -1.247   3.759  -5.196  0.00  0.00    +0.030 C 
ENDBRANCH   6  13
ENDBRANCH   3   6
ENDBRANCH   1   2
BRANCH   1  16
ATOM     16  N   LIG    1       -0.693   1.595   1.212  0.00  0.00    -0.730 N 
ATOM     17  H   LIG    1       -1.491   2.141   1.137  0.00  0.00    +0.410 HD
BRANCH  16  20
ATOM     18  C   LIG    1       -0.358   1.342   4.868  0.00  0.00    +0.170 A 
ATOM     19  C   LIG    1       -0.847   1.691   3.618  0.00  0.00    -0.030 A 
ATOM     20  C   LIG    1       -0.199   1.249   2.474  0.00  0.00    +0.230 A 
ATOM     21  C   LIG    1        0.945   0.468   2.582  0.00  0.00    -0.060 A 
ATOM     22  C   LIG    1        1.435   0.126   3.828  0.00  0.00    +0.060 A 
ATOM     23  C   LIG    1        0.788   0.559   4.971  0.00  0.00    +0.000 A 
ATOM     24  F   LIG    1        1.269   0.223   6.188  0.00  0.00    -0.140 F 
BRANCH  18  27
ATOM     25  C   LIG    1       -3.001   2.679   7.192  0.00  0.00    +0.110 C 
ATOM     26  C   LIG    1       -2.324   2.089   5.982  0.00  0.00    +0.510 C 
ATOM     27  N   LIG    1       -1.013   1.781   6.025  0.00  0.00    -0.670 N 
ATOM     28  H   LIG    1       -0.523   1.863   6.858  0.00  0.00    +0.420 HD
ATOM     29  O   LIG    1       -2.960   1.891   4.968  0.00  0.00    -0.520 OA
ENDBRANCH  18  27
ENDBRANCH  16  20
ENDBRANCH   1  16
TORSDOF 7
