REMARK  Name = ZINCwJ0000000q4n.0
REMARK                            x       y       z     vdW  Elec       q    Type
REMARK                         _______ _______ _______ _____ _____    ______ ____
ROOT
ATOM      1  C   LIG    1        2.904  -4.732   0.531  0.00  0.00    +0.290 C 
ENDROOT
BRANCH   1   2
ATOM      2  C   LIG    1        3.606  -3.838  -0.459  0.00  0.00    +0.500 C 
ATOM      3  N   LIG    1        3.940  -2.580  -0.111  0.00  0.00    -0.590 N 
ATOM      4  C   LIG    1        3.635  -2.050   1.226  0.00  0.00    +0.330 C 
ATOM      5  C   LIG    1        3.103  -0.650   1.091  0.00  0.00    -0.060 C 
ATOM      6  C   LIG    1        3.147   0.036  -0.027  0.00  0.00    -0.000 C 
ATOM      7  C   LIG    1        3.705  -0.485  -1.318  0.00  0.00    +0.090 C 
ATOM      8  C   LIG    1        4.627  -1.681  -1.055  0.00  0.00    +0.300 C 
ATOM      9  O   LIG    1        3.869  -4.251  -1.568  0.00  0.00    -0.530 OA
BRANCH   6  10
ATOM     10  C   LIG    1        2.604   1.408  -0.015  0.00  0.00    -0.180 A 
ATOM     11  C   LIG    1        3.319   2.563  -0.016  0.00  0.00    +0.250 A 
ATOM     12  N   LIG    1        2.469   3.630  -0.002  0.00  0.00    -0.590 N 
ATOM     13  H   LIG    1        2.746   4.560   0.000  0.00  0.00    +0.420 HD
ATOM     14  C   LIG    1        1.161   3.197   0.008  0.00  0.00    +0.090 A 
ATOM     15  C   LIG    1       -0.062   3.861   0.024  0.00  0.00    +0.000 A 
ATOM     16  C   LIG    1       -1.236   3.139   0.031  0.00  0.00    +0.030 A 
ATOM     17  C   LIG    1       -1.213   1.752   0.017  0.00  0.00    -0.020 A 
ATOM     18  C   LIG    1       -0.013   1.076   0.008  0.00  0.00    +0.030 A 
ATOM     19  C   LIG    1        1.183   1.792   0.000  0.00  0.00    -0.090 A 
ENDBRANCH   6  10
ENDBRANCH   1   2
BRANCH   1  23
ATOM     20  C   LIG    1        2.386  -8.315   0.634  0.00  0.00    -0.010 C 
ATOM     21  C   LIG    1        3.903  -8.057   0.439  0.00  0.00    +0.070 C 
ATOM     22  C   LIG    1        3.932  -6.726  -0.341  0.00  0.00    +0.270 C 
ATOM     23  N   LIG    1        2.651  -6.042  -0.085  0.00  0.00    -0.380 N 
ATOM     24  H   LIG    1        2.153  -5.918  -0.954  0.00  0.00    +0.440 HD
ATOM     25  C   LIG    1        1.847  -6.876   0.833  0.00  0.00    +0.290 C 
BRANCH  20  26
ATOM     26  C   LIG    1        2.130  -9.173   1.875  0.00  0.00    +0.330 C 
BRANCH  26  27
ATOM     27  N   LIG    1        2.679 -10.515   1.662  0.00  0.00    -0.710 NA
ATOM     28  H   LIG    1        3.120 -10.731   0.826  0.00  0.00    +0.420 HD
BRANCH  27  34
ATOM     29  C   LIG    1        1.150 -11.824   6.149  0.00  0.00    +0.150 C 
ATOM     30  C   LIG    1        1.829 -12.128   4.839  0.00  0.00    +0.080 C 
ATOM     31  C   LIG    1        2.364 -13.385   4.591  0.00  0.00    +0.020 C 
ATOM     32  C   LIG    1        2.980 -13.631   3.380  0.00  0.00    +0.370 C 
ATOM     33  N   LIG    1        3.065 -12.688   2.460  0.00  0.00    -0.500 NA
ATOM     34  C   LIG    1        2.567 -11.477   2.659  0.00  0.00    +0.440 C 
ATOM     35  H   LIG    1        3.503 -12.887   1.618  0.00  0.00    +0.440 HD
ATOM     36  C   LIG    1        1.938 -11.159   3.857  0.00  0.00    -0.030 C 
ENDBRANCH  27  34
ENDBRANCH  26  27
ENDBRANCH  20  26
ENDBRANCH   1  23
TORSDOF 6
