REMARK  Name = ZINCwJ0000000q4n.1
REMARK                            x       y       z     vdW  Elec       q    Type
REMARK                         _______ _______ _______ _____ _____    ______ ____
ROOT
ATOM      1  C   LIG    1        4.716   2.956   8.252  0.00  0.00    +0.290 C 
ENDROOT
BRANCH   1   2
ATOM      2  C   LIG    1        5.394   4.069   9.009  0.00  0.00    +0.500 C 
ATOM      3  N   LIG    1        6.087   3.796  10.133  0.00  0.00    -0.590 N 
ATOM      4  C   LIG    1        6.200   2.423  10.646  0.00  0.00    +0.330 C 
ATOM      5  C   LIG    1        6.005   2.436  12.136  0.00  0.00    -0.060 C 
ATOM      6  C   LIG    1        5.981   3.535  12.853  0.00  0.00    -0.000 C 
ATOM      7  C   LIG    1        6.127   4.917  12.288  0.00  0.00    +0.080 C 
ATOM      8  C   LIG    1        6.765   4.860  10.892  0.00  0.00    +0.310 C 
ATOM      9  O   LIG    1        5.316   5.211   8.607  0.00  0.00    -0.530 OA
BRANCH   6  10
ATOM     10  C   LIG    1        5.800   3.403  14.312  0.00  0.00    -0.180 A 
ATOM     11  C   LIG    1        6.757   3.546  15.264  0.00  0.00    +0.250 A 
ATOM     12  N   LIG    1        6.210   3.354  16.499  0.00  0.00    -0.590 N 
ATOM     13  H   LIG    1        6.697   3.408  17.337  0.00  0.00    +0.420 HD
ATOM     14  C   LIG    1        4.866   3.067  16.386  0.00  0.00    +0.090 A 
ATOM     15  C   LIG    1        3.869   2.790  17.315  0.00  0.00    +0.010 A 
ATOM     16  C   LIG    1        2.584   2.535  16.890  0.00  0.00    +0.030 A 
ATOM     17  C   LIG    1        2.270   2.552  15.538  0.00  0.00    -0.020 A 
ATOM     18  C   LIG    1        3.242   2.825  14.602  0.00  0.00    +0.030 A 
ATOM     19  C   LIG    1        4.547   3.084  15.017  0.00  0.00    -0.090 A 
ENDBRANCH   6  10
ENDBRANCH   1   2
BRANCH   1  23
ATOM     20  C   LIG    1        1.957   2.628   6.173  0.00  0.00    +0.000 C 
ATOM     21  C   LIG    1        1.804   4.145   6.460  0.00  0.00    +0.090 C 
ATOM     22  C   LIG    1        2.920   4.379   7.508  0.00  0.00    +0.270 C 
ATOM     23  N   LIG    1        4.034   3.509   7.075  0.00  0.00    -0.380 N 
ATOM     24  H   LIG    1        4.688   4.044   6.523  0.00  0.00    +0.440 HD
ATOM     25  C   LIG    1        3.482   2.409   6.262  0.00  0.00    +0.290 C 
BRANCH  20  26
ATOM     26  C   LIG    1        1.444   2.288   4.772  0.00  0.00    +0.320 C 
BRANCH  26  27
ATOM     27  N   LIG    1       -0.004   2.503   4.717  0.00  0.00    -0.710 NA
ATOM     28  H   LIG    1       -0.478   2.816   5.504  0.00  0.00    +0.420 HD
BRANCH  27  34
ATOM     29  C   LIG    1       -0.013   1.086   0.008  0.00  0.00    +0.150 C 
ATOM     30  C   LIG    1       -0.718   1.572   1.248  0.00  0.00    +0.080 C 
ATOM     31  C   LIG    1       -2.088   1.795   1.243  0.00  0.00    +0.020 C 
ATOM     32  C   LIG    1       -2.705   2.237   2.397  0.00  0.00    +0.370 C 
ATOM     33  N   LIG    1       -2.008   2.456   3.496  0.00  0.00    -0.500 NA
ATOM     34  C   LIG    1       -0.700   2.259   3.539  0.00  0.00    +0.440 C 
ATOM     35  H   LIG    1       -2.466   2.770   4.292  0.00  0.00    +0.440 HD
ATOM     36  C   LIG    1       -0.014   1.811   2.414  0.00  0.00    -0.030 C 
ENDBRANCH  27  34
ENDBRANCH  26  27
ENDBRANCH  20  26
ENDBRANCH   1  23
TORSDOF 6
