REMARK  Name = ZINCkj000005las1.0
REMARK                            x       y       z     vdW  Elec       q    Type
REMARK                         _______ _______ _______ _____ _____    ______ ____
ROOT
ATOM      1  C   LIG    1        3.013  -1.930   2.353  0.00  0.00    +0.300 C 
ENDROOT
BRANCH   1   2
ATOM      2  N   LIG    1        2.888  -0.468   2.421  0.00  0.00    -0.500 N 
ATOM      3  H   LIG    1        2.371  -0.213   3.249  0.00  0.00    +0.430 HD
ATOM      4  H   LIG    1        3.807  -0.053   2.457  0.00  0.00    +0.430 HD
BRANCH   2   9
ATOM      5  C   LIG    1        1.417   2.055  -0.000  0.00  0.00    +0.160 C 
ATOM      6  C   LIG    1       -0.019   1.526   0.010  0.00  0.00    +0.070 C 
ATOM      7  C   LIG    1        0.002  -0.004   0.002  0.00  0.00    +0.050 C 
ATOM      8  C   LIG    1        0.742  -0.511   1.242  0.00  0.00    +0.040 C 
ATOM      9  C   LIG    1        2.178   0.019   1.231  0.00  0.00    +0.150 C 
ATOM     10  C   LIG    1        2.157   1.548   1.239  0.00  0.00    +0.080 C 
BRANCH   5  12
ATOM     11  N   LIG    1        2.637   1.214  -2.146  0.00  0.00    -0.400 NA
ATOM     12  C   LIG    1        2.106   1.581  -1.212  0.00  0.00    +0.180 C 
ENDBRANCH   5  12
ENDBRANCH   2   9
ENDBRANCH   1   2
BRANCH   1  13
ATOM     13  C   LIG    1        3.753  -2.437   3.592  0.00  0.00    -0.370 C 
BRANCH  13  14
ATOM     14  S   LIG    1        3.907  -4.242   3.509  0.00  0.00    +2.620 S 
ATOM     15  O   LIG    1        4.790  -4.619   2.462  0.00  0.00    -0.930 OA
ATOM     16  O   LIG    1        2.634  -4.859   3.651  0.00  0.00    -0.930 OA
BRANCH  14  17
ATOM     17  N   LIG    1        4.716  -4.653   4.894  0.00  0.00    -1.110 NA
ATOM     18  H   LIG    1        5.603  -5.042   4.840  0.00  0.00    +0.430 HD
BRANCH  17  19
ATOM     19  C   LIG    1        4.093  -4.429   6.200  0.00  0.00    +0.280 C 
BRANCH  19  20
ATOM     20  C   LIG    1        4.854  -5.214   7.270  0.00  0.00    -0.020 C 
ATOM     21  C   LIG    1        4.356  -6.658   7.446  0.00  0.00    +0.020 C 
ATOM     22  C   LIG    1        4.542  -6.455   8.959  0.00  0.00    +0.010 C 
ATOM     23  C   LIG    1        4.354  -4.951   8.700  0.00  0.00    +0.020 C 
ENDBRANCH  19  20
ENDBRANCH  17  19
ENDBRANCH  14  17
ENDBRANCH  13  14
ENDBRANCH   1  13
TORSDOF 8
