REMARK  Name = ZINCqH0000002Z1N.0
REMARK                            x       y       z     vdW  Elec       q    Type
REMARK                         _______ _______ _______ _____ _____    ______ ____
ROOT
ATOM      1  N   LIG    1        0.004  -0.023  -0.011  0.00  0.00    -0.590 N 
ATOM      2  C   LIG    1       -0.121  -0.531  -1.253  0.00  0.00    +0.610 C 
ATOM      3  O   LIG    1       -0.142   0.214  -2.215  0.00  0.00    -0.500 OA
ENDROOT
BRANCH   2   4
ATOM      4  C   LIG    1       -0.233  -1.984  -1.446  0.00  0.00    -0.030 A 
ATOM      5  C   LIG    1       -0.457  -2.599  -2.636  0.00  0.00    -0.070 A 
ATOM      6  C   LIG    1       -0.490  -4.033  -2.350  0.00  0.00    -0.110 A 
ATOM      7  C   LIG    1       -0.678  -5.177  -3.130  0.00  0.00    +0.070 A 
ATOM      8  C   LIG    1       -0.652  -6.410  -2.542  0.00  0.00    +0.030 A 
ATOM      9  C   LIG    1       -0.441  -6.534  -1.176  0.00  0.00    +0.030 A 
ATOM     10  C   LIG    1       -0.254  -5.417  -0.387  0.00  0.00    +0.110 A 
ATOM     11  F   LIG    1       -0.049  -5.553   0.941  0.00  0.00    -0.130 F 
ATOM     12  C   LIG    1       -0.276  -4.151  -0.965  0.00  0.00    +0.030 A 
ATOM     13  C   LIG    1       -0.635  -1.938  -3.978  0.00  0.00    +0.150 C 
ATOM     14  O   LIG    1       -0.123  -2.907  -0.469  0.00  0.00    -0.180 OA
ENDBRANCH   2   4
BRANCH   1  16
ATOM     15  C   LIG    1        1.428   1.950   0.229  0.00  0.00    +0.020 C 
ATOM     16  C   LIG    1       -0.009   1.427   0.193  0.00  0.00    +0.280 C 
ENDBRANCH   1  16
BRANCH   1  17
ATOM     17  C   LIG    1        0.152  -0.923   1.136  0.00  0.00    +0.330 C 
BRANCH  17  18
ATOM     18  C   LIG    1       -1.209  -1.372   1.602  0.00  0.00    +0.500 C 
ATOM     19  N   LIG    1       -1.319  -2.210   2.651  0.00  0.00    -0.720 N 
ATOM     20  H   LIG    1       -0.523  -2.524   3.107  0.00  0.00    +0.400 HD
ATOM     21  O   LIG    1       -2.205  -0.980   1.032  0.00  0.00    -0.530 OA
BRANCH  19  22
ATOM     22  C   LIG    1       -2.643  -2.647   3.104  0.00  0.00    +0.370 C 
BRANCH  22  23
ATOM     23  C   LIG    1       -2.490  -3.572   4.284  0.00  0.00    -0.210 A 
ATOM     24  C   LIG    1       -2.462  -3.190   5.562  0.00  0.00    +0.030 A 
ATOM     25  C   LIG    1       -2.313  -4.220   6.475  0.00  0.00    +0.000 A 
ATOM     26  C   LIG    1       -2.220  -5.438   5.938  0.00  0.00    -0.030 A 
ATOM     27  S   LIG    1       -2.328  -5.320   4.187  0.00  0.00    +0.120 S 
ENDBRANCH  22  23
ENDBRANCH  19  22
ENDBRANCH  17  18
ENDBRANCH   1  17
TORSDOF 6
