REMARK  Name = ZINCvU0000000Aqa.0
REMARK                            x       y       z     vdW  Elec       q    Type
REMARK                         _______ _______ _______ _____ _____    ______ ____
ROOT
ATOM      1  C   LIG    1        2.803   2.229   2.011  0.00  0.00    +0.560 C 
ATOM      2  N   LIG    1        2.168   1.450   1.114  0.00  0.00    -0.610 N 
ATOM      3  C   LIG    1        1.440   2.048  -0.014  0.00  0.00    +0.280 C 
ATOM      4  C   LIG    1        0.007   1.506  -0.018  0.00  0.00    +0.040 C 
ATOM      5  C   LIG    1        0.044  -0.024  -0.035  0.00  0.00    +0.090 C 
ATOM      6  C   LIG    1        0.749  -0.532   1.226  0.00  0.00    +0.040 C 
ATOM      7  C   LIG    1        2.190  -0.013   1.244  0.00  0.00    +0.280 C 
ATOM      8  O   LIG    1        3.314   1.731   2.996  0.00  0.00    -0.510 OA
ENDROOT
BRANCH   5   9
ATOM      9  C   LIG    1       -1.363  -0.560  -0.073  0.00  0.00    +0.100 A 
ATOM     10  N   LIG    1       -2.244  -0.336   0.827  0.00  0.00    -0.460 NA
ATOM     11  C   LIG    1       -3.466  -0.877   0.661  0.00  0.00    +0.080 A 
ATOM     12  C   LIG    1       -4.608  -0.791   1.481  0.00  0.00    +0.070 A 
ATOM     13  C   LIG    1       -5.760  -1.426   1.129  0.00  0.00    +0.030 A 
ATOM     14  C   LIG    1       -5.833  -2.168  -0.041  0.00  0.00    +0.040 A 
ATOM     15  C   LIG    1       -4.733  -2.270  -0.863  0.00  0.00    +0.060 A 
ATOM     16  C   LIG    1       -3.546  -1.627  -0.519  0.00  0.00    -0.180 A 
ATOM     17  S   LIG    1       -1.981  -1.547  -1.321  0.00  0.00    +0.100 S 
ENDBRANCH   5   9
BRANCH   1  23
ATOM     18  C   LIG    1        2.437   4.570   2.797  0.00  0.00    -0.050 A 
ATOM     19  C   LIG    1        2.519   5.941   2.587  0.00  0.00    -0.010 A 
ATOM     20  C   LIG    1        3.024   6.429   1.399  0.00  0.00    +0.060 A 
ATOM     21  C   LIG    1        3.457   5.559   0.411  0.00  0.00    +0.000 A 
ATOM     22  C   LIG    1        3.388   4.197   0.603  0.00  0.00    +0.060 A 
ATOM     23  C   LIG    1        2.880   3.686   1.800  0.00  0.00    -0.110 A 
BRANCH  18  24
ATOM     24  S   LIG    1        1.786   3.943   4.310  0.00  0.00    -0.020 S 
BRANCH  24  25
ATOM     25  C   LIG    1        1.369   5.450   5.231  0.00  0.00    +0.230 C 
BRANCH  25  30
ATOM     26  C   LIG    1        0.795   4.268  10.063  0.00  0.00    +0.200 C 
ATOM     27  C   LIG    1        0.534   4.575   8.611  0.00  0.00    +0.170 A 
ATOM     28  N   LIG    1       -0.625   4.583   8.023  0.00  0.00    -0.380 NA
ATOM     29  O   LIG    1       -0.499   4.868   6.851  0.00  0.00    +0.090 OA
ATOM     30  C   LIG    1        0.791   5.076   6.571  0.00  0.00    +0.190 A 
ATOM     31  N   LIG    1        1.457   4.887   7.684  0.00  0.00    -0.460 NA
ENDBRANCH  25  30
ENDBRANCH  24  25
ENDBRANCH  18  24
ENDBRANCH   1  23
TORSDOF 5
