REMARK  Name = ZINCpk00000eaS8h.1
REMARK                            x       y       z     vdW  Elec       q    Type
REMARK                         _______ _______ _______ _____ _____    ______ ____
ROOT
ATOM      1  C   LIG    1        0.191  -0.804   8.564  0.00  0.00    +0.580 C 
ATOM      2  N   LIG    1       -0.270  -0.339   7.386  0.00  0.00    -0.610 N 
ATOM      3  C   LIG    1       -1.139   0.846   7.330  0.00  0.00    +0.290 C 
ATOM      4  C   LIG    1       -2.379   0.501   6.498  0.00  0.00    +0.170 C 
ATOM      5  N   LIG    1       -1.958  -0.022   5.191  0.00  0.00    -0.530 NA
ATOM      6  C   LIG    1       -1.204  -1.274   5.337  0.00  0.00    +0.170 C 
ATOM      7  C   LIG    1        0.085  -1.002   6.122  0.00  0.00    +0.300 C 
ATOM      8  O   LIG    1        0.825  -1.841   8.602  0.00  0.00    -0.540 OA
ENDROOT
BRANCH   1  13
ATOM      9  C   LIG    1       -0.729  -1.660  14.107  0.00  0.00    +0.180 C 
ATOM     10  C   LIG    1       -0.708  -0.281  13.499  0.00  0.00    +0.160 A 
ATOM     11  C   LIG    1       -0.492   0.019  12.163  0.00  0.00    -0.280 A 
ATOM     12  C   LIG    1       -0.242  -0.737  11.004  0.00  0.00    +0.240 A 
ATOM     13  C   LIG    1       -0.074  -0.054   9.807  0.00  0.00    -0.250 A 
ATOM     14  C   LIG    1       -0.150   1.351   9.777  0.00  0.00    +0.390 A 
ATOM     15  N   LIG    1       -0.388   2.061  10.846  0.00  0.00    -0.470 NA
ATOM     16  C   LIG    1       -0.562   1.486  12.048  0.00  0.00    +0.280 A 
ATOM     17  N   LIG    1       -0.804   1.946  13.260  0.00  0.00    -0.290 NA
ATOM     18  N   LIG    1       -0.893   0.871  14.151  0.00  0.00    -0.410 N 
ATOM     19  H   LIG    1       -1.065   0.950  15.102  0.00  0.00    +0.450 HD
ENDBRANCH   1  13
BRANCH   5  20
ATOM     20  C   LIG    1       -3.112  -0.204   4.300  0.00  0.00    +0.150 C 
BRANCH  20  21
ATOM     21  C   LIG    1       -2.619  -0.508   2.884  0.00  0.00    +0.220 C 
BRANCH  21  22
ATOM     22  C   LIG    1       -3.821  -0.697   1.956  0.00  0.00    -0.100 C 
ATOM     23  C   LIG    1       -4.676  -1.861   2.459  0.00  0.00    +0.030 C 
ATOM     24  C   LIG    1       -4.659   0.583   1.940  0.00  0.00    +0.030 C 
ATOM     25  C   LIG    1       -3.328  -1.001   0.539  0.00  0.00    +0.020 C 
ENDBRANCH  21  22
BRANCH  21  26
ATOM     26  O   LIG    1       -1.820   0.579   2.413  0.00  0.00    -0.540 OA
ATOM     27  H   LIG    1       -2.288   1.425   2.377  0.00  0.00    +0.370 HD
ENDBRANCH  21  26
ENDBRANCH  20  21
ENDBRANCH   5  20
TORSDOF 5
