REMARK  Name = ZINCnE000001D7c4.1
REMARK                            x       y       z     vdW  Elec       q    Type
REMARK                         _______ _______ _______ _____ _____    ______ ____
ROOT
ATOM      1  N   LIG    1        3.085   2.302  -3.438  0.00  0.00    -0.620 NA
ATOM      2  C   LIG    1        2.995   2.117  -2.106  0.00  0.00    +0.510 C 
ATOM      3  O   LIG    1        3.998   2.142  -1.419  0.00  0.00    -0.600 OA
ENDROOT
BRANCH   1   7
ATOM      4  C   LIG    1        5.857   2.892  -5.492  0.00  0.00    +0.010 A 
ATOM      5  C   LIG    1        6.459   2.803  -4.296  0.00  0.00    +0.020 A 
ATOM      6  O   LIG    1        5.496   2.572  -3.379  0.00  0.00    -0.230 OA
ATOM      7  C   LIG    1        4.320   2.521  -4.024  0.00  0.00    +0.450 A 
ATOM      8  N   LIG    1        4.537   2.709  -5.302  0.00  0.00    -0.540 NA
BRANCH   4  10
ATOM      9  C   LIG    1        7.257   1.872  -7.267  0.00  0.00    +0.030 C 
ATOM     10  C   LIG    1        6.538   3.144  -6.812  0.00  0.00    +0.020 C 
ATOM     11  C   LIG    1        7.556   4.276  -6.654  0.00  0.00    +0.020 C 
ATOM     12  C   LIG    1        5.493   3.540  -7.857  0.00  0.00    +0.030 C 
ENDBRANCH   4  10
ENDBRANCH   1   7
BRANCH   2  13
ATOM     13  C   LIG    1        1.679   1.883  -1.481  0.00  0.00    +0.100 C 
ATOM     14  N   LIG    1        0.547   1.834  -2.099  0.00  0.00    -0.240 NA
ATOM     15  O   LIG    1       -0.544   1.602  -1.230  0.00  0.00    -0.210 OA
ATOM     16  C   LIG    1       -0.013   1.086   0.008  0.00  0.00    +0.170 C 
ATOM     17  C   LIG    1        1.424   1.659  -0.003  0.00  0.00    +0.080 C 
BRANCH  16  18
ATOM     18  C   LIG    1       -0.792   1.605   1.188  0.00  0.00    -0.080 A 
ATOM     19  C   LIG    1       -1.382   2.854   1.132  0.00  0.00    +0.040 A 
ATOM     20  C   LIG    1       -2.101   3.329   2.213  0.00  0.00    +0.000 A 
ATOM     21  C   LIG    1       -2.222   2.559   3.354  0.00  0.00    +0.000 A 
ATOM     22  C   LIG    1       -1.627   1.312   3.413  0.00  0.00    +0.000 A 
ATOM     23  C   LIG    1       -0.912   0.836   2.330  0.00  0.00    +0.010 A 
ENDBRANCH  16  18
ENDBRANCH   2  13
TORSDOF 4
