REMARK  Name = ZINCqH00000037Qf.0
REMARK                            x       y       z     vdW  Elec       q    Type
REMARK                         _______ _______ _______ _____ _____    ______ ____
ROOT
ATOM      1  C   LIG    1        3.547  -0.908  -0.037  0.00  0.00    +0.340 C 
ENDROOT
BRANCH   1   2
ATOM      2  N   LIG    1        2.340  -0.078  -0.021  0.00  0.00    -0.530 N 
ATOM      3  C   LIG    1        1.117  -0.670  -0.012  0.00  0.00    +0.610 A 
ATOM      4  N   LIG    1        0.002  -0.004   0.002  0.00  0.00    -0.510 NA
ATOM      5  C   LIG    1       -0.016   1.353   0.009  0.00  0.00    +0.170 A 
ATOM      6  C   LIG    1       -1.216   2.069   0.031  0.00  0.00    -0.020 A 
ATOM      7  C   LIG    1       -1.188   3.447   0.033  0.00  0.00    +0.100 A 
ATOM      8  C   LIG    1        0.020   4.133   0.025  0.00  0.00    -0.050 A 
ATOM      9  C   LIG    1        1.217   3.447   0.009  0.00  0.00    +0.130 A 
ATOM     10 CL   LIG    1        0.023   5.869   0.035  0.00  0.00    -0.040 Cl
ATOM     11 CL   LIG    1       -2.734   1.228   0.047  0.00  0.00    -0.020 Cl
ATOM     12  C   LIG    1        1.209   2.054   0.002  0.00  0.00    -0.170 A 
ATOM     13  C   LIG    1        2.454   1.270  -0.015  0.00  0.00    +0.560 A 
ATOM     14  O   LIG    1        3.543   1.813  -0.023  0.00  0.00    -0.490 OA
ENDBRANCH   1   2
BRANCH   1  16
ATOM     15  N   LIG    1        5.037  -1.935  -1.724  0.00  0.00    -0.600 N 
ATOM     16  C   LIG    1        3.947  -1.185  -1.463  0.00  0.00    +0.500 C 
ATOM     17  O   LIG    1        3.289  -0.734  -2.377  0.00  0.00    -0.520 OA
BRANCH  15  19
ATOM     18  C   LIG    1        5.292  -3.858  -0.235  0.00  0.00    +0.020 C 
ATOM     19  C   LIG    1        5.832  -2.480  -0.621  0.00  0.00    +0.270 C 
ENDBRANCH  15  19
BRANCH  15  20
ATOM     20  C   LIG    1        5.426  -2.204  -3.110  0.00  0.00    +0.340 C 
BRANCH  20  21
ATOM     21  C   LIG    1        6.364  -1.126  -3.588  0.00  0.00    -0.110 A 
ATOM     22  C   LIG    1        5.861   0.007  -4.199  0.00  0.00    +0.040 A 
ATOM     23  C   LIG    1        6.721   0.999  -4.632  0.00  0.00    +0.000 A 
ATOM     24  C   LIG    1        8.085   0.852  -4.464  0.00  0.00    +0.010 A 
ATOM     25  C   LIG    1        8.589  -0.284  -3.858  0.00  0.00    +0.000 A 
ATOM     26  C   LIG    1        7.728  -1.273  -3.420  0.00  0.00    +0.010 A 
ENDBRANCH  20  21
ENDBRANCH  15  20
ENDBRANCH   1  16
TORSDOF 5
