REMARK  Name = ZINCqH0000036giV.0
REMARK                            x       y       z     vdW  Elec       q    Type
REMARK                         _______ _______ _______ _____ _____    ______ ____
ROOT
ATOM      1  C   LIG    1       -0.729   1.579   1.267  0.00  0.00    +0.210 C 
ATOM      2  C   LIG    1       -0.013   1.086   0.008  0.00  0.00    +0.010 C 
ENDROOT
BRANCH   1   3
ATOM      3  C   LIG    1       -2.143   1.058   1.278  0.00  0.00    -0.030 A 
ATOM      4  C   LIG    1       -2.396  -0.241   1.677  0.00  0.00    +0.000 A 
ATOM      5  C   LIG    1       -3.693  -0.722   1.694  0.00  0.00    +0.040 A 
ATOM      6  C   LIG    1       -4.738   0.090   1.300  0.00  0.00    -0.030 A 
ATOM      7  C   LIG    1       -4.486   1.394   0.893  0.00  0.00    +0.210 A 
ATOM      8  C   LIG    1       -3.183   1.876   0.882  0.00  0.00    -0.040 A 
BRANCH   7   9
ATOM      9  N   LIG    1       -5.540   2.219   0.494  0.00  0.00    -0.930 N 
ATOM     10  C   LIG    1       -6.837   1.778  -0.040  0.00  0.00    +0.260 C 
ATOM     11  C   LIG    1       -7.409   2.845  -0.993  0.00  0.00    +0.100 C 
ATOM     12  C   LIG    1       -7.196   4.189  -0.237  0.00  0.00    -0.300 C 
ATOM     13  S   LIG    1       -5.562   3.889   0.544  0.00  0.00    +2.560 S 
ATOM     14  O   LIG    1       -4.502   4.299  -0.309  0.00  0.00    -0.940 OA
ATOM     15  O   LIG    1       -5.582   4.219   1.926  0.00  0.00    -0.940 OA
ENDBRANCH   7   9
ENDBRANCH   1   3
BRANCH   1  16
ATOM     16  N   LIG    1       -0.018   1.093   2.457  0.00  0.00    -0.670 NA
ATOM     17  H   LIG    1        0.310   0.148   2.321  0.00  0.00    +0.340 HD
BRANCH  16  18
ATOM     18  C   LIG    1        1.090   1.990   2.812  0.00  0.00    +0.240 C 
BRANCH  18  25
ATOM     19  C   LIG    1        2.857   0.579   3.897  0.00  0.00    +0.140 A 
ATOM     20  C   LIG    1        3.503   0.093   5.024  0.00  0.00    -0.080 A 
ATOM     21  C   LIG    1        3.086   0.485   6.281  0.00  0.00    +0.060 A 
ATOM     22  C   LIG    1        2.027   1.363   6.417  0.00  0.00    -0.010 A 
ATOM     23  C   LIG    1        1.383   1.853   5.295  0.00  0.00    +0.020 A 
ATOM     24 CL   LIG    1        0.057   2.960   5.468  0.00  0.00    -0.050 Cl
ATOM     25  C   LIG    1        1.793   1.459   4.035  0.00  0.00    -0.110 A 
BRANCH  19  27
ATOM     26  C   LIG    1        4.366  -0.715   2.593  0.00  0.00    +0.250 C 
ATOM     27  O   LIG    1        3.265   0.193   2.659  0.00  0.00    -0.310 OA
ENDBRANCH  19  27
ENDBRANCH  18  25
ENDBRANCH  16  18
ENDBRANCH   1  16
TORSDOF 6
