REMARK  Name = ZINCrD000000CKYJ.0
REMARK                            x       y       z     vdW  Elec       q    Type
REMARK                         _______ _______ _______ _____ _____    ______ ____
ROOT
ATOM      1  C   LIG    1       -0.536   0.348  -3.246  0.00  0.00    +0.200 C 
ENDROOT
BRANCH   1   2
ATOM      2  C   LIG    1       -0.096   0.461  -4.683  0.00  0.00    -0.120 A 
ATOM      3  C   LIG    1       -0.894   1.118  -5.600  0.00  0.00    +0.010 A 
ATOM      4  C   LIG    1       -0.488   1.225  -6.918  0.00  0.00    +0.010 A 
ATOM      5  C   LIG    1        0.711   0.667  -7.319  0.00  0.00    +0.000 A 
ATOM      6  C   LIG    1        1.506   0.004  -6.403  0.00  0.00    +0.000 A 
ATOM      7  C   LIG    1        1.102  -0.099  -5.085  0.00  0.00    +0.010 A 
ENDBRANCH   1   2
BRANCH   1   8
ATOM      8  N   LIG    1       -1.981   0.090  -3.195  0.00  0.00    -0.660 NA
ATOM      9  H   LIG    1       -2.469   0.623  -3.900  0.00  0.00    +0.340 HD
BRANCH   8  10
ATOM     10  C   LIG    1       -2.265  -1.345  -3.329  0.00  0.00    +0.230 C 
BRANCH  10  11
ATOM     11  C   LIG    1       -3.755  -1.569  -3.272  0.00  0.00    -0.080 A 
ATOM     12  C   LIG    1       -4.348  -1.998  -2.098  0.00  0.00    +0.040 A 
ATOM     13  C   LIG    1       -5.714  -2.204  -2.044  0.00  0.00    +0.020 A 
ATOM     14  C   LIG    1       -6.497  -1.983  -3.164  0.00  0.00    +0.010 A 
ATOM     15  C   LIG    1       -5.906  -1.553  -4.340  0.00  0.00    +0.070 A 
ATOM     16  O   LIG    1       -6.665  -1.331  -5.452  0.00  0.00    -0.320 OA
ATOM     17  C   LIG    1       -6.782   0.042  -5.859  0.00  0.00    +0.220 C 
ATOM     18  C   LIG    1       -5.598   0.448  -6.723  0.00  0.00    -0.020 C 
ATOM     19  C   LIG    1       -4.285   0.419  -5.957  0.00  0.00    +0.220 C 
ATOM     20  O   LIG    1       -3.963  -0.914  -5.555  0.00  0.00    -0.320 OA
ATOM     21  C   LIG    1       -4.535  -1.342  -4.392  0.00  0.00    +0.070 A 
ENDBRANCH  10  11
ENDBRANCH   8  10
ENDBRANCH   1   8
BRANCH   1  22
ATOM     22  C   LIG    1       -0.225   1.655  -2.514  0.00  0.00    +0.310 C 
BRANCH  22  28
ATOM     23  O   LIG    1       -2.823   2.434  -1.565  0.00  0.00    -0.520 OA
ATOM     24  C   LIG    1       -1.996   1.984  -0.801  0.00  0.00    +0.530 C 
ATOM     25  C   LIG    1       -2.205   1.785   0.683  0.00  0.00    +0.040 C 
ATOM     26  C   LIG    1       -0.775   1.603   1.248  0.00  0.00    +0.040 C 
ATOM     27  C   LIG    1       -0.013   1.086   0.008  0.00  0.00    +0.250 C 
ATOM     28  N   LIG    1       -0.759   1.590  -1.151  0.00  0.00    -0.610 N 
ENDBRANCH  22  28
ENDBRANCH   1  22
TORSDOF 6
