REMARK  Name = ZINCrD00000cVFQG.0
REMARK                            x       y       z     vdW  Elec       q    Type
REMARK                         _______ _______ _______ _____ _____    ______ ____
ROOT
ATOM      1  C   LIG    1       -3.747   1.674   3.292  0.00  0.00    -0.100 A 
ATOM      2  C   LIG    1       -3.876   0.517   4.037  0.00  0.00    +0.040 A 
ATOM      3  C   LIG    1       -5.119  -0.063   4.202  0.00  0.00    +0.040 A 
ATOM      4  C   LIG    1       -6.236   0.513   3.622  0.00  0.00    -0.100 A 
ATOM      5  C   LIG    1       -7.687   0.102   3.638  0.00  0.00    +0.330 C 
ATOM      6  N   LIG    1       -8.438   1.087   2.852  0.00  0.00    -0.600 N 
ATOM      7  C   LIG    1       -7.468   2.075   2.369  0.00  0.00    +0.330 C 
ATOM      8  C   LIG    1       -9.765   1.084   2.619  0.00  0.00    +0.630 C 
ATOM      9  O   LIG    1      -10.266   1.965   1.947  0.00  0.00    -0.510 OA
ATOM     10  C   LIG    1       -6.108   1.669   2.878  0.00  0.00    -0.110 A 
ATOM     11  C   LIG    1       -4.863   2.253   2.718  0.00  0.00    +0.060 A 
ENDROOT
BRANCH   8  12
ATOM     12  C   LIG    1      -10.612   0.012   3.181  0.00  0.00    +0.010 A 
ATOM     13  N   LIG    1      -10.156  -0.978   3.918  0.00  0.00    -0.550 NA
ATOM     14  S   LIG    1      -11.359  -1.890   4.311  0.00  0.00    +0.730 S 
ATOM     15  N   LIG    1      -12.502  -1.111   3.592  0.00  0.00    -0.570 NA
ATOM     16  C   LIG    1      -11.991  -0.071   2.999  0.00  0.00    +0.310 A 
ENDBRANCH   8  12
BRANCH   1  17
ATOM     17  C   LIG    1       -2.392   2.308   3.112  0.00  0.00    +0.320 C 
BRANCH  17  19
ATOM     18  C   LIG    1       -0.523   2.180   1.553  0.00  0.00    +0.520 C 
ATOM     19  N   LIG    1       -1.751   1.758   1.915  0.00  0.00    -0.730 N 
ATOM     20  H   LIG    1       -2.211   1.090   1.382  0.00  0.00    +0.400 HD
ATOM     21  O   LIG    1        0.051   3.016   2.219  0.00  0.00    -0.530 OA
BRANCH  18  22
ATOM     22  C   LIG    1        0.135   1.615   0.321  0.00  0.00    -0.010 C 
ATOM     23  C   LIG    1        0.297   0.101   0.479  0.00  0.00    +0.040 C 
BRANCH  22  24
ATOM     24  C   LIG    1        1.512   2.258   0.138  0.00  0.00    +0.010 C 
BRANCH  24  26
ATOM     25  C   LIG    1        1.311   1.977  -2.337  0.00  0.00    +0.000 C 
ATOM     26  C   LIG    1        2.180   1.684  -1.112  0.00  0.00    +0.010 C 
ENDBRANCH  24  26
BRANCH  24  27
ATOM     27  C   LIG    1        1.350   3.771  -0.019  0.00  0.00    +0.020 C 
ATOM     28  C   LIG    1        2.731   4.429  -0.071  0.00  0.00    +0.000 C 
ENDBRANCH  24  27
ENDBRANCH  22  24
ENDBRANCH  18  22
ENDBRANCH  17  19
ENDBRANCH   1  17
TORSDOF 7
