REMARK  Name = ZINCqH0000001y45.0
REMARK                            x       y       z     vdW  Elec       q    Type
REMARK                         _______ _______ _______ _____ _____    ______ ____
ROOT
ATOM      1  N   LIG    1       -0.063   0.004  -0.023  0.00  0.00    -0.650 N 
ATOM      2  H   LIG    1        0.778  -0.462  -0.147  0.00  0.00    +0.420 HD
ATOM      3  C   LIG    1       -1.206  -0.694   0.129  0.00  0.00    +0.550 C 
ATOM      4  O   LIG    1       -2.271  -0.112   0.185  0.00  0.00    -0.460 OA
ENDROOT
BRANCH   1   9
ATOM      5  C   LIG    1       -1.272   3.363   0.089  0.00  0.00    +0.320 A 
ATOM      6  C   LIG    1       -0.081   4.078   0.037  0.00  0.00    +0.180 A 
ATOM      7  N   LIG    1        1.073   3.438  -0.033  0.00  0.00    -0.370 NA
ATOM      8  C   LIG    1        1.099   2.118  -0.048  0.00  0.00    +0.150 A 
ATOM      9  C   LIG    1       -0.090   1.397  -0.002  0.00  0.00    +0.360 A 
ATOM     10  N   LIG    1       -1.250   2.038   0.069  0.00  0.00    -0.490 NA
BRANCH   5  11
ATOM     11  O   LIG    1       -2.456   4.022   0.161  0.00  0.00    -0.290 OA
BRANCH  11  13
ATOM     12  C   LIG    1       -3.987   2.918   1.670  0.00  0.00    +0.030 C 
ATOM     13  C   LIG    1       -3.640   3.224   0.212  0.00  0.00    +0.180 C 
ATOM     14  C   LIG    1       -4.797   3.986  -0.439  0.00  0.00    +0.060 C 
ENDBRANCH  11  13
ENDBRANCH   5  11
ENDBRANCH   1   9
BRANCH   3  15
ATOM     15  C   LIG    1       -1.163  -2.166   0.227  0.00  0.00    -0.130 A 
ATOM     16  C   LIG    1        0.061  -2.838   0.157  0.00  0.00    +0.070 A 
ATOM     17  C   LIG    1        0.097  -4.211   0.254  0.00  0.00    +0.020 A 
ATOM     18  C   LIG    1       -1.082  -4.930   0.411  0.00  0.00    +0.110 A 
ATOM     19  C   LIG    1       -2.302  -4.266   0.476  0.00  0.00    +0.000 A 
ATOM     20  C   LIG    1       -2.346  -2.892   0.385  0.00  0.00    +0.110 A 
BRANCH  18  21
ATOM     21  O   LIG    1       -1.043  -6.283   0.501  0.00  0.00    -0.250 OA
BRANCH  21  22
ATOM     22  C   LIG    1       -1.401  -7.006  -0.593  0.00  0.00    +0.070 A 
ATOM     23  C   LIG    1       -1.295  -8.393  -0.588  0.00  0.00    +0.050 A 
ATOM     24  C   LIG    1       -1.672  -9.086  -1.727  0.00  0.00    +0.020 A 
ATOM     25  C   LIG    1       -2.138  -8.383  -2.822  0.00  0.00    +0.230 A 
ATOM     26  N   LIG    1       -2.227  -7.068  -2.794  0.00  0.00    -0.450 NA
ATOM     27  C   LIG    1       -1.884  -6.371  -1.729  0.00  0.00    +0.190 A 
ENDBRANCH  21  22
ENDBRANCH  18  21
ENDBRANCH   3  15
TORSDOF 6
