REMARK  Name = ZINCpk00000y6w1n.0
REMARK                            x       y       z     vdW  Elec       q    Type
REMARK                         _______ _______ _______ _____ _____    ______ ____
ROOT
ATOM      1  C   LIG    1       -7.711   3.642  -0.105  0.00  0.00    +0.500 C 
ATOM      2  N   LIG    1       -6.453   3.164  -0.030  0.00  0.00    -0.610 N 
ATOM      3  C   LIG    1       -5.794   2.991   1.271  0.00  0.00    +0.290 C 
ATOM      4  C   LIG    1       -4.450   3.727   1.245  0.00  0.00    +0.010 C 
ATOM      5  C   LIG    1       -3.627   3.235   0.052  0.00  0.00    +0.240 C 
ATOM      6  C   LIG    1       -4.373   3.545  -1.247  0.00  0.00    +0.020 C 
ATOM      7  C   LIG    1       -5.715   2.807  -1.250  0.00  0.00    +0.280 C 
ATOM      8  O   LIG    1       -8.310   3.933   0.909  0.00  0.00    -0.520 OA
ENDROOT
BRANCH   5   9
ATOM      9  N   LIG    1       -2.328   3.912   0.043  0.00  0.00    -0.600 N 
ATOM     10  C   LIG    1       -2.265   5.375   0.007  0.00  0.00    +0.290 C 
BRANCH   9  11
ATOM     11  C   LIG    1       -1.155   3.167   0.069  0.00  0.00    +0.340 A 
ATOM     12  C   LIG    1       -1.197   1.787  -0.127  0.00  0.00    -0.030 A 
ATOM     13  C   LIG    1       -0.000   1.089  -0.088  0.00  0.00    +0.070 A 
ATOM     14  C   LIG    1        1.167   1.806   0.134  0.00  0.00    +0.150 A 
ATOM     15  N   LIG    1        1.115   3.113   0.305  0.00  0.00    -0.200 NA
ATOM     16  N   LIG    1        0.010   3.765   0.274  0.00  0.00    -0.300 NA
ENDBRANCH   9  11
ENDBRANCH   5   9
BRANCH   1  17
ATOM     17  C   LIG    1       -8.374   3.813  -1.447  0.00  0.00    +0.320 C 
BRANCH  17  21
ATOM     18  C   LIG    1      -13.311   3.414  -0.746  0.00  0.00    +0.170 C 
ATOM     19  C   LIG    1      -11.980   4.093  -0.940  0.00  0.00    -0.200 A 
ATOM     20  C   LIG    1      -10.799   3.515  -1.107  0.00  0.00    +0.100 A 
ATOM     21  N   LIG    1       -9.727   4.343  -1.260  0.00  0.00    -0.520 N 
ATOM     22  C   LIG    1       -9.963   5.664  -1.236  0.00  0.00    +0.480 A 
ATOM     23  O   LIG    1       -9.146   6.559  -1.358  0.00  0.00    -0.470 OA
ATOM     24  C   LIG    1      -10.648   2.015  -1.124  0.00  0.00    +0.150 C 
ATOM     25  S   LIG    1      -11.660   5.835  -0.998  0.00  0.00    +0.020 S 
ENDBRANCH  17  21
ENDBRANCH   1  17
TORSDOF 4
