REMARK  Name = ZINCqH0000008Adc.0
REMARK                            x       y       z     vdW  Elec       q    Type
REMARK                         _______ _______ _______ _____ _____    ______ ____
ROOT
ATOM      1  S   LIG    1        5.173   0.433   0.403  0.00  0.00    +2.440 S 
ATOM      2  O   LIG    1        5.548  -0.127  -0.848  0.00  0.00    -0.900 OA
ATOM      3  O   LIG    1        4.507  -0.384   1.356  0.00  0.00    -0.900 OA
ENDROOT
BRANCH   1   4
ATOM      4  C   LIG    1        4.162   1.908   0.098  0.00  0.00    -0.460 C 
ATOM      5  C   LIG    1        3.966   2.672   1.408  0.00  0.00    +0.120 C 
BRANCH   4   8
ATOM      6  N   LIG    1        2.106   2.349  -1.204  0.00  0.00    -0.710 N 
ATOM      7  H   LIG    1        2.455   3.233  -1.398  0.00  0.00    +0.400 HD
ATOM      8  C   LIG    1        2.820   1.492  -0.447  0.00  0.00    +0.540 C 
ATOM      9  O   LIG    1        2.382   0.388  -0.205  0.00  0.00    -0.520 OA
BRANCH   6  16
ATOM     10  C   LIG    1        1.569   2.496  -4.046  0.00  0.00    +0.020 C 
ATOM     11  C   LIG    1        0.489   2.755  -2.994  0.00  0.00    -0.010 C 
ATOM     12  C   LIG    1        0.461   4.245  -2.648  0.00  0.00    +0.010 C 
ATOM     13  C   LIG    1       -0.619   4.504  -1.596  0.00  0.00    +0.010 C 
ATOM     14  C   LIG    1       -0.308   3.695  -0.336  0.00  0.00    +0.000 C 
ATOM     15  C   LIG    1       -0.279   2.204  -0.681  0.00  0.00    +0.020 C 
ATOM     16  C   LIG    1        0.801   1.945  -1.733  0.00  0.00    +0.240 C 
ENDBRANCH   6  16
ENDBRANCH   4   8
ENDBRANCH   1   4
BRANCH   1  17
ATOM     17  C   LIG    1        6.648   1.145   1.183  0.00  0.00    -0.290 C 
BRANCH  17  18
ATOM     18  C   LIG    1        7.649   0.052   1.455  0.00  0.00    -0.040 A 
ATOM     19  C   LIG    1        7.530  -0.727   2.591  0.00  0.00    +0.040 A 
ATOM     20  C   LIG    1        8.446  -1.733   2.838  0.00  0.00    +0.060 A 
ATOM     21  C   LIG    1        9.486  -1.953   1.955  0.00  0.00    +0.030 A 
ATOM     22  C   LIG    1        9.609  -1.171   0.822  0.00  0.00    +0.080 A 
ATOM     23  C   LIG    1        8.690  -0.168   0.572  0.00  0.00    -0.170 A 
BRANCH  23  24
ATOM     24  C   LIG    1        8.824   0.685  -0.663  0.00  0.00    +0.490 C 
ATOM     25  F   LIG    1        8.928   2.030  -0.291  0.00  0.00    -0.180 F 
ATOM     26  F   LIG    1        7.697   0.511  -1.473  0.00  0.00    -0.150 F 
ATOM     27  F   LIG    1        9.970   0.306  -1.370  0.00  0.00    -0.170 F 
ENDBRANCH  23  24
ENDBRANCH  17  18
ENDBRANCH   1  17
TORSDOF 6
