REMARK  Name = ZINCvU00000005ej.0
REMARK                            x       y       z     vdW  Elec       q    Type
REMARK                         _______ _______ _______ _____ _____    ______ ____
ROOT
ATOM      1  C   LIG    1       -0.737  -2.034   0.190  0.00  0.00    +0.200 A 
ATOM      2  N   LIG    1        0.542  -1.788   0.233  0.00  0.00    -0.250 NA
ATOM      3  N   LIG    1        0.745  -0.531   0.405  0.00  0.00    -0.290 NA
ATOM      4  C   LIG    1       -0.404   0.100   0.492  0.00  0.00    +0.160 A 
ATOM      5  N   LIG    1       -1.387  -0.841   0.354  0.00  0.00    -0.420 N 
ENDROOT
BRANCH   5   6
ATOM      6  C   LIG    1       -2.774  -0.626   0.376  0.00  0.00    +0.090 A 
ATOM      7  C   LIG    1       -3.545  -1.173   1.393  0.00  0.00    +0.070 A 
ATOM      8  C   LIG    1       -4.909  -0.957   1.415  0.00  0.00    +0.010 A 
ATOM      9  C   LIG    1       -5.509  -0.204   0.420  0.00  0.00    +0.120 A 
ATOM     10  C   LIG    1       -4.741   0.337  -0.598  0.00  0.00    +0.010 A 
ATOM     11  F   LIG    1       -6.844   0.001   0.441  0.00  0.00    -0.130 F 
ATOM     12  C   LIG    1       -3.377   0.128  -0.621  0.00  0.00    +0.070 A 
ENDBRANCH   5   6
BRANCH   1  14
ATOM     13  C   LIG    1       -1.222  -3.820  -1.460  0.00  0.00    +0.070 C 
ATOM     14  C   LIG    1       -1.381  -3.383  -0.003  0.00  0.00    +0.230 C 
BRANCH  14  15
ATOM     15  N   LIG    1       -0.732  -4.366   0.876  0.00  0.00    -0.520 NA
ATOM     16  C   LIG    1       -1.354  -5.689   0.736  0.00  0.00    +0.160 C 
ATOM     17  C   LIG    1       -0.564  -6.714   1.552  0.00  0.00    +0.020 C 
ATOM     18  C   LIG    1       -0.551  -6.288   3.023  0.00  0.00    +0.010 C 
ATOM     19  C   LIG    1        0.057  -4.888   3.136  0.00  0.00    +0.040 C 
ATOM     20  C   LIG    1       -0.751  -3.915   2.274  0.00  0.00    +0.160 C 
ENDBRANCH  14  15
ENDBRANCH   1  14
BRANCH   4  21
ATOM     21  S   LIG    1       -0.634   1.830   0.734  0.00  0.00    +0.010 S 
BRANCH  21  22
ATOM     22  C   LIG    1        1.092   2.368   0.820  0.00  0.00    +0.090 C 
BRANCH  22  23
ATOM     23  C   LIG    1        1.145   3.882   1.033  0.00  0.00    +0.060 C 
BRANCH  23  24
ATOM     24  C   LIG    1        2.604   4.337   1.105  0.00  0.00    +0.050 C 
BRANCH  24  25
ATOM     25  C   LIG    1        2.655   5.828   1.315  0.00  0.00    +0.430 C 
ATOM     26  O   LIG    1        1.625   6.465   1.399  0.00  0.00    -0.450 OA
BRANCH  25  27
ATOM     27  C   LIG    1        3.902   6.484   1.415  0.00  0.00    -0.310 A 
ATOM     28  C   LIG    1        4.080   7.831   1.605  0.00  0.00    +0.110 A 
ATOM     29  C   LIG    1        5.400   8.200   1.665  0.00  0.00    -0.010 A 
ATOM     30  C   LIG    1        6.278   7.197   1.529  0.00  0.00    -0.050 A 
ATOM     31  S   LIG    1        5.476   5.705   1.322  0.00  0.00    +0.230 S 
ENDBRANCH  25  27
ENDBRANCH  24  25
ENDBRANCH  23  24
ENDBRANCH  22  23
ENDBRANCH  21  22
ENDBRANCH   4  21
TORSDOF 9
