REMARK  Name = ZINCrD00000hQ4pV.0
REMARK                            x       y       z     vdW  Elec       q    Type
REMARK                         _______ _______ _______ _____ _____    ______ ____
ROOT
ATOM      1  N   LIG    1       -2.197   1.267   1.158  0.00  0.00    -0.540 N 
ATOM      2  C   LIG    1       -0.745   1.416   1.230  0.00  0.00    +0.270 C 
ATOM      3  C   LIG    1       -0.097   0.926  -0.065  0.00  0.00    +0.040 C 
ATOM      4  C   LIG    1       -0.801   1.592  -1.253  0.00  0.00    +0.050 C 
ATOM      5  C   LIG    1       -2.232   1.052  -1.332  0.00  0.00    +0.270 C 
ATOM      6  C   LIG    1       -2.880   1.125   0.021  0.00  0.00    +0.510 C 
ATOM      7  O   LIG    1       -4.088   1.049   0.083  0.00  0.00    -0.510 OA
ENDROOT
BRANCH   1  12
ATOM      8  C   LIG    1       -4.442  -0.232   5.356  0.00  0.00    +0.170 C 
ATOM      9  C   LIG    1       -3.925   0.634   4.236  0.00  0.00    +0.080 A 
ATOM     10  N   LIG    1       -4.089   1.928   4.128  0.00  0.00    -0.280 NA
ATOM     11  N   LIG    1       -3.457   2.357   2.954  0.00  0.00    -0.370 N 
ATOM     12  C   LIG    1       -2.914   1.274   2.354  0.00  0.00    +0.300 A 
ATOM     13  C   LIG    1       -3.398   3.736   2.462  0.00  0.00    +0.350 C 
ATOM     14  C   LIG    1       -3.188   0.192   3.133  0.00  0.00    -0.100 A 
ENDBRANCH   1  12
BRANCH   5  15
ATOM     15  N   LIG    1       -2.202  -0.341  -1.783  0.00  0.00    -0.700 N 
ATOM     16  H   LIG    1       -1.411  -0.882  -1.637  0.00  0.00    +0.410 HD
BRANCH  15  17
ATOM     17  C   LIG    1       -3.306  -0.886  -2.419  0.00  0.00    +0.440 A 
ATOM     18  C   LIG    1       -4.454  -0.119  -2.631  0.00  0.00    -0.130 A 
ATOM     19  C   LIG    1       -5.525  -0.707  -3.274  0.00  0.00    +0.210 A 
ATOM     20  N   LIG    1       -5.434  -1.972  -3.657  0.00  0.00    -0.550 NA
ATOM     21  C   LIG    1       -4.339  -2.671  -3.439  0.00  0.00    +0.370 A 
ATOM     22  N   LIG    1       -3.291  -2.150  -2.834  0.00  0.00    -0.570 NA
BRANCH  21  23
ATOM     23  C   LIG    1       -4.282  -4.107  -3.893  0.00  0.00    +0.070 C 
ATOM     24  C   LIG    1       -4.047  -5.016  -2.685  0.00  0.00    +0.040 C 
ATOM     25  C   LIG    1       -3.138  -4.281  -4.893  0.00  0.00    +0.040 C 
ENDBRANCH  21  23
BRANCH  19  26
ATOM     26  C   LIG    1       -6.785   0.079  -3.530  0.00  0.00    +0.040 C 
ATOM     27  C   LIG    1       -6.425   1.535  -3.834  0.00  0.00    +0.040 C 
ATOM     28  C   LIG    1       -7.682   0.023  -2.292  0.00  0.00    +0.050 C 
ENDBRANCH  19  26
ENDBRANCH  15  17
ENDBRANCH   5  15
TORSDOF 5
