REMARK  Name = ZINCrg000000thbB.0
REMARK                            x       y       z     vdW  Elec       q    Type
REMARK                         _______ _______ _______ _____ _____    ______ ____
ROOT
ATOM      1  N   LIG    1        2.406   1.505  -0.012  0.00  0.00    -0.720 N 
ATOM      2  H   LIG    1        2.615   0.558  -0.025  0.00  0.00    +0.400 HD
ENDROOT
BRANCH   1   3
ATOM      3  C   LIG    1        3.488   2.493  -0.015  0.00  0.00    +0.260 C 
ATOM      4  C   LIG    1        4.805   1.855   0.486  0.00  0.00    +0.070 C 
ATOM      5  C   LIG    1        5.854   2.556  -0.406  0.00  0.00    +0.280 C 
ATOM      6  N   LIG    1        5.132   2.951  -1.621  0.00  0.00    -0.560 N 
ATOM      7  C   LIG    1        3.802   2.930  -1.428  0.00  0.00    +0.490 C 
ATOM      8  O   LIG    1        2.974   3.220  -2.266  0.00  0.00    -0.480 OA
BRANCH   6   9
ATOM      9  C   LIG    1        5.750   3.306  -2.827  0.00  0.00    +0.170 A 
ATOM     10  C   LIG    1        7.133   3.413  -2.893  0.00  0.00    +0.010 A 
ATOM     11  C   LIG    1        7.742   3.763  -4.083  0.00  0.00    +0.040 A 
ATOM     12  C   LIG    1        6.974   4.006  -5.209  0.00  0.00    +0.080 A 
ATOM     13  C   LIG    1        5.593   3.899  -5.145  0.00  0.00    -0.040 A 
ATOM     14 CL   LIG    1        4.633   4.205  -6.559  0.00  0.00    -0.040 Cl
ATOM     15  F   LIG    1        7.571   4.348  -6.372  0.00  0.00    -0.130 F 
ATOM     16  C   LIG    1        4.982   3.545  -3.958  0.00  0.00    +0.050 A 
ENDBRANCH   6   9
ENDBRANCH   1   3
BRANCH   1  19
ATOM     17  N   LIG    1       -1.127   1.928   0.032  0.00  0.00    -0.360 N 
ATOM     18  C   LIG    1       -0.029   1.127   0.015  0.00  0.00    +0.150 A 
ATOM     19  C   LIG    1        1.065   1.931   0.010  0.00  0.00    +0.060 A 
ATOM     20  C   LIG    1        0.621   3.261   0.031  0.00  0.00    +0.200 A 
ATOM     21  N   LIG    1       -0.688   3.258   0.048  0.00  0.00    -0.240 NA
BRANCH  17  22
ATOM     22  C   LIG    1       -2.522   1.480   0.037  0.00  0.00    +0.360 C 
BRANCH  22  24
ATOM     23  O   LIG    1       -2.646   2.825   1.973  0.00  0.00    -0.510 OA
ATOM     24  C   LIG    1       -3.240   2.089   1.214  0.00  0.00    +0.500 C 
ATOM     25  N   LIG    1       -4.544   1.816   1.422  0.00  0.00    -0.730 N 
ATOM     26  H   LIG    1       -5.019   1.228   0.815  0.00  0.00    +0.400 HD
BRANCH  25  27
ATOM     27  C   LIG    1       -5.242   2.408   2.566  0.00  0.00    +0.280 C 
BRANCH  27  28
ATOM     28  C   LIG    1       -6.699   1.940   2.571  0.00  0.00    +0.190 C 
BRANCH  28  29
ATOM     29  O   LIG    1       -6.745   0.528   2.789  0.00  0.00    -0.570 OA
ATOM     30  H   LIG    1       -7.640   0.162   2.805  0.00  0.00    +0.380 HD
ENDBRANCH  28  29
ENDBRANCH  27  28
ENDBRANCH  25  27
ENDBRANCH  22  24
ENDBRANCH  17  22
ENDBRANCH   1  19
TORSDOF 8
