REMARK  Name = ZINCvU00000008EQ.0
REMARK                            x       y       z     vdW  Elec       q    Type
REMARK                         _______ _______ _______ _____ _____    ______ ____
ROOT
ATOM      1  C   LIG    1       -2.472   1.399  -0.148  0.00  0.00    +0.580 C 
ATOM      2  N   LIG    1       -1.313   2.058   0.054  0.00  0.00    -0.480 N 
ATOM      3  O   LIG    1       -3.498   2.021  -0.343  0.00  0.00    -0.480 OA
ENDROOT
BRANCH   2   4
ATOM      4  C   LIG    1       -1.316   3.452   0.194  0.00  0.00    +0.150 A 
ATOM      5  C   LIG    1       -0.115   4.149   0.229  0.00  0.00    +0.000 A 
ATOM      6  C   LIG    1       -0.120   5.524   0.362  0.00  0.00    +0.060 A 
ATOM      7  C   LIG    1       -1.320   6.205   0.472  0.00  0.00    -0.050 A 
ATOM      8  C   LIG    1       -2.517   5.512   0.443  0.00  0.00    +0.060 A 
ATOM      9 CL   LIG    1       -1.322   7.933   0.646  0.00  0.00    -0.070 Cl
ATOM     10  C   LIG    1       -2.518   4.138   0.304  0.00  0.00    +0.050 A 
ENDBRANCH   2   4
BRANCH   1  14
ATOM     11  C   LIG    1       -2.535  -2.846  -0.110  0.00  0.00    +0.170 A 
ATOM     12  C   LIG    1       -3.727  -2.136  -0.189  0.00  0.00    -0.020 A 
ATOM     13  C   LIG    1       -3.711  -0.759  -0.201  0.00  0.00    +0.150 A 
ATOM     14  C   LIG    1       -2.494  -0.075  -0.135  0.00  0.00    -0.190 A 
ATOM     15  C   LIG    1       -1.297  -0.793  -0.061  0.00  0.00    +0.090 A 
ATOM     16  C   LIG    1       -1.322  -2.170  -0.043  0.00  0.00    -0.090 A 
BRANCH  11  17
ATOM     17  O   LIG    1       -2.555  -4.203  -0.098  0.00  0.00    -0.300 OA
BRANCH  17  18
ATOM     18  C   LIG    1       -1.294  -4.870  -0.015  0.00  0.00    +0.300 C 
BRANCH  18  25
ATOM     19  C   LIG    1       -1.429  -6.856  -2.578  0.00  0.00    +0.160 C 
ATOM     20  C   LIG    1       -1.573  -7.232  -1.125  0.00  0.00    +0.040 A 
ATOM     21  N   LIG    1       -1.777  -8.425  -0.646  0.00  0.00    -0.360 NA
ATOM     22  O   LIG    1       -1.849  -8.414   0.561  0.00  0.00    +0.100 OA
ATOM     23  C   LIG    1       -1.693  -7.176   1.052  0.00  0.00    +0.010 A 
ATOM     24  C   LIG    1       -1.715  -6.772   2.504  0.00  0.00    +0.200 C 
ATOM     25  C   LIG    1       -1.513  -6.361  -0.014  0.00  0.00    -0.220 A 
ENDBRANCH  18  25
ENDBRANCH  17  18
ENDBRANCH  11  17
ENDBRANCH   1  14
BRANCH   2  26
ATOM     26  C   LIG    1       -0.123   1.358   0.124  0.00  0.00    +0.410 C 
ATOM     27  N   LIG    1        0.600   1.032  -0.885  0.00  0.00    -0.500 NA
ATOM     28  C   LIG    1        1.831   0.302  -0.684  0.00  0.00    +0.190 C 
ATOM     29  C   LIG    1        2.076   0.025   0.808  0.00  0.00    +0.120 C 
ATOM     30  C   LIG    1        2.998   1.124  -1.237  0.00  0.00    +0.080 C 
ATOM     31  S   LIG    1        0.631   0.786   1.617  0.00  0.00    -0.170 S 
ENDBRANCH   2  26
TORSDOF 6
