REMARK  Name = ZINCrD0000072ph1.0
REMARK                            x       y       z     vdW  Elec       q    Type
REMARK                         _______ _______ _______ _____ _____    ______ ____
ROOT
ATOM      1  C   LIG    1        1.317  -0.740  -0.015  0.00  0.00    +0.260 C 
ENDROOT
BRANCH   1   2
ATOM      2  C   LIG    1        2.061  -0.468   1.268  0.00  0.00    -0.130 A 
ATOM      3  C   LIG    1        1.797  -1.225   2.394  0.00  0.00    +0.040 A 
ATOM      4  C   LIG    1        2.482  -0.978   3.569  0.00  0.00    +0.010 A 
ATOM      5  C   LIG    1        3.425   0.031   3.620  0.00  0.00    +0.030 A 
ATOM      6  C   LIG    1        3.686   0.792   2.495  0.00  0.00    +0.020 A 
ATOM      7  C   LIG    1        3.003   0.542   1.319  0.00  0.00    +0.030 A 
ENDBRANCH   1   2
BRANCH   1   8
ATOM      8  C   LIG    1        0.002  -0.004   0.002  0.00  0.00    +0.540 C 
ATOM      9  N   LIG    1       -0.016   1.344   0.009  0.00  0.00    -0.620 N 
ATOM     10  H   LIG    1        0.817   1.840   0.004  0.00  0.00    +0.420 HD
ATOM     11  O   LIG    1       -1.040  -0.625   0.009  0.00  0.00    -0.480 OA
BRANCH   9  12
ATOM     12  C   LIG    1       -1.234   2.025   0.019  0.00  0.00    +0.250 A 
ATOM     13  N   LIG    1       -1.408   3.320   0.033  0.00  0.00    -0.380 NA
ATOM     14  O   LIG    1       -2.582   3.608   0.035  0.00  0.00    +0.100 OA
ATOM     15  C   LIG    1       -3.362   2.518   0.033  0.00  0.00    -0.020 A 
ATOM     16  C   LIG    1       -4.869   2.487   0.040  0.00  0.00    +0.190 C 
ATOM     17  C   LIG    1       -2.532   1.450   0.022  0.00  0.00    -0.040 A 
ENDBRANCH   9  12
ENDBRANCH   1   8
BRANCH   1  18
ATOM     18  O   LIG    1        1.073  -2.166  -0.139  0.00  0.00    -0.310 OA
BRANCH  18  19
ATOM     19  C   LIG    1        2.014  -2.895  -0.770  0.00  0.00    +0.560 C 
ATOM     20  O   LIG    1        3.012  -2.354  -1.204  0.00  0.00    -0.470 OA
BRANCH  19  26
ATOM     21  C   LIG    1        2.255  -5.431  -0.032  0.00  0.00    +0.070 A 
ATOM     22  N   LIG    1        1.869  -6.529  -0.612  0.00  0.00    -0.350 NA
ATOM     23  O   LIG    1        1.312  -6.322  -1.662  0.00  0.00    +0.100 OA
ATOM     24  C   LIG    1        1.224  -5.024  -1.963  0.00  0.00    +0.040 A 
ATOM     25  C   LIG    1        0.587  -4.422  -3.188  0.00  0.00    +0.200 C 
ATOM     26  C   LIG    1        1.833  -4.347  -0.934  0.00  0.00    -0.240 A 
BRANCH  21  28
ATOM     27  C   LIG    1        1.959  -5.171   2.416  0.00  0.00    +0.040 C 
ATOM     28  C   LIG    1        2.979  -5.297   1.283  0.00  0.00    +0.130 C 
ENDBRANCH  21  28
ENDBRANCH  19  26
ENDBRANCH  18  19
ENDBRANCH   1  18
TORSDOF 7
