REMARK  Name = ZINCpk00000y6vMU.0
REMARK                            x       y       z     vdW  Elec       q    Type
REMARK                         _______ _______ _______ _____ _____    ______ ____
ROOT
ATOM      1  N   LIG    1        1.768  -1.723  -0.025  0.00  0.00    -0.640 N 
ATOM      2  H   LIG    1        2.721  -1.903  -0.035  0.00  0.00    +0.410 HD
ATOM      3  C   LIG    1        0.889  -2.745  -0.022  0.00  0.00    +0.500 C 
ATOM      4  O   LIG    1       -0.303  -2.521  -0.009  0.00  0.00    -0.520 OA
ENDROOT
BRANCH   1  10
ATOM      5  C   LIG    1        3.605   0.792  -0.028  0.00  0.00    +0.160 C 
ATOM      6  C   LIG    1        2.099   0.760  -0.014  0.00  0.00    +0.070 A 
ATOM      7  N   LIG    1        1.311   1.804  -0.001  0.00  0.00    -0.270 NA
ATOM      8  N   LIG    1       -0.016   1.357   0.009  0.00  0.00    -0.320 N 
ATOM      9  C   LIG    1        0.002  -0.004   0.002  0.00  0.00    +0.250 A 
ATOM     10  C   LIG    1        1.302  -0.395  -0.013  0.00  0.00    +0.000 A 
BRANCH   8  11
ATOM     11  C   LIG    1       -1.160   2.166   0.019  0.00  0.00    +0.170 A 
ATOM     12  C   LIG    1       -2.422   1.587   0.017  0.00  0.00    -0.010 A 
ATOM     13  C   LIG    1       -3.548   2.388   0.033  0.00  0.00    +0.040 A 
ATOM     14  C   LIG    1       -3.419   3.765   0.040  0.00  0.00    +0.000 A 
ATOM     15  C   LIG    1       -2.163   4.344   0.036  0.00  0.00    +0.040 A 
ATOM     16  C   LIG    1       -1.034   3.549   0.026  0.00  0.00    +0.020 A 
ENDBRANCH   8  11
ENDBRANCH   1  10
BRANCH   3  17
ATOM     17  C   LIG    1        1.388  -4.168  -0.035  0.00  0.00    +0.330 C 
BRANCH  17  18
ATOM     18  N   LIG    1        0.246  -5.085  -0.029  0.00  0.00    -0.590 N 
ATOM     19  C   LIG    1       -0.336  -5.536  -1.304  0.00  0.00    +0.280 C 
ATOM     20  C   LIG    1       -1.695  -4.857  -1.489  0.00  0.00    +0.030 C 
ATOM     21  C   LIG    1       -2.794  -5.654  -0.809  0.00  0.00    +0.010 C 
ATOM     22  C   LIG    1       -2.687  -5.678   0.705  0.00  0.00    +0.050 C 
ATOM     23  C   LIG    1       -1.443  -6.451   1.148  0.00  0.00    +0.180 C 
ATOM     24  C   LIG    1       -0.256  -5.512   1.131  0.00  0.00    +0.490 C 
ATOM     25  O   LIG    1        0.238  -5.142   2.175  0.00  0.00    -0.530 OA
BRANCH  23  26
ATOM     26  O   LIG    1       -1.638  -6.958   2.470  0.00  0.00    -0.540 OA
ATOM     27  H   LIG    1       -0.887  -7.460   2.814  0.00  0.00    +0.390 HD
ENDBRANCH  23  26
ENDBRANCH  17  18
ENDBRANCH   3  17
TORSDOF 5
