REMARK  Name = ZINCrD00000F5LyO.0
REMARK                            x       y       z     vdW  Elec       q    Type
REMARK                         _______ _______ _______ _____ _____    ______ ____
ROOT
ATOM      1  N   LIG    1        3.581   1.742  -0.023  0.00  0.00    -0.720 N 
ATOM      2  H   LIG    1        3.568   2.712  -0.017  0.00  0.00    +0.400 HD
ATOM      3  C   LIG    1        2.423   1.053  -0.015  0.00  0.00    +0.550 C 
ATOM      4  O   LIG    1        2.440  -0.165  -0.022  0.00  0.00    -0.540 OA
ENDROOT
BRANCH   1   5
ATOM      5  C   LIG    1        4.860   1.027  -0.039  0.00  0.00    +0.300 C 
ATOM      6  C   LIG    1        5.257   0.661   1.393  0.00  0.00    +0.030 C 
BRANCH   5  10
ATOM      7  C   LIG    1        7.871   3.530  -1.758  0.00  0.00    +0.170 A 
ATOM      8  C   LIG    1        6.753   4.094  -1.160  0.00  0.00    -0.110 A 
ATOM      9  C   LIG    1        5.779   3.283  -0.610  0.00  0.00    +0.090 A 
ATOM     10  C   LIG    1        5.921   1.909  -0.645  0.00  0.00    -0.160 A 
ATOM     11  C   LIG    1        7.037   1.340  -1.242  0.00  0.00    +0.180 A 
ATOM     12  C   LIG    1        8.013   2.152  -1.799  0.00  0.00    -0.100 A 
BRANCH   7  14
ATOM     13  C   LIG    1        8.615   5.740  -2.225  0.00  0.00    +0.250 C 
ATOM     14  O   LIG    1        8.827   4.329  -2.303  0.00  0.00    -0.320 OA
ENDBRANCH   7  14
BRANCH  11  15
ATOM     15  O   LIG    1        7.174  -0.011  -1.280  0.00  0.00    -0.310 OA
ATOM     16  C   LIG    1        8.348  -0.527  -1.910  0.00  0.00    +0.240 C 
ENDBRANCH  11  15
ENDBRANCH   5  10
ENDBRANCH   1   5
BRANCH   3  17
ATOM     17  C   LIG    1        1.147   1.767   0.001  0.00  0.00    -0.090 C 
ATOM     18  C   LIG    1       -0.013   1.076   0.008  0.00  0.00    +0.130 C 
BRANCH  18  19
ATOM     19  C   LIG    1       -1.296   1.793   0.018  0.00  0.00    -0.070 A 
ATOM     20  C   LIG    1       -1.317   3.192   0.026  0.00  0.00    +0.050 A 
ATOM     21  C   LIG    1       -2.522   3.861   0.036  0.00  0.00    +0.020 A 
ATOM     22  C   LIG    1       -3.717   3.152   0.038  0.00  0.00    +0.060 A 
ATOM     23  O   LIG    1       -4.894   3.834   0.053  0.00  0.00    -0.300 OA
ATOM     24  C   LIG    1       -6.066   3.104  -0.322  0.00  0.00    +0.230 C 
ATOM     25  C   LIG    1       -6.050   1.757   0.413  0.00  0.00    +0.230 C 
ATOM     26  O   LIG    1       -4.866   1.051   0.027  0.00  0.00    -0.310 OA
ATOM     27  C   LIG    1       -3.703   1.759   0.029  0.00  0.00    +0.050 A 
ATOM     28  C   LIG    1       -2.499   1.080   0.014  0.00  0.00    +0.050 A 
ENDBRANCH  18  19
ENDBRANCH   3  17
TORSDOF 6
