REMARK  Name = ZINCpe000000WFTu.0
REMARK                            x       y       z     vdW  Elec       q    Type
REMARK                         _______ _______ _______ _____ _____    ______ ____
ROOT
ATOM      1  C   LIG    1       -0.018   1.503   0.010  0.00  0.00    +0.170 A 
ATOM      2  N   LIG    1        1.021   2.285   0.005  0.00  0.00    -0.360 NA
ATOM      3  O   LIG    1        0.676   3.448   0.014  0.00  0.00    +0.090 OA
ATOM      4  C   LIG    1       -0.663   3.523   0.027  0.00  0.00    +0.220 A 
ATOM      5  N   LIG    1       -1.112   2.280   0.019  0.00  0.00    -0.450 NA
ENDROOT
BRANCH   4   6
ATOM      6  C   LIG    1       -1.478   4.756   0.042  0.00  0.00    -0.000 A 
ATOM      7  C   LIG    1       -2.872   4.675   0.049  0.00  0.00    +0.100 A 
ATOM      8  C   LIG    1       -3.630   5.828   0.069  0.00  0.00    +0.060 A 
ATOM      9  C   LIG    1       -3.014   7.065   0.069  0.00  0.00    +0.050 A 
ATOM     10  C   LIG    1       -1.628   7.157   0.056  0.00  0.00    +0.130 A 
ATOM     11  C   LIG    1       -0.858   6.005   0.042  0.00  0.00    +0.080 A 
BRANCH  10  12
ATOM     12  N   LIG    1       -1.008   8.415   0.055  0.00  0.00    -0.330 N 
ATOM     13  C   LIG    1       -1.609   9.625   0.068  0.00  0.00    +0.470 A 
ATOM     14  N   LIG    1       -0.663  10.528   0.063  0.00  0.00    -0.330 NA
ATOM     15  N   LIG    1        0.494   9.971   0.049  0.00  0.00    -0.030 NA
ATOM     16  N   LIG    1        0.371   8.688   0.049  0.00  0.00    -0.070 NA
ENDBRANCH  10  12
ENDBRANCH   4   6
BRANCH   1  21
ATOM     17  N   LIG    1        0.995  -0.496   0.968  0.00  0.00    -1.010 NA
ATOM     18  C   LIG    1        2.023  -1.263   0.240  0.00  0.00    +0.280 C 
ATOM     19  C   LIG    1        1.320  -1.738  -1.055  0.00  0.00    +0.040 C 
ATOM     20  C   LIG    1        0.425  -0.516  -1.391  0.00  0.00    +0.050 C 
ATOM     21  C   LIG    1        0.002  -0.004   0.002  0.00  0.00    +0.360 C 
BRANCH  17  23
ATOM     22  C   LIG    1        0.016  -1.627   3.269  0.00  0.00    -0.280 C 
ATOM     23  S   LIG    1        0.965  -0.232   2.603  0.00  0.00    +2.620 S 
ATOM     24  O   LIG    1        0.238   0.981   2.748  0.00  0.00    -0.950 OA
ATOM     25  O   LIG    1        2.327  -0.321   2.997  0.00  0.00    -0.940 OA
ENDBRANCH  17  23
ENDBRANCH   1  21
TORSDOF 4
