REMARK  Name = ZINC5b0000002nCC.0
REMARK                            x       y       z     vdW  Elec       q    Type
REMARK                         _______ _______ _______ _____ _____    ______ ____
ROOT
ATOM      1  C   LIG    1        1.754   5.285   0.816  0.00  0.00    +0.070 C 
ATOM      2  C   LIG    1        1.893   3.784   0.807  0.00  0.00    -0.040 C 
ATOM      3  C   LIG    1        1.147   3.062   0.008  0.00  0.00    -0.050 C 
ENDROOT
BRANCH   3   4
ATOM      4  C   LIG    1        1.286   1.562  -0.002  0.00  0.00    +0.210 C 
BRANCH   4   5
ATOM      5  O   LIG    1       -0.011   0.963   0.007  0.00  0.00    -0.570 OA
ATOM      6  H   LIG    1        0.002  -0.004   0.002  0.00  0.00    +0.380 HD
ENDBRANCH   4   5
ENDBRANCH   3   4
TORSDOF 2
