REMARK  Name = ZINCvU0000000Ioq.0
REMARK                            x       y       z     vdW  Elec       q    Type
REMARK                         _______ _______ _______ _____ _____    ______ ____
ROOT
ATOM      1  C   LIG    1        1.056   2.209  -0.105  0.00  0.00    +0.260 A 
ATOM      2  C   LIG    1       -0.195   1.607  -0.113  0.00  0.00    -0.040 A 
ATOM      3  C   LIG    1       -1.336   2.384  -0.106  0.00  0.00    +0.110 A 
ATOM      4  C   LIG    1       -1.232   3.769  -0.080  0.00  0.00    +0.090 A 
ATOM      5  C   LIG    1        0.019   4.372  -0.071  0.00  0.00    +0.090 A 
ATOM      6  C   LIG    1        1.159   3.594  -0.084  0.00  0.00    -0.240 A 
ENDROOT
BRANCH   4   7
ATOM      7  N   LIG    1       -2.390   4.558  -0.068  0.00  0.00    -0.660 N 
ATOM      8  H   LIG    1       -2.365   5.460  -0.422  0.00  0.00    +0.420 HD
ATOM      9  C   LIG    1       -3.537   4.062   0.437  0.00  0.00    +0.610 C 
ATOM     10  O   LIG    1       -3.544   2.972   0.977  0.00  0.00    -0.500 OA
BRANCH   9  11
ATOM     11  C   LIG    1       -4.778   4.838   0.334  0.00  0.00    -0.090 A 
ATOM     12  C   LIG    1       -6.005   4.454   0.796  0.00  0.00    +0.050 A 
ATOM     13  C   LIG    1       -6.895   5.494   0.488  0.00  0.00    -0.070 A 
ATOM     14  C   LIG    1       -6.184   6.452  -0.146  0.00  0.00    +0.210 A 
ATOM     15  O   LIG    1       -4.909   6.053  -0.237  0.00  0.00    -0.170 OA
ENDBRANCH   9  11
ENDBRANCH   4   7
BRANCH   6  16
ATOM     16  C   LIG    1        2.517   4.248  -0.075  0.00  0.00    +0.510 C 
ATOM     17  F   LIG    1        3.223   3.874  -1.224  0.00  0.00    -0.180 F 
ATOM     18  F   LIG    1        3.224   3.839   1.061  0.00  0.00    -0.180 F 
ATOM     19  F   LIG    1        2.365   5.639  -0.053  0.00  0.00    -0.180 F 
ENDBRANCH   6  16
BRANCH   1  20
ATOM     20  N   LIG    1        2.212   1.421  -0.117  0.00  0.00    -0.730 N 
ATOM     21  H   LIG    1        3.086   1.842  -0.111  0.00  0.00    +0.410 HD
BRANCH  20  22
ATOM     22  C   LIG    1        2.103  -0.039  -0.139  0.00  0.00    +0.300 C 
BRANCH  22  25
ATOM     23  N   LIG    1        3.629  -1.986  -0.168  0.00  0.00    -0.670 N 
ATOM     24  H   LIG    1        2.849  -2.558  -0.245  0.00  0.00    +0.410 HD
ATOM     25  C   LIG    1        3.482  -0.646  -0.148  0.00  0.00    +0.510 C 
ATOM     26  O   LIG    1        4.460   0.071  -0.138  0.00  0.00    -0.510 OA
BRANCH  23  32
ATOM     27  C   LIG    1        5.089  -3.754   0.591  0.00  0.00    -0.100 A 
ATOM     28  C   LIG    1        6.350  -4.309   0.677  0.00  0.00    +0.030 A 
ATOM     29  C   LIG    1        7.431  -3.669   0.098  0.00  0.00    -0.010 A 
ATOM     30  C   LIG    1        7.252  -2.471  -0.569  0.00  0.00    +0.020 A 
ATOM     31  C   LIG    1        5.991  -1.914  -0.664  0.00  0.00    +0.020 A 
ATOM     32  C   LIG    1        4.906  -2.551  -0.079  0.00  0.00    +0.140 A 
BRANCH  27  34
ATOM     33  C   LIG    1        3.206  -5.313   0.173  0.00  0.00    +0.020 C 
ATOM     34  C   LIG    1        3.913  -4.452   1.223  0.00  0.00    +0.060 C 
ENDBRANCH  27  34
ENDBRANCH  23  32
ENDBRANCH  22  25
ENDBRANCH  20  22
ENDBRANCH   1  20
TORSDOF 8
