REMARK  Name = ZINCqH0000007sQJ.0
REMARK                            x       y       z     vdW  Elec       q    Type
REMARK                         _______ _______ _______ _____ _____    ______ ____
ROOT
ATOM      1  N   LIG    1        1.164  -1.688  -3.068  0.00  0.00    -0.740 N 
ATOM      2  H   LIG    1        2.054  -1.314  -3.165  0.00  0.00    +0.400 HD
ATOM      3  C   LIG    1        0.411  -1.367  -1.998  0.00  0.00    +0.710 C 
ATOM      4  N   LIG    1        0.852  -0.451  -1.113  0.00  0.00    -0.630 N 
ATOM      5  C   LIG    1        2.197   0.134  -1.235  0.00  0.00    +0.230 C 
ATOM      6  C   LIG    1        2.069   1.659  -1.166  0.00  0.00    +0.220 C 
ATOM      7  O   LIG    1        1.325   2.017   0.001  0.00  0.00    -0.370 OA
ATOM      8  C   LIG    1       -0.018   1.528   0.011  0.00  0.00    +0.150 C 
ATOM      9  C   LIG    1        0.002  -0.004   0.002  0.00  0.00    +0.290 C 
ATOM     10  O   LIG    1       -0.667  -1.905  -1.830  0.00  0.00    -0.570 OA
ENDROOT
BRANCH   8  11
ATOM     11  C   LIG    1       -0.733   2.023   1.271  0.00  0.00    -0.060 C 
ATOM     12  C   LIG    1       -2.168   1.494   1.284  0.00  0.00    +0.040 C 
ATOM     13  C   LIG    1       -0.753   3.553   1.278  0.00  0.00    +0.030 C 
ATOM     14  C   LIG    1        0.009   1.516   2.509  0.00  0.00    +0.040 C 
ENDBRANCH   8  11
BRANCH   1  15
ATOM     15  C   LIG    1        0.639  -2.601  -4.086  0.00  0.00    +0.320 C 
BRANCH  15  19
ATOM     16  C   LIG    1        2.592  -1.855  -7.813  0.00  0.00    +0.150 A 
ATOM     17  C   LIG    1        1.232  -2.125  -7.784  0.00  0.00    -0.010 A 
ATOM     18  C   LIG    1        0.603  -2.366  -6.577  0.00  0.00    +0.100 A 
ATOM     19  C   LIG    1        1.328  -2.338  -5.401  0.00  0.00    -0.160 A 
ATOM     20  C   LIG    1        2.683  -2.063  -5.427  0.00  0.00    +0.070 A 
ATOM     21  C   LIG    1        3.318  -1.827  -6.631  0.00  0.00    -0.070 A 
BRANCH  16  23
ATOM     22  C   LIG    1        4.616  -1.346  -8.953  0.00  0.00    +0.240 C 
ATOM     23  O   LIG    1        3.214  -1.618  -8.998  0.00  0.00    -0.310 OA
ENDBRANCH  16  23
ENDBRANCH  15  19
BRANCH  15  24
ATOM     24  C   LIG    1        0.896  -4.047  -3.656  0.00  0.00    +0.440 C 
ATOM     25  F   LIG    1        2.272  -4.252  -3.511  0.00  0.00    -0.180 F 
ATOM     26  F   LIG    1        0.395  -4.919  -4.628  0.00  0.00    -0.180 F 
ATOM     27  F   LIG    1        0.257  -4.291  -2.436  0.00  0.00    -0.170 F 
ENDBRANCH  15  24
ENDBRANCH   1  15
TORSDOF 5
