REMARK  Name = ZINCvU0000000DZh.0
REMARK                            x       y       z     vdW  Elec       q    Type
REMARK                         _______ _______ _______ _____ _____    ______ ____
ROOT
ATOM      1  C   LIG    1        0.437   7.774  -0.941  0.00  0.00    +0.280 A 
ATOM      2  N   LIG    1        0.296   6.493  -1.077  0.00  0.00    -0.460 NA
ATOM      3  C   LIG    1        0.229   5.779   0.030  0.00  0.00    +0.100 A 
ATOM      4  C   LIG    1        0.314   6.490   1.156  0.00  0.00    -0.070 A 
ATOM      5  S   LIG    1        0.499   8.186   0.717  0.00  0.00    +0.160 S 
ENDROOT
BRANCH   1   8
ATOM      6  C   LIG    1        0.560   9.230  -4.404  0.00  0.00    +0.120 C 
ATOM      7  C   LIG    1        0.464   8.247  -3.266  0.00  0.00    +0.510 C 
ATOM      8  N   LIG    1        0.525   8.682  -1.992  0.00  0.00    -0.480 N 
ATOM      9  O   LIG    1        0.333   7.064  -3.496  0.00  0.00    -0.470 OA
BRANCH   8  10
ATOM     10  C   LIG    1        0.677  10.049  -1.725  0.00  0.00    +0.100 A 
ATOM     11  C   LIG    1        1.947  10.596  -1.600  0.00  0.00    +0.030 A 
ATOM     12  C   LIG    1        2.094  11.946  -1.343  0.00  0.00    +0.020 A 
ATOM     13  C   LIG    1        0.978  12.749  -1.199  0.00  0.00    +0.030 A 
ATOM     14  C   LIG    1       -0.288  12.206  -1.318  0.00  0.00    -0.080 A 
ATOM     15  C   LIG    1       -1.502  13.085  -1.161  0.00  0.00    +0.100 C 
ATOM     16  C   LIG    1       -0.442  10.859  -1.580  0.00  0.00    -0.060 A 
ATOM     17  C   LIG    1       -1.822  10.268  -1.710  0.00  0.00    +0.090 C 
ENDBRANCH   8  10
ENDBRANCH   1   8
BRANCH   3  18
ATOM     18  C   LIG    1        0.065   4.281   0.024  0.00  0.00    +0.230 C 
BRANCH  18  19
ATOM     19  S   LIG    1        1.695   3.494   0.004  0.00  0.00    -0.010 S 
BRANCH  19  20
ATOM     20  C   LIG    1        1.217   1.799   0.000  0.00  0.00    +0.160 A 
ATOM     21  N   LIG    1       -0.016   1.352   0.009  0.00  0.00    -0.460 NA
ATOM     22  C   LIG    1        0.002  -0.004   0.002  0.00  0.00    +0.040 A 
ATOM     23  C   LIG    1        1.298  -0.404  -0.013  0.00  0.00    +0.200 A 
ATOM     24  N   LIG    1        2.067   0.735  -0.014  0.00  0.00    -0.290 N 
BRANCH  22  25
ATOM     25  C   LIG    1       -1.185  -0.893   0.009  0.00  0.00    -0.000 A 
ATOM     26  C   LIG    1       -1.023  -2.277  -0.005  0.00  0.00    +0.010 A 
ATOM     27  C   LIG    1       -2.131  -3.099   0.008  0.00  0.00    +0.000 A 
ATOM     28  C   LIG    1       -3.402  -2.552   0.023  0.00  0.00    +0.000 A 
ATOM     29  C   LIG    1       -3.569  -1.179   0.031  0.00  0.00    +0.000 A 
ATOM     30  C   LIG    1       -2.468  -0.347   0.024  0.00  0.00    +0.040 A 
ENDBRANCH  22  25
BRANCH  24  31
ATOM     31  N   LIG    1        3.432   0.789  -0.027  0.00  0.00    -0.590 N 
ATOM     32  H   LIG    1        3.767   1.582   0.500  0.00  0.00    +0.370 HD
ATOM     33  H   LIG    1        3.784   0.809  -0.972  0.00  0.00    +0.370 HD
ENDBRANCH  24  31
ENDBRANCH  19  20
ENDBRANCH  18  19
ENDBRANCH   3  18
TORSDOF 7
