REMARK  Name = ZINCrD00000hQ7a5.0
REMARK                            x       y       z     vdW  Elec       q    Type
REMARK                         _______ _______ _______ _____ _____    ______ ____
ROOT
ATOM      1  C   LIG    1        8.466  -2.292  -1.102  0.00  0.00    -0.100 C 
ATOM      2  C   LIG    1        7.738  -1.885  -2.163  0.00  0.00    +0.140 C 
ENDROOT
BRANCH   2   3
ATOM      3  C   LIG    1        6.467  -1.177  -1.954  0.00  0.00    -0.120 A 
ATOM      4  C   LIG    1        5.710  -0.754  -3.053  0.00  0.00    +0.090 A 
ATOM      5  C   LIG    1        4.521  -0.091  -2.853  0.00  0.00    -0.010 A 
ATOM      6  C   LIG    1        4.071   0.160  -1.561  0.00  0.00    +0.140 A 
ATOM      7  C   LIG    1        4.822  -0.253  -0.466  0.00  0.00    -0.080 A 
ATOM      8  C   LIG    1        6.010  -0.922  -0.656  0.00  0.00    +0.070 A 
BRANCH   6   9
ATOM      9  O   LIG    1        2.898   0.815  -1.369  0.00  0.00    -0.310 OA
BRANCH   9  10
ATOM     10  C   LIG    1        2.495   1.040  -0.016  0.00  0.00    +0.270 C 
BRANCH  10  11
ATOM     11  C   LIG    1        1.180   1.775   0.000  0.00  0.00    -0.150 A 
ATOM     12  C   LIG    1        1.150   3.161   0.008  0.00  0.00    +0.090 A 
ATOM     13  C   LIG    1       -0.084   3.795   0.022  0.00  0.00    -0.030 A 
ATOM     14  C   LIG    1       -1.234   3.029   0.029  0.00  0.00    +0.270 A 
ATOM     15  N   LIG    1       -1.167   1.712   0.017  0.00  0.00    -0.490 NA
ATOM     16  C   LIG    1       -0.013   1.076   0.008  0.00  0.00    +0.290 A 
ENDBRANCH  10  11
ENDBRANCH   9  10
ENDBRANCH   6   9
ENDBRANCH   2   3
BRANCH   1  18
ATOM     17  O   LIG    1       10.126  -3.217  -2.439  0.00  0.00    -0.540 OA
ATOM     18  C   LIG    1        9.731  -2.997  -1.309  0.00  0.00    +0.550 C 
ATOM     19  N   LIG    1       10.458  -3.402  -0.249  0.00  0.00    -0.720 N 
ATOM     20  H   LIG    1       10.143  -3.227   0.651  0.00  0.00    +0.400 HD
BRANCH  19  21
ATOM     21  C   LIG    1       11.724  -4.109  -0.457  0.00  0.00    +0.250 C 
ATOM     22  C   LIG    1       11.499  -5.641  -0.493  0.00  0.00    +0.000 C 
ATOM     23  C   LIG    1       12.868  -6.234  -0.102  0.00  0.00    +0.020 C 
ATOM     24  C   LIG    1       13.606  -5.146   0.698  0.00  0.00    +0.020 C 
ATOM     25  C   LIG    1       12.660  -3.930   0.764  0.00  0.00    -0.020 C 
BRANCH  25  26
ATOM     26  C   LIG    1       13.453  -2.627   0.645  0.00  0.00    +0.030 C 
BRANCH  26  27
ATOM     27  C   LIG    1       14.274  -2.411   1.918  0.00  0.00    +0.170 C 
BRANCH  27  28
ATOM     28  O   LIG    1       15.014  -1.194   1.807  0.00  0.00    -0.580 OA
ATOM     29  H   LIG    1       15.559  -0.993   2.580  0.00  0.00    +0.380 HD
ENDBRANCH  27  28
ENDBRANCH  26  27
ENDBRANCH  25  26
ENDBRANCH  19  21
ENDBRANCH   1  18
TORSDOF 9
