REMARK  Name = ZINCqH0000007eUX.0
REMARK                            x       y       z     vdW  Elec       q    Type
REMARK                         _______ _______ _______ _____ _____    ______ ____
ROOT
ATOM      1  C   LIG    1       -6.812   0.425  -2.553  0.00  0.00    +0.520 C 
ATOM      2  N   LIG    1       -5.771   1.273  -2.674  0.00  0.00    -0.670 N 
ATOM      3  H   LIG    1       -5.655   1.786  -3.489  0.00  0.00    +0.420 HD
ATOM      4  O   LIG    1       -7.005  -0.152  -1.504  0.00  0.00    -0.510 OA
ENDROOT
BRANCH   2   5
ATOM      5  C   LIG    1       -4.857   1.414  -1.622  0.00  0.00    +0.090 A 
ATOM      6  C   LIG    1       -5.286   1.334  -0.299  0.00  0.00    +0.110 A 
ATOM      7  C   LIG    1       -4.346   1.474   0.707  0.00  0.00    +0.010 A 
ATOM      8  C   LIG    1       -3.018   1.698   0.367  0.00  0.00    +0.350 A 
ATOM      9  N   LIG    1       -2.646   1.768  -0.900  0.00  0.00    -0.480 NA
ATOM     10  C   LIG    1       -3.512   1.635  -1.885  0.00  0.00    +0.280 A 
BRANCH   8  11
ATOM     11  N   LIG    1       -2.062   1.845   1.378  0.00  0.00    -0.330 N 
ATOM     12  N   LIG    1       -2.305   2.278   2.688  0.00  0.00    -0.290 NA
ATOM     13  C   LIG    1       -1.166   2.293   3.333  0.00  0.00    +0.090 A 
ATOM     14  C   LIG    1       -0.160   1.866   2.459  0.00  0.00    -0.110 A 
ATOM     15  C   LIG    1       -0.972   2.700   4.770  0.00  0.00    +0.170 C 
ATOM     16  C   LIG    1       -0.732   1.592   1.264  0.00  0.00    +0.110 A 
ATOM     17  C   LIG    1       -0.022   1.102   0.029  0.00  0.00    +0.150 C 
ENDBRANCH   8  11
ENDBRANCH   2   5
BRANCH   1  18
ATOM     18  C   LIG    1       -7.735   0.194  -3.721  0.00  0.00    +0.140 C 
BRANCH  18  25
ATOM     19  C   LIG    1       -9.952  -0.347  -2.682  0.00  0.00    +0.150 A 
ATOM     20  C   LIG    1      -10.937  -1.254  -2.320  0.00  0.00    -0.060 A 
ATOM     21  C   LIG    1      -10.776  -2.597  -2.604  0.00  0.00    +0.080 A 
ATOM     22  C   LIG    1       -9.633  -3.037  -3.248  0.00  0.00    -0.070 A 
ATOM     23  C   LIG    1       -8.652  -2.132  -3.615  0.00  0.00    +0.080 A 
ATOM     24 CL   LIG    1       -9.434  -4.724  -3.604  0.00  0.00    -0.070 Cl
ATOM     25  C   LIG    1       -8.807  -0.790  -3.328  0.00  0.00    -0.090 A 
BRANCH  19  27
ATOM     26  C   LIG    1      -11.312   1.358  -1.736  0.00  0.00    +0.250 C 
ATOM     27  O   LIG    1      -10.108   0.974  -2.404  0.00  0.00    -0.310 OA
ENDBRANCH  19  27
ENDBRANCH  18  25
ENDBRANCH   1  18
TORSDOF 5
