REMARK  Name = ZINCkj00000dDijQ.1
REMARK                            x       y       z     vdW  Elec       q    Type
REMARK                         _______ _______ _______ _____ _____    ______ ____
ROOT
ATOM      1  C   LIG    1        3.920   4.869  -0.221  0.00  0.00    +0.320 C 
ENDROOT
BRANCH   1   2
ATOM      2  C   LIG    1        2.920   3.731  -0.438  0.00  0.00    -0.030 C 
ATOM      3  C   LIG    1        3.347   2.513   0.386  0.00  0.00    +0.070 C 
ATOM      4  C   LIG    1        2.488   1.306  -0.013  0.00  0.00    +0.190 C 
ATOM      5  C   LIG    1        1.039   1.734   0.001  0.00  0.00    +0.300 C 
ATOM      6  N   LIG    1       -0.011   0.966   0.007  0.00  0.00    -0.470 N 
ATOM      7  C   LIG    1       -1.116   1.729   0.016  0.00  0.00    +0.230 C 
ATOM      8  C   LIG    1       -0.732   3.021   0.024  0.00  0.00    +0.250 C 
ATOM      9  H   LIG    1        0.002  -0.004   0.002  0.00  0.00    +0.460 HD
ATOM     10  N   LIG    1        0.631   3.025   0.011  0.00  0.00    -0.400 N 
ATOM     11  C   LIG    1        1.525   4.185   0.006  0.00  0.00    +0.340 C 
ENDBRANCH   1   2
BRANCH   1  13
ATOM     12  C   LIG    1        4.156   6.070  -2.444  0.00  0.00    +0.280 C 
ATOM     13  N   LIG    1        3.580   5.991  -1.100  0.00  0.00    -0.620 N 
ATOM     14  C   LIG    1        2.737   6.952  -0.670  0.00  0.00    +0.520 C 
ATOM     15  O   LIG    1        2.260   6.887   0.443  0.00  0.00    -0.530 OA
BRANCH  14  16
ATOM     16  C   LIG    1        2.387   8.106  -1.574  0.00  0.00    -0.040 C 
ATOM     17  C   LIG    1        1.417   9.046  -0.851  0.00  0.00    +0.050 C 
ATOM     18  C   LIG    1        1.009  10.172  -1.806  0.00  0.00    +0.000 C 
ATOM     19  C   LIG    1        0.395   9.563  -3.069  0.00  0.00    +0.210 C 
ATOM     20  O   LIG    1        1.337   8.676  -3.675  0.00  0.00    -0.370 OA
ATOM     21  C   LIG    1        1.722   7.576  -2.846  0.00  0.00    +0.220 C 
ENDBRANCH  14  16
ENDBRANCH   1  13
TORSDOF 3
