REMARK  Name = ZINCvU00000004no.0
REMARK                            x       y       z     vdW  Elec       q    Type
REMARK                         _______ _______ _______ _____ _____    ______ ____
ROOT
ATOM      1  C   LIG    1        1.257   2.133   0.002  0.00  0.00    -0.070 A 
ATOM      2  C   LIG    1        2.418   1.372  -0.027  0.00  0.00    +0.070 A 
ATOM      3  C   LIG    1        2.323  -0.028  -0.033  0.00  0.00    +0.190 A 
ATOM      4  N   LIG    1        1.166  -0.655  -0.012  0.00  0.00    -0.440 NA
ATOM      5  C   LIG    1        0.002  -0.004   0.016  0.00  0.00    +0.130 A 
ATOM      6  C   LIG    1       -1.220  -0.702   0.038  0.00  0.00    +0.050 A 
ATOM      7  C   LIG    1       -2.391  -0.009   0.067  0.00  0.00    +0.040 A 
ATOM      8  C   LIG    1       -2.404   1.383   0.075  0.00  0.00    +0.030 A 
ATOM      9  C   LIG    1       -1.239   2.093   0.060  0.00  0.00    +0.050 A 
ATOM     10  C   LIG    1       -0.017   1.414   0.024  0.00  0.00    -0.060 A 
ENDROOT
BRANCH   3  11
ATOM     11  C   LIG    1        3.571  -0.829  -0.063  0.00  0.00    -0.040 A 
ATOM     12  C   LIG    1        4.810  -0.193  -0.091  0.00  0.00    +0.050 A 
ATOM     13  C   LIG    1        5.968  -0.943  -0.113  0.00  0.00    +0.050 A 
ATOM     14  C   LIG    1        5.900  -2.325  -0.119  0.00  0.00    -0.080 A 
ATOM     15  C   LIG    1        4.671  -2.963  -0.097  0.00  0.00    +0.040 A 
ATOM     16 BR   LIG    1        7.491  -3.347  -0.157  0.00  0.00    -0.040 Br
ATOM     17  C   LIG    1        3.507  -2.222  -0.069  0.00  0.00    +0.080 A 
ENDBRANCH   3  11
BRANCH   1  18
ATOM     18  C   LIG    1        1.307   3.610   0.009  0.00  0.00    +0.520 C 
ATOM     19  O   LIG    1        0.279   4.252  -0.071  0.00  0.00    -0.490 OA
BRANCH  18  20
ATOM     20  O   LIG    1        2.492   4.244   0.103  0.00  0.00    -0.330 OA
BRANCH  20  21
ATOM     21  C   LIG    1        2.464   5.696   0.104  0.00  0.00    +0.260 C 
BRANCH  21  23
ATOM     22  O   LIG    1        4.805   5.454   0.287  0.00  0.00    -0.410 OA
ATOM     23  C   LIG    1        3.871   6.224   0.215  0.00  0.00    +0.400 C 
BRANCH  23  24
ATOM     24  C   LIG    1        4.112   7.675   0.237  0.00  0.00    -0.150 A 
ATOM     25  C   LIG    1        5.416   8.169   0.341  0.00  0.00    +0.130 A 
ATOM     26  C   LIG    1        5.636   9.529   0.360  0.00  0.00    +0.030 A 
ATOM     27  C   LIG    1        4.568  10.409   0.278  0.00  0.00    +0.110 A 
ATOM     28  C   LIG    1        3.269   9.926   0.176  0.00  0.00    +0.060 A 
ATOM     29  F   LIG    1        2.233  10.789   0.097  0.00  0.00    -0.120 F 
ATOM     30  F   LIG    1        4.791  11.741   0.299  0.00  0.00    -0.120 F 
ATOM     31  C   LIG    1        3.037   8.567   0.149  0.00  0.00    +0.080 A 
ENDBRANCH  23  24
ENDBRANCH  21  23
ENDBRANCH  20  21
ENDBRANCH  18  20
ENDBRANCH   1  18
TORSDOF 6
