REMARK  Name = ZINCtV00000lwQzc.0
REMARK                            x       y       z     vdW  Elec       q    Type
REMARK                         _______ _______ _______ _____ _____    ______ ____
ROOT
ATOM      1  N   LIG    1       -1.675  -3.418  -0.217  0.00  0.00    -0.610 N 
ATOM      2  H   LIG    1       -1.573  -4.240   0.288  0.00  0.00    +0.410 HD
ENDROOT
BRANCH   1  15
ATOM      3  C   LIG    1        0.655  -3.184  -0.822  0.00  0.00    +0.120 A 
ATOM      4  C   LIG    1        1.755  -2.385  -1.064  0.00  0.00    -0.010 A 
ATOM      5  C   LIG    1        1.643  -1.001  -0.948  0.00  0.00    -0.070 A 
ATOM      6  C   LIG    1        0.422  -0.416  -0.588  0.00  0.00    +0.060 A 
ATOM      7  O   LIG    1        0.585   0.926  -0.548  0.00  0.00    -0.190 OA
ATOM      8  C   LIG    1        1.851   1.282  -0.862  0.00  0.00    +0.090 A 
ATOM      9  C   LIG    1        2.480   2.517  -0.952  0.00  0.00    +0.020 A 
ATOM     10  C   LIG    1        3.812   2.590  -1.302  0.00  0.00    +0.060 A 
ATOM     11  C   LIG    1        4.537   1.439  -1.566  0.00  0.00    -0.010 A 
ATOM     12  C   LIG    1        3.929   0.204  -1.481  0.00  0.00    +0.070 A 
ATOM     13  C   LIG    1       -0.677  -1.230  -0.347  0.00  0.00    +0.140 A 
ATOM     14  C   LIG    1        2.586   0.119  -1.129  0.00  0.00    -0.130 A 
ATOM     15  C   LIG    1       -0.563  -2.604  -0.462  0.00  0.00    +0.130 A 
BRANCH   3  17
ATOM     16  C   LIG    1        2.036  -5.061  -1.304  0.00  0.00    +0.250 C 
ATOM     17  O   LIG    1        0.759  -4.536  -0.933  0.00  0.00    -0.320 OA
ENDBRANCH   3  17
ENDBRANCH   1  15
BRANCH   1  18
ATOM     18  C   LIG    1       -2.888  -3.059  -0.682  0.00  0.00    +0.550 C 
ATOM     19  S   LIG    1       -3.053  -1.660  -1.654  0.00  0.00    -0.590 S 
BRANCH  18  20
ATOM     20  N   LIG    1       -3.972  -3.803  -0.382  0.00  0.00    -0.620 N 
ATOM     21  H   LIG    1       -3.896  -4.540   0.244  0.00  0.00    +0.410 HD
BRANCH  20  22
ATOM     22  C   LIG    1       -5.208  -3.510  -0.972  0.00  0.00    +0.100 A 
ATOM     23  C   LIG    1       -6.367  -3.538  -0.208  0.00  0.00    +0.050 A 
ATOM     24  C   LIG    1       -7.584  -3.244  -0.790  0.00  0.00    -0.040 A 
ATOM     25  C   LIG    1       -7.651  -2.931  -2.140  0.00  0.00    +0.110 A 
ATOM     26  C   LIG    1       -6.494  -2.908  -2.905  0.00  0.00    +0.020 A 
ATOM     27  C   LIG    1       -5.275  -3.197  -2.323  0.00  0.00    +0.110 A 
BRANCH  25  28
ATOM     28  O   LIG    1       -8.851  -2.648  -2.713  0.00  0.00    -0.320 OA
BRANCH  28  29
ATOM     29  C   LIG    1      -10.001  -2.690  -1.867  0.00  0.00    +0.590 C 
ATOM     30  F   LIG    1       -9.851  -1.762  -0.830  0.00  0.00    -0.200 F 
ATOM     31  F   LIG    1      -10.136  -3.974  -1.327  0.00  0.00    -0.200 F 
ENDBRANCH  28  29
ENDBRANCH  25  28
ENDBRANCH  20  22
ENDBRANCH  18  20
ENDBRANCH   1  18
TORSDOF 7
