REMARK  Name = ZINCrD000000CyPn.0
REMARK                            x       y       z     vdW  Elec       q    Type
REMARK                         _______ _______ _______ _____ _____    ______ ____
ROOT
ATOM      1  O   LIG    1        3.639  -7.350   4.144  0.00  0.00    -0.510 OA
ATOM      2  C   LIG    1        4.123  -6.588   3.329  0.00  0.00    +0.560 C 
ATOM      3  N   LIG    1        3.509  -6.388   2.147  0.00  0.00    -0.600 N 
ATOM      4  C   LIG    1        2.304  -7.149   1.783  0.00  0.00    +0.300 C 
ATOM      5  C   LIG    1        2.516  -7.761   0.394  0.00  0.00    +0.170 C 
ATOM      6  N   LIG    1        2.891  -6.702  -0.552  0.00  0.00    -0.530 NA
ATOM      7  C   LIG    1        4.170  -6.083  -0.180  0.00  0.00    +0.160 C 
ATOM      8  C   LIG    1        4.026  -5.402   1.185  0.00  0.00    +0.280 C 
ENDROOT
BRANCH   2   9
ATOM      9  C   LIG    1        5.383  -5.883   3.636  0.00  0.00    -0.100 A 
ATOM     10  C   LIG    1        5.451  -4.491   3.531  0.00  0.00    +0.070 A 
ATOM     11  C   LIG    1        6.631  -3.837   3.819  0.00  0.00    +0.070 A 
ATOM     12  C   LIG    1        7.750  -4.560   4.212  0.00  0.00    +0.110 A 
ATOM     13  C   LIG    1        7.688  -5.940   4.318  0.00  0.00    +0.050 A 
ATOM     14  F   LIG    1        8.903  -3.914   4.493  0.00  0.00    -0.110 F 
ATOM     15  F   LIG    1        6.699  -2.492   3.718  0.00  0.00    -0.120 F 
ATOM     16  C   LIG    1        6.511  -6.604   4.038  0.00  0.00    +0.020 A 
ATOM     17 CL   LIG    1        6.433  -8.332   4.178  0.00  0.00    -0.020 Cl
ENDBRANCH   2   9
BRANCH   6  18
ATOM     18  C   LIG    1        2.936  -7.217  -1.928  0.00  0.00    +0.240 C 
BRANCH  18  19
ATOM     19  C   LIG    1        3.079  -6.066  -2.890  0.00  0.00    -0.070 A 
ATOM     20  C   LIG    1        1.952  -5.451  -3.402  0.00  0.00    +0.060 A 
ATOM     21  C   LIG    1        2.079  -4.395  -4.286  0.00  0.00    +0.040 A 
ATOM     22  C   LIG    1        3.336  -3.950  -4.660  0.00  0.00    +0.030 A 
ATOM     23  O   LIG    1        3.729  -2.948  -5.499  0.00  0.00    -0.310 OA
ATOM     24  C   LIG    1        5.109  -2.696  -5.175  0.00  0.00    +0.430 C 
ATOM     25  O   LIG    1        5.576  -3.956  -4.659  0.00  0.00    -0.310 OA
ATOM     26  C   LIG    1        4.472  -4.570  -4.143  0.00  0.00    +0.030 A 
ATOM     27  C   LIG    1        4.338  -5.628  -3.259  0.00  0.00    +0.030 A 
ENDBRANCH  18  19
ENDBRANCH   6  18
TORSDOF 3
