REMARK  Name = ZINCvU0000000BiJ.0
REMARK                            x       y       z     vdW  Elec       q    Type
REMARK                         _______ _______ _______ _____ _____    ______ ____
ROOT
ATOM      1  N   LIG    1        1.247  -0.413  -0.030  0.00  0.00    -0.450 N 
ATOM      2  C   LIG    1       -0.037   0.050   0.028  0.00  0.00    +0.150 A 
ATOM      3  N   LIG    1        0.024   1.363   0.041  0.00  0.00    -0.290 NA
ATOM      4  N   LIG    1        1.248   1.749  -0.005  0.00  0.00    -0.260 NA
ATOM      5  C   LIG    1        2.045   0.707  -0.049  0.00  0.00    +0.230 A 
ENDROOT
BRANCH   5   6
ATOM      6  C   LIG    1        3.522   0.733  -0.110  0.00  0.00    -0.020 A 
ATOM      7  C   LIG    1        4.225  -0.391  -0.548  0.00  0.00    +0.030 A 
ATOM      8  C   LIG    1        5.603  -0.359  -0.608  0.00  0.00    +0.040 A 
ATOM      9  C   LIG    1        6.289   0.780  -0.223  0.00  0.00    -0.020 A 
ATOM     10  C   LIG    1        5.598   1.897   0.217  0.00  0.00    +0.030 A 
ATOM     11 CL   LIG    1        8.024   0.810  -0.294  0.00  0.00    -0.060 Cl
ATOM     12  C   LIG    1        4.220   1.879   0.276  0.00  0.00    +0.090 A 
ENDBRANCH   5   6
BRANCH   1  13
ATOM     13  C   LIG    1        1.683  -1.811  -0.063  0.00  0.00    +0.330 C 
BRANCH  13  14
ATOM     14  C   LIG    1        1.699  -2.306  -1.511  0.00  0.00    +0.170 C 
BRANCH  14  16
ATOM     15  C   LIG    1        2.175  -4.231  -2.857  0.00  0.00    +0.230 C 
ATOM     16  O   LIG    1        2.124  -3.670  -1.544  0.00  0.00    -0.380 OA
ENDBRANCH  14  16
ENDBRANCH  13  14
ENDBRANCH   1  13
BRANCH   2  17
ATOM     17  S   LIG    1       -1.500  -0.930   0.076  0.00  0.00    +0.090 S 
BRANCH  17  18
ATOM     18  C   LIG    1       -2.751   0.377   0.142  0.00  0.00    +0.110 C 
BRANCH  18  19
ATOM     19  C   LIG    1       -4.123  -0.244   0.191  0.00  0.00    +0.540 C 
ATOM     20  N   LIG    1       -5.217   0.542   0.244  0.00  0.00    -0.720 N 
ATOM     21  H   LIG    1       -5.121   1.508   0.252  0.00  0.00    +0.400 HD
ATOM     22  O   LIG    1       -4.244  -1.450   0.181  0.00  0.00    -0.520 OA
BRANCH  20  23
ATOM     23  C   LIG    1       -6.551  -0.061   0.291  0.00  0.00    +0.290 C 
ATOM     24  C   LIG    1       -7.022  -0.368  -1.131  0.00  0.00    +0.040 C 
BRANCH  23  25
ATOM     25  C   LIG    1       -7.514   0.898   0.943  0.00  0.00    -0.080 A 
ATOM     26  C   LIG    1       -7.255   2.256   0.924  0.00  0.00    +0.050 A 
ATOM     27  C   LIG    1       -8.141   3.137   1.516  0.00  0.00    +0.050 A 
ATOM     28  C   LIG    1       -9.280   2.659   2.139  0.00  0.00    -0.020 A 
ATOM     29  C   LIG    1       -9.536   1.300   2.164  0.00  0.00    +0.050 A 
ATOM     30 CL   LIG    1      -10.388   3.765   2.889  0.00  0.00    -0.050 Cl
ATOM     31  C   LIG    1       -8.653   0.419   1.566  0.00  0.00    -0.020 A 
ATOM     32 CL   LIG    1       -8.973  -1.287   1.596  0.00  0.00    -0.040 Cl
ENDBRANCH  23  25
ENDBRANCH  20  23
ENDBRANCH  18  19
ENDBRANCH  17  18
ENDBRANCH   2  17
TORSDOF 9
