REMARK  Name = ZINCpk000000nNRs.0
REMARK                            x       y       z     vdW  Elec       q    Type
REMARK                         _______ _______ _______ _____ _____    ______ ____
ROOT
ATOM      1  C   LIG    1        1.321   1.638   0.011  0.00  0.00    +0.170 C 
ENDROOT
BRANCH   1   2
ATOM      2  C   LIG    1        1.990   1.116   1.256  0.00  0.00    +0.520 C 
ATOM      3  N   LIG    1        1.577   1.533   2.469  0.00  0.00    -0.610 N 
ATOM      4  C   LIG    1        0.418   2.430   2.604  0.00  0.00    +0.280 C 
ATOM      5  C   LIG    1       -0.547   1.818   3.632  0.00  0.00    +0.170 C 
ATOM      6  N   LIG    1        0.180   1.550   4.880  0.00  0.00    -0.530 NA
ATOM      7  C   LIG    1        1.240   0.554   4.676  0.00  0.00    +0.170 C 
ATOM      8  C   LIG    1        2.275   1.109   3.691  0.00  0.00    +0.300 C 
ATOM      9  O   LIG    1        2.901   0.320   1.166  0.00  0.00    -0.510 OA
BRANCH   6  10
ATOM     10  C   LIG    1       -0.740   1.129   5.945  0.00  0.00    +0.140 C 
BRANCH  10  11
ATOM     11  C   LIG    1       -1.959   2.053   5.961  0.00  0.00    +0.200 C 
ATOM     12  C   LIG    1       -2.917   1.615   7.070  0.00  0.00    +0.010 C 
BRANCH  11  13
ATOM     13  O   LIG    1       -1.535   3.396   6.202  0.00  0.00    -0.550 OA
ATOM     14  H   LIG    1       -1.073   3.518   7.043  0.00  0.00    +0.380 HD
ENDBRANCH  11  13
ENDBRANCH  10  11
ENDBRANCH   6  10
ENDBRANCH   1   2
BRANCH   1  16
ATOM     15  C   LIG    1       -0.534   1.250  -1.619  0.00  0.00    +0.040 C 
ATOM     16  C   LIG    1        0.228   0.662  -0.429  0.00  0.00    -0.020 C 
ATOM     17  C   LIG    1       -0.742   0.426   0.731  0.00  0.00    +0.030 C 
ENDBRANCH   1  16
BRANCH   1  18
ATOM     18  O   LIG    1        2.289   1.769  -1.032  0.00  0.00    -0.280 OA
BRANCH  18  19
ATOM     19  C   LIG    1        2.129   2.803  -1.896  0.00  0.00    +0.180 A 
ATOM     20  C   LIG    1        1.121   3.732  -1.690  0.00  0.00    -0.070 A 
ATOM     21  C   LIG    1        0.961   4.787  -2.568  0.00  0.00    +0.090 A 
ATOM     22  C   LIG    1        1.798   4.919  -3.663  0.00  0.00    -0.020 A 
ATOM     23  C   LIG    1        2.802   4.002  -3.886  0.00  0.00    +0.110 A 
ATOM     24  C   LIG    1        2.978   2.933  -3.004  0.00  0.00    -0.060 A 
BRANCH  24  25
ATOM     25  C   LIG    1        4.019   1.977  -3.229  0.00  0.00    +0.260 C 
ATOM     26  N   LIG    1        4.846   1.218  -3.408  0.00  0.00    -0.410 NA
ENDBRANCH  24  25
ENDBRANCH  18  19
ENDBRANCH   1  18
TORSDOF 8
