REMARK  Name = ZINCpe00000MHjXi.0
REMARK                            x       y       z     vdW  Elec       q    Type
REMARK                         _______ _______ _______ _____ _____    ______ ____
ROOT
ATOM      1  N   LIG    1        1.839   4.836   1.798  0.00  0.00    -0.560 N 
ATOM      2  C   LIG    1        0.501   4.804   1.808  0.00  0.00    +0.710 C 
ATOM      3  N   LIG    1       -0.003   4.090   0.786  0.00  0.00    -0.720 N 
ATOM      4  H   LIG    1       -0.942   3.933   0.596  0.00  0.00    +0.440 HD
ATOM      5  C   LIG    1        1.147   3.594   0.010  0.00  0.00    +0.170 C 
ATOM      6  C   LIG    1        1.107   4.138  -1.419  0.00  0.00    +0.110 C 
ATOM      7  O   LIG    1       -0.181   5.358   2.647  0.00  0.00    -0.530 OA
ATOM      8  C   LIG    1        2.347   4.142   0.756  0.00  0.00    +0.540 C 
ATOM      9  O   LIG    1        3.516   3.986   0.477  0.00  0.00    -0.450 OA
ENDROOT
BRANCH   5  10
ATOM     10  C   LIG    1        1.170   2.087   0.002  0.00  0.00    -0.080 A 
ATOM     11  C   LIG    1       -0.017   1.378   0.010  0.00  0.00    +0.060 A 
ATOM     12  C   LIG    1        0.002  -0.004   0.002  0.00  0.00    +0.030 A 
ATOM     13  C   LIG    1        1.210  -0.679  -0.013  0.00  0.00    +0.080 A 
ATOM     14  C   LIG    1        2.400   0.032  -0.021  0.00  0.00    +0.080 A 
ATOM     15  F   LIG    1        3.580  -0.626  -0.036  0.00  0.00    -0.120 F 
ATOM     16  F   LIG    1        1.229  -2.030  -0.021  0.00  0.00    -0.120 F 
ATOM     17  C   LIG    1        2.378   1.415  -0.013  0.00  0.00    +0.050 A 
ENDBRANCH   5  10
BRANCH   1  18
ATOM     18  C   LIG    1        2.653   5.540   2.793  0.00  0.00    +0.360 C 
BRANCH  18  21
ATOM     19  N   LIG    1        3.708   5.040   4.974  0.00  0.00    -0.720 N 
ATOM     20  H   LIG    1        4.040   5.952   4.986  0.00  0.00    +0.410 HD
ATOM     21  C   LIG    1        2.966   4.608   3.935  0.00  0.00    +0.500 C 
ATOM     22  O   LIG    1        2.550   3.469   3.920  0.00  0.00    -0.530 OA
BRANCH  19  23
ATOM     23  C   LIG    1        4.012   4.135   6.084  0.00  0.00    +0.250 C 
ATOM     24  C   LIG    1        2.859   4.155   7.089  0.00  0.00    +0.040 C 
BRANCH  23  25
ATOM     25  C   LIG    1        5.299   4.589   6.775  0.00  0.00    +0.180 C 
BRANCH  25  27
ATOM     26  C   LIG    1        6.237   6.387   8.053  0.00  0.00    +0.200 C 
ATOM     27  O   LIG    1        5.090   5.869   7.377  0.00  0.00    -0.390 OA
ENDBRANCH  25  27
ENDBRANCH  23  25
ENDBRANCH  19  23
ENDBRANCH  18  21
ENDBRANCH   1  18
TORSDOF 6
