REMARK  Name = ZINCpk00000e9DTf.0
REMARK                            x       y       z     vdW  Elec       q    Type
REMARK                         _______ _______ _______ _____ _____    ______ ____
ROOT
ATOM      1  C   LIG    1        4.011   0.530   1.413  0.00  0.00    -0.010 C 
ATOM      2  C   LIG    1        3.673   1.845   2.118  0.00  0.00    +0.030 C 
ATOM      3  C   LIG    1        4.177   1.788   3.564  0.00  0.00    +0.310 C 
ATOM      4  N   LIG    1        5.609   1.462   3.553  0.00  0.00    -0.590 N 
ATOM      5  C   LIG    1        6.055   0.266   2.825  0.00  0.00    +0.280 C 
ATOM      6  C   LIG    1        5.530   0.339   1.387  0.00  0.00    +0.040 C 
ENDROOT
BRANCH   4   7
ATOM      7  C   LIG    1        6.514   2.258   4.210  0.00  0.00    +0.640 A 
ATOM      8  N   LIG    1        6.098   3.377   4.756  0.00  0.00    -0.550 NA
ATOM      9  C   LIG    1        6.951   4.188   5.411  0.00  0.00    +0.340 A 
ATOM     10  C   LIG    1        8.299   3.828   5.509  0.00  0.00    -0.190 A 
ATOM     11  N   LIG    1        8.916   4.836   6.223  0.00  0.00    -0.430 N 
ATOM     12  C   LIG    1        7.966   5.745   6.528  0.00  0.00    +0.490 A 
ATOM     13  C   LIG    1       10.335   4.906   6.581  0.00  0.00    +0.340 C 
ATOM     14  C   LIG    1        8.729   2.627   4.920  0.00  0.00    +0.590 A 
ATOM     15  O   LIG    1        9.897   2.282   4.986  0.00  0.00    -0.540 OA
ATOM     16  N   LIG    1        6.813   5.362   6.050  0.00  0.00    -0.490 NA
ATOM     17  N   LIG    1        7.816   1.860   4.282  0.00  0.00    -0.650 N 
ATOM     18  H   LIG    1        8.089   1.025   3.871  0.00  0.00    +0.420 HD
ENDBRANCH   4   7
BRANCH   1  19
ATOM     19  C   LIG    1        3.479   0.569  -0.021  0.00  0.00    +0.200 C 
BRANCH  19  23
ATOM     20  C   LIG    1       -0.037   1.291   0.044  0.00  0.00    +0.170 A 
ATOM     21  N   LIG    1       -0.013  -0.008   0.028  0.00  0.00    -0.380 NA
ATOM     22  O   LIG    1        1.133  -0.406   0.004  0.00  0.00    +0.080 OA
ATOM     23  C   LIG    1        1.973   0.633   0.004  0.00  0.00    +0.180 A 
ATOM     24  N   LIG    1        1.238   1.718   0.029  0.00  0.00    -0.470 NA
BRANCH  20  26
ATOM     25  C   LIG    1       -1.669   2.436   1.520  0.00  0.00    +0.040 C 
ATOM     26  C   LIG    1       -1.269   2.160   0.070  0.00  0.00    +0.160 C 
ENDBRANCH  20  26
ENDBRANCH  19  23
ENDBRANCH   1  19
TORSDOF 4
