REMARK  Name = ZINCrH000004sFiY.0
REMARK                            x       y       z     vdW  Elec       q    Type
REMARK                         _______ _______ _______ _____ _____    ______ ____
ROOT
ATOM      1  C   LIG    1        3.989   5.130  -1.444  0.00  0.00    +0.260 C 
ENDROOT
BRANCH   1   7
ATOM      2  C   LIG    1        2.336   7.329  -3.017  0.00  0.00    +0.160 C 
ATOM      3  C   LIG    1        3.489   6.529  -3.566  0.00  0.00    +0.110 A 
ATOM      4  N   LIG    1        3.981   6.623  -4.775  0.00  0.00    -0.290 NA
ATOM      5  N   LIG    1        5.041   5.714  -4.889  0.00  0.00    -0.330 N 
ATOM      6  C   LIG    1        5.170   5.076  -3.704  0.00  0.00    +0.230 A 
ATOM      7  C   LIG    1        4.218   5.558  -2.871  0.00  0.00    -0.210 A 
BRANCH   5   8
ATOM      8  C   LIG    1        5.831   5.507  -6.028  0.00  0.00    +0.200 A 
ATOM      9  C   LIG    1        5.591   6.239  -7.183  0.00  0.00    +0.020 A 
ATOM     10  C   LIG    1        6.372   6.034  -8.305  0.00  0.00    +0.080 A 
ATOM     11  C   LIG    1        7.391   5.100  -8.279  0.00  0.00    -0.030 A 
ATOM     12  C   LIG    1        7.633   4.368  -7.128  0.00  0.00    +0.130 A 
ATOM     13  F   LIG    1        8.630   3.457  -7.105  0.00  0.00    -0.130 F 
ATOM     14  C   LIG    1        6.858   4.574  -6.001  0.00  0.00    -0.040 A 
ENDBRANCH   5   8
ENDBRANCH   1   7
BRANCH   1  15
ATOM     15  N   LIG    1        2.864   4.188  -1.391  0.00  0.00    -0.530 NA
ATOM     16  C   LIG    1        3.192   2.935  -2.083  0.00  0.00    +0.190 C 
BRANCH  15  17
ATOM     17  C   LIG    1        2.458   3.931  -0.002  0.00  0.00    +0.240 C 
BRANCH  17  18
ATOM     18  C   LIG    1        1.160   3.164   0.008  0.00  0.00    -0.070 A 
ATOM     19  C   LIG    1        1.175   1.783   0.000  0.00  0.00    +0.020 A 
ATOM     20  C   LIG    1       -0.013   1.076   0.008  0.00  0.00    +0.020 A 
ATOM     21  C   LIG    1       -1.223   1.752   0.017  0.00  0.00    +0.050 A 
ATOM     22  O   LIG    1       -2.385   1.043   0.023  0.00  0.00    -0.310 OA
ATOM     23  C   LIG    1       -3.568   1.746   0.416  0.00  0.00    +0.220 C 
ATOM     24  C   LIG    1       -3.590   3.095  -0.316  0.00  0.00    +0.220 C 
ATOM     25  O   LIG    1       -2.415   3.825   0.054  0.00  0.00    -0.310 OA
ATOM     26  C   LIG    1       -1.238   3.142   0.033  0.00  0.00    +0.050 A 
ATOM     27  C   LIG    1       -0.043   3.845   0.025  0.00  0.00    +0.050 A 
ENDBRANCH  17  18
ENDBRANCH  15  17
ENDBRANCH   1  15
TORSDOF 5
