REMARK  Name = ZINCqH0000007vlW.0
REMARK                            x       y       z     vdW  Elec       q    Type
REMARK                         _______ _______ _______ _____ _____    ______ ____
ROOT
ATOM      1  C   LIG    1        2.153   6.344  -0.061  0.00  0.00    +0.510 C 
ATOM      2  N   LIG    1        2.955   6.944   0.841  0.00  0.00    -0.730 N 
ATOM      3  H   LIG    1        3.551   7.656   0.562  0.00  0.00    +0.400 HD
ATOM      4  O   LIG    1        1.407   5.454   0.287  0.00  0.00    -0.530 OA
ENDROOT
BRANCH   1   5
ATOM      5  C   LIG    1        2.183   6.781  -1.503  0.00  0.00    +0.140 C 
BRANCH   5  13
ATOM      6  C   LIG    1       -2.428   7.183  -2.319  0.00  0.00    +0.100 A 
ATOM      7  C   LIG    1       -2.918   6.167  -3.135  0.00  0.00    -0.050 A 
ATOM      8  C   LIG    1       -2.080   5.184  -3.611  0.00  0.00    +0.030 A 
ATOM      9  C   LIG    1       -0.730   5.199  -3.278  0.00  0.00    +0.070 A 
ATOM     10  N   LIG    1        0.332   4.377  -3.589  0.00  0.00    -0.590 N 
ATOM     11  H   LIG    1        0.279   3.585  -4.147  0.00  0.00    +0.420 HD
ATOM     12  C   LIG    1        1.473   4.848  -2.999  0.00  0.00    +0.250 A 
ATOM     13  C   LIG    1        1.200   5.959  -2.297  0.00  0.00    -0.160 A 
ATOM     14  C   LIG    1       -0.233   6.222  -2.450  0.00  0.00    -0.050 A 
ATOM     15  C   LIG    1       -1.093   7.211  -1.969  0.00  0.00    +0.020 A 
BRANCH   6  17
ATOM     16  C   LIG    1       -4.641   8.052  -2.249  0.00  0.00    +0.230 C 
ATOM     17  O   LIG    1       -3.270   8.146  -1.857  0.00  0.00    -0.320 OA
ENDBRANCH   6  17
ENDBRANCH   5  13
ENDBRANCH   1   5
BRANCH   2  18
ATOM     18  C   LIG    1        2.925   6.519   2.243  0.00  0.00    +0.300 C 
BRANCH  18  19
ATOM     19  C   LIG    1        3.911   7.365   3.052  0.00  0.00    -0.110 C 
ATOM     20  C   LIG    1        3.416   7.953   4.376  0.00  0.00    +0.050 C 
ATOM     21  C   LIG    1        3.628   8.865   3.165  0.00  0.00    +0.040 C 
BRANCH  19  22
ATOM     22  C   LIG    1        5.352   6.933   2.978  0.00  0.00    -0.080 A 
ATOM     23  C   LIG    1        6.291   7.754   2.384  0.00  0.00    +0.040 A 
ATOM     24  C   LIG    1        7.615   7.361   2.321  0.00  0.00    +0.000 A 
ATOM     25  C   LIG    1        7.999   6.139   2.842  0.00  0.00    +0.040 A 
ATOM     26  C   LIG    1        7.061   5.313   3.432  0.00  0.00    -0.010 A 
ATOM     27  C   LIG    1        5.736   5.709   3.501  0.00  0.00    +0.110 A 
ATOM     28  F   LIG    1        4.819   4.903   4.078  0.00  0.00    -0.130 F 
ENDBRANCH  19  22
ENDBRANCH  18  19
ENDBRANCH   2  18
TORSDOF 6
