REMARK  Name = ZINCrH00000No52h.0
REMARK                            x       y       z     vdW  Elec       q    Type
REMARK                         _______ _______ _______ _____ _____    ______ ____
ROOT
ATOM      1  N   LIG    1       -2.071  -4.425   0.991  0.00  0.00    -0.480 N 
ATOM      2  C   LIG    1       -3.127  -3.415   1.146  0.00  0.00    +0.190 C 
ATOM      3  C   LIG    1       -3.012  -2.384   0.018  0.00  0.00    +0.300 C 
ATOM      4  N   LIG    1       -1.640  -1.854   0.008  0.00  0.00    -0.610 N 
ATOM      5  C   LIG    1       -0.524  -2.812  -0.014  0.00  0.00    +0.290 C 
ATOM      6  C   LIG    1       -1.412  -0.526   0.013  0.00  0.00    +0.530 C 
ATOM      7  O   LIG    1       -2.344   0.250   0.026  0.00  0.00    -0.510 OA
ATOM      8  C   LIG    1       -0.737  -3.826   1.121  0.00  0.00    +0.190 C 
ENDROOT
BRANCH   1  12
ATOM      9  C   LIG    1       -2.579  -7.545   3.709  0.00  0.00    +0.110 A 
ATOM     10  C   LIG    1       -1.514  -7.566   2.820  0.00  0.00    +0.000 A 
ATOM     11  C   LIG    1       -1.345  -6.533   1.919  0.00  0.00    +0.030 A 
ATOM     12  C   LIG    1       -2.242  -5.473   1.903  0.00  0.00    +0.070 A 
ATOM     13  C   LIG    1       -3.305  -5.449   2.797  0.00  0.00    +0.000 A 
ATOM     14  C   LIG    1       -3.475  -6.486   3.693  0.00  0.00    -0.050 A 
BRANCH   9  16
ATOM     15  C   LIG    1       -3.863  -8.476   5.481  0.00  0.00    +0.240 C 
ATOM     16  O   LIG    1       -2.745  -8.563   4.595  0.00  0.00    -0.320 OA
ENDBRANCH   9  16
ENDBRANCH   1  12
BRANCH   6  17
ATOM     17  C   LIG    1        0.002  -0.004   0.002  0.00  0.00    +0.090 C 
BRANCH  17  18
ATOM     18  S   LIG    1       -0.022   1.810   0.012  0.00  0.00    -0.170 S 
BRANCH  18  19
ATOM     19  C   LIG    1        1.739   2.242  -0.003  0.00  0.00    +0.100 C 
BRANCH  19  20
ATOM     20  C   LIG    1        1.889   3.741   0.004  0.00  0.00    -0.010 C 
ATOM     21  C   LIG    1        2.447   4.347   1.043  0.00  0.00    +0.030 C 
BRANCH  21  22
ATOM     22  C   LIG    1        2.594   5.818   1.049  0.00  0.00    -0.060 A 
ATOM     23  C   LIG    1        2.151   6.571  -0.039  0.00  0.00    +0.020 A 
ATOM     24  C   LIG    1        2.284   7.944  -0.024  0.00  0.00    +0.000 A 
ATOM     25  C   LIG    1        2.868   8.573   1.062  0.00  0.00    +0.000 A 
ATOM     26  C   LIG    1        3.315   7.832   2.140  0.00  0.00    +0.000 A 
ATOM     27  C   LIG    1        3.181   6.459   2.141  0.00  0.00    +0.010 A 
ENDBRANCH  21  22
ENDBRANCH  19  20
ENDBRANCH  18  19
ENDBRANCH  17  18
ENDBRANCH   6  17
TORSDOF 7
