REMARK  Name = ZINCpk00000KfKN4.0
REMARK                            x       y       z     vdW  Elec       q    Type
REMARK                         _______ _______ _______ _____ _____    ______ ____
ROOT
ATOM      1  C   LIG    1       -3.581  -0.044   4.500  0.00  0.00    +0.520 C 
ATOM      2  N   LIG    1       -4.567  -0.742   5.098  0.00  0.00    -0.730 N 
ATOM      3  H   LIG    1       -5.351  -1.006   4.591  0.00  0.00    +0.400 HD
ATOM      4  O   LIG    1       -2.602   0.286   5.134  0.00  0.00    -0.490 OA
ENDROOT
BRANCH   1   5
ATOM      5  C   LIG    1       -3.696   0.325   3.043  0.00  0.00    +0.110 C 
BRANCH   5   6
ATOM      6  C   LIG    1       -2.471   1.097   2.623  0.00  0.00    +0.340 C 
ATOM      7  O   LIG    1       -1.832   1.709   3.444  0.00  0.00    -0.360 OA
BRANCH   6   8
ATOM      8  C   LIG    1       -2.045   1.104   1.178  0.00  0.00    +0.150 C 
BRANCH   8  10
ATOM      9  C   LIG    1       -2.554   2.023  -1.089  0.00  0.00    +0.040 C 
ATOM     10  C   LIG    1       -2.897   2.108   0.399  0.00  0.00    +0.040 C 
ENDBRANCH   8  10
BRANCH   8  11
ATOM     11  O   LIG    1       -0.668   1.478   1.089  0.00  0.00    -0.360 OA
ATOM     12  C   LIG    1        0.240   0.379   1.183  0.00  0.00    +0.200 C 
ENDBRANCH   8  11
ENDBRANCH   6   8
ENDBRANCH   5   6
BRANCH   5  13
ATOM     13  C   LIG    1       -4.893   1.157   2.841  0.00  0.00    +0.200 C 
ATOM     14  N   LIG    1       -5.817   1.799   2.685  0.00  0.00    -0.370 NA
ENDBRANCH   5  13
ENDBRANCH   1   5
BRANCH   2  15
ATOM     15  C   LIG    1       -4.456  -1.101   6.514  0.00  0.00    +0.270 C 
BRANCH  15  16
ATOM     16  C   LIG    1       -5.699  -1.884   6.941  0.00  0.00    +0.070 C 
BRANCH  16  17
ATOM     17  C   LIG    1       -5.584  -2.253   8.397  0.00  0.00    -0.080 A 
ATOM     18  C   LIG    1       -4.995  -3.450   8.761  0.00  0.00    +0.020 A 
ATOM     19  C   LIG    1       -4.884  -3.791  10.096  0.00  0.00    -0.030 A 
ATOM     20  C   LIG    1       -5.372  -2.938  11.072  0.00  0.00    +0.100 A 
ATOM     21  C   LIG    1       -5.970  -1.736  10.706  0.00  0.00    +0.100 A 
ATOM     22  C   LIG    1       -6.074  -1.397   9.367  0.00  0.00    -0.030 A 
BRANCH  21  23
ATOM     23  O   LIG    1       -6.450  -0.895  11.660  0.00  0.00    -0.310 OA
ATOM     24  C   LIG    1       -7.050   0.322  11.211  0.00  0.00    +0.250 C 
ENDBRANCH  21  23
BRANCH  20  25
ATOM     25  O   LIG    1       -5.268  -3.275  12.386  0.00  0.00    -0.310 OA
ATOM     26  C   LIG    1       -4.643  -4.524  12.688  0.00  0.00    +0.250 C 
ENDBRANCH  20  25
ENDBRANCH  16  17
ENDBRANCH  15  16
ENDBRANCH   2  15
TORSDOF 11
