REMARK  Name = ZINCfA000001nFNZ.0
REMARK                            x       y       z     vdW  Elec       q    Type
REMARK                         _______ _______ _______ _____ _____    ______ ____
ROOT
ATOM      1  N   LIG    1        0.695   5.746   1.904  0.00  0.00    -0.380 N 
ATOM      2  H   LIG    1        1.000   5.304   2.758  0.00  0.00    +0.420 HD
ENDROOT
BRANCH   1   4
ATOM      3  C   LIG    1       -1.125   5.927   0.275  0.00  0.00    +0.090 C 
ATOM      4  C   LIG    1       -0.714   5.411   1.655  0.00  0.00    +0.160 C 
ATOM      5  C   LIG    1       -0.893   3.893   1.706  0.00  0.00    +0.070 C 
ENDBRANCH   1   4
BRANCH   1   6
ATOM      6  C   LIG    1        0.837   7.203   2.029  0.00  0.00    +0.290 C 
BRANCH   6   7
ATOM      7  C   LIG    1        0.186   7.668   3.333  0.00  0.00    -0.090 C 
ATOM      8  C   LIG    1        1.058   8.449   4.319  0.00  0.00    +0.060 C 
ATOM      9  C   LIG    1       -0.028   9.172   3.519  0.00  0.00    +0.000 C 
ATOM     10  C   LIG    1       -1.282   9.619   4.273  0.00  0.00    +0.070 C 
ENDBRANCH   6   7
ENDBRANCH   1   6
BRANCH   1  11
ATOM     11  C   LIG    1        1.517   5.268   0.784  0.00  0.00    +0.370 C 
BRANCH  11  12
ATOM     12  C   LIG    1        1.668   3.772   0.875  0.00  0.00    -0.320 A 
ATOM     13  C   LIG    1        1.347   2.890  -0.077  0.00  0.00    +0.290 A 
ATOM     14  N   LIG    1        1.578   1.633   0.242  0.00  0.00    -0.470 NA
ATOM     15  C   LIG    1        2.068   1.404   1.414  0.00  0.00    +0.290 A 
ATOM     16  S   LIG    1        2.299   2.875   2.254  0.00  0.00    +0.140 S 
ENDBRANCH  11  12
ENDBRANCH   1  11
TORSDOF 5
