REMARK  Name = ZINCfA000001nFNZ.1
REMARK                            x       y       z     vdW  Elec       q    Type
REMARK                         _______ _______ _______ _____ _____    ______ ____
ROOT
ATOM      1  N   LIG    1       -1.410   0.648  -2.419  0.00  0.00    -0.380 N 
ATOM      2  H   LIG    1       -1.685  -0.323  -2.423  0.00  0.00    +0.420 HD
ENDROOT
BRANCH   1   4
ATOM      3  C   LIG    1        0.504   2.149  -2.708  0.00  0.00    +0.090 C 
ATOM      4  C   LIG    1       -0.098   0.788  -3.065  0.00  0.00    +0.150 C 
ATOM      5  C   LIG    1        0.832  -0.325  -2.577  0.00  0.00    +0.080 C 
ENDBRANCH   1   4
BRANCH   1   6
ATOM      6  C   LIG    1       -1.326   1.127  -1.032  0.00  0.00    +0.300 C 
BRANCH   6   7
ATOM      7  C   LIG    1       -0.449   0.175  -0.216  0.00  0.00    -0.070 C 
ATOM      8  C   LIG    1        0.919   0.689   0.237  0.00  0.00    +0.050 C 
ATOM      9  C   LIG    1       -0.211   0.521   1.255  0.00  0.00    +0.010 C 
ATOM     10  C   LIG    1       -0.103  -0.641   2.245  0.00  0.00    +0.070 C 
ENDBRANCH   6   7
ENDBRANCH   1   6
BRANCH   1  11
ATOM     11  C   LIG    1       -2.404   1.443  -3.152  0.00  0.00    +0.380 C 
BRANCH  11  12
ATOM     12  C   LIG    1       -2.629   0.834  -4.512  0.00  0.00    -0.330 A 
ATOM     13  C   LIG    1       -3.558  -0.074  -4.823  0.00  0.00    +0.300 A 
ATOM     14  N   LIG    1       -3.556  -0.448  -6.087  0.00  0.00    -0.470 NA
ATOM     15  C   LIG    1       -2.669   0.087  -6.857  0.00  0.00    +0.280 A 
ATOM     16  S   LIG    1       -1.708   1.189  -5.972  0.00  0.00    +0.170 S 
ENDBRANCH  11  12
ENDBRANCH   1  11
TORSDOF 5
