REMARK  Name = ZINCtj00000mhT78.1
REMARK                            x       y       z     vdW  Elec       q    Type
REMARK                         _______ _______ _______ _____ _____    ______ ____
ROOT
ATOM      1  N   LIG    1       -1.058   0.996   4.796  0.00  0.00    -0.520 NA
ATOM      2  C   LIG    1       -1.076  -0.423   5.176  0.00  0.00    +0.220 C 
ATOM      3  C   LIG    1       -0.264  -0.615   6.459  0.00  0.00    +0.280 C 
ATOM      4  N   LIG    1       -0.842   0.205   7.532  0.00  0.00    -0.380 N 
ATOM      5  C   LIG    1       -0.795   1.622   7.148  0.00  0.00    +0.270 C 
ATOM      6  H   LIG    1       -1.801  -0.070   7.685  0.00  0.00    +0.430 HD
ATOM      7  C   LIG    1       -1.612   1.832   5.871  0.00  0.00    +0.230 C 
ENDROOT
BRANCH   1   8
ATOM      8  C   LIG    1       -1.781   1.212   3.535  0.00  0.00    +0.250 C 
BRANCH   8  10
ATOM      9  O   LIG    1       -0.015  -0.068   2.635  0.00  0.00    -0.510 OA
ATOM     10  C   LIG    1       -1.042   0.535   2.410  0.00  0.00    +0.530 C 
ATOM     11  N   LIG    1       -1.524   0.600   1.153  0.00  0.00    -0.550 N 
ATOM     12  C   LIG    1       -0.896  -0.015  -0.020  0.00  0.00    +0.290 C 
ATOM     13  C   LIG    1       -1.813   0.337  -1.202  0.00  0.00    +0.110 C 
ATOM     14  C   LIG    1       -2.929   1.153  -0.589  0.00  0.00    -0.120 A 
ATOM     15  C   LIG    1       -4.040   1.742  -1.160  0.00  0.00    +0.060 A 
ATOM     16  C   LIG    1       -4.932   2.449  -0.375  0.00  0.00    +0.000 A 
ATOM     17  C   LIG    1       -4.710   2.565   0.984  0.00  0.00    +0.040 A 
ATOM     18  C   LIG    1       -3.602   1.979   1.559  0.00  0.00    -0.030 A 
ATOM     19  C   LIG    1       -2.697   1.264   0.773  0.00  0.00    +0.130 A 
ENDBRANCH   8  10
ENDBRANCH   1   8
BRANCH   4  20
ATOM     20  C   LIG    1       -0.073   0.007   8.768  0.00  0.00    +0.250 C 
BRANCH  20  21
ATOM     21  C   LIG    1       -0.763   0.740   9.921  0.00  0.00    +0.220 C 
BRANCH  21  22
ATOM     22  O   LIG    1       -2.077   0.210  10.103  0.00  0.00    -0.540 OA
ATOM     23  H   LIG    1       -2.095  -0.734  10.313  0.00  0.00    +0.390 HD
ENDBRANCH  21  22
BRANCH  21  24
ATOM     24  C   LIG    1        0.047   0.548  11.204  0.00  0.00    +0.170 C 
BRANCH  24  25
ATOM     25  O   LIG    1       -0.532   1.326  12.254  0.00  0.00    -0.370 OA
BRANCH  25  26
ATOM     26  C   LIG    1        0.153   1.218  13.503  0.00  0.00    +0.310 C 
BRANCH  26  27
ATOM     27  C   LIG    1       -0.540   2.075  14.531  0.00  0.00    -0.040 A 
ATOM     28  C   LIG    1       -1.537   1.678  15.343  0.00  0.00    -0.020 A 
ATOM     29  C   LIG    1       -1.884   2.793  16.140  0.00  0.00    -0.070 A 
ATOM     30  C   LIG    1       -1.079   3.804  15.767  0.00  0.00    +0.190 A 
ATOM     31  O   LIG    1       -0.263   3.362  14.797  0.00  0.00    -0.170 OA
ENDBRANCH  26  27
ENDBRANCH  25  26
ENDBRANCH  24  25
ENDBRANCH  21  24
ENDBRANCH  20  21
ENDBRANCH   4  20
TORSDOF 9
