REMARK  Name = ZINCpk00000y6wug.0
REMARK                            x       y       z     vdW  Elec       q    Type
REMARK                         _______ _______ _______ _____ _____    ______ ____
ROOT
ATOM      1  C   LIG    1        6.997   2.066   1.610  0.00  0.00    +0.530 C 
ATOM      2  N   LIG    1        5.952   1.856   0.786  0.00  0.00    -0.620 N 
ATOM      3  C   LIG    1        6.009   1.841  -0.683  0.00  0.00    +0.240 C 
ATOM      4  C   LIG    1        4.574   1.591  -1.195  0.00  0.00    +0.060 C 
ATOM      5  C   LIG    1        3.695   2.041   0.002  0.00  0.00    +0.060 C 
ATOM      6  C   LIG    1        4.562   1.602   1.208  0.00  0.00    +0.280 C 
ATOM      7  O   LIG    1        6.834   2.055   2.812  0.00  0.00    -0.530 OA
ENDROOT
BRANCH   5   8
ATOM      8  C   LIG    1        2.370   1.323  -0.001  0.00  0.00    +0.240 A 
ATOM      9  C   LIG    1        1.208   2.038   0.006  0.00  0.00    -0.190 A 
ATOM     10  C   LIG    1       -0.016   1.346   0.003  0.00  0.00    +0.540 A 
ATOM     11  N   LIG    1        0.002  -0.004  -0.005  0.00  0.00    -0.660 N 
ATOM     12  H   LIG    1       -0.830  -0.502  -0.007  0.00  0.00    +0.410 HD
ATOM     13  C   LIG    1        1.192  -0.663  -0.011  0.00  0.00    +0.640 A 
ATOM     14  O   LIG    1       -1.074   1.954   0.004  0.00  0.00    -0.540 OA
ATOM     15  N   LIG    1        2.335  -0.007  -0.009  0.00  0.00    -0.590 NA
BRANCH  13  16
ATOM     16  N   LIG    1        1.202  -2.032  -0.020  0.00  0.00    -0.590 N 
ATOM     17  C   LIG    1       -0.055  -2.775   0.099  0.00  0.00    +0.310 C 
ATOM     18  C   LIG    1        2.470  -2.755  -0.147  0.00  0.00    +0.330 C 
ENDBRANCH  13  16
ENDBRANCH   5   8
BRANCH   1  19
ATOM     19  C   LIG    1        8.370   2.313   1.038  0.00  0.00    +0.170 C 
BRANCH  19  26
ATOM     20  C   LIG    1       10.136   0.057   2.560  0.00  0.00    +0.160 C 
ATOM     21  C   LIG    1       10.126   1.539   2.830  0.00  0.00    +0.030 A 
ATOM     22  N   LIG    1       10.828   2.174   3.724  0.00  0.00    -0.370 NA
ATOM     23  O   LIG    1       10.605   3.362   3.704  0.00  0.00    +0.100 OA
ATOM     24  C   LIG    1        9.705   3.679   2.763  0.00  0.00    -0.010 A 
ATOM     25  C   LIG    1        9.185   5.055   2.438  0.00  0.00    +0.190 C 
ATOM     26  C   LIG    1        9.353   2.517   2.162  0.00  0.00    -0.190 A 
ENDBRANCH  19  26
ENDBRANCH   1  19
TORSDOF 4
