REMARK  Name = ZINCkj000005k7sW.0
REMARK                            x       y       z     vdW  Elec       q    Type
REMARK                         _______ _______ _______ _____ _____    ______ ____
ROOT
ATOM      1  C   LIG    1       -1.187   1.624   0.017  0.00  0.00    +0.600 C 
ATOM      2  N   LIG    1       -0.011   0.966   0.007  0.00  0.00    -0.720 N 
ATOM      3  H   LIG    1        0.002  -0.004   0.002  0.00  0.00    +0.400 HD
ATOM      4  O   LIG    1       -1.204   2.840   0.023  0.00  0.00    -0.500 OA
ENDROOT
BRANCH   1   7
ATOM      5  C   LIG    1       -4.121   2.853   0.037  0.00  0.00    +0.150 C 
ATOM      6  C   LIG    1       -3.732   1.397   0.027  0.00  0.00    -0.050 A 
ATOM      7  C   LIG    1       -2.452   0.871   0.018  0.00  0.00    -0.060 A 
ATOM      8  N   LIG    1       -2.597  -0.487   0.006  0.00  0.00    -0.360 N 
ATOM      9  H   LIG    1       -1.868  -1.128  -0.006  0.00  0.00    +0.450 HD
ATOM     10  N   LIG    1       -3.846  -0.788   0.016  0.00  0.00    -0.190 NA
ATOM     11  C   LIG    1       -4.586   0.292   0.025  0.00  0.00    -0.070 A 
BRANCH  11  12
ATOM     12  C   LIG    1       -6.092   0.334   0.034  0.00  0.00    +0.560 C 
ATOM     13  F   LIG    1       -6.522   1.486   0.702  0.00  0.00    -0.160 F 
ATOM     14  F   LIG    1       -6.587  -0.798   0.689  0.00  0.00    -0.160 F 
ATOM     15  F   LIG    1       -6.565   0.355  -1.283  0.00  0.00    -0.160 F 
ENDBRANCH  11  12
ENDBRANCH   1   7
BRANCH   2  16
ATOM     16  C   LIG    1        1.248   1.716  -0.001  0.00  0.00    +0.260 C 
ATOM     17  C   LIG    1        1.960   1.708  -1.365  0.00  0.00    +0.070 C 
ATOM     18  C   LIG    1        3.270   1.539  -0.584  0.00  0.00    -0.150 C 
ATOM     19  C   LIG    1        4.639   1.117  -1.104  0.00  0.00    +0.140 C 
ATOM     20  C   LIG    1        4.446   2.503  -0.483  0.00  0.00    +0.130 C 
ATOM     21  C   LIG    1        2.443   0.917   0.547  0.00  0.00    +0.100 C 
BRANCH  20  22
ATOM     22  N   LIG    1        4.456   3.660  -1.388  0.00  0.00    -0.610 N 
ATOM     23  H   LIG    1        4.456   3.338  -2.345  0.00  0.00    +0.430 HD
ATOM     24  H   LIG    1        5.282   4.213  -1.219  0.00  0.00    +0.440 HD
ATOM     25  H   LIG    1        3.635   4.223  -1.223  0.00  0.00    +0.440 HD
ENDBRANCH  20  22
ENDBRANCH   2  16
TORSDOF 4
