REMARK  Name = ZINCpk000000oLsQ.0
REMARK                            x       y       z     vdW  Elec       q    Type
REMARK                         _______ _______ _______ _____ _____    ______ ____
ROOT
ATOM      1  N   LIG    1       -0.721   1.571  -1.179  0.00  0.00    -0.630 N 
ATOM      2  C   LIG    1       -0.386   2.756  -1.726  0.00  0.00    +0.710 C 
ATOM      3  N   LIG    1       -1.038   3.203  -2.818  0.00  0.00    -0.750 N 
ATOM      4  H   LIG    1       -1.748   2.671  -3.210  0.00  0.00    +0.400 HD
ATOM      5  O   LIG    1        0.504   3.423  -1.234  0.00  0.00    -0.590 OA
ATOM      6  C   LIG    1       -1.794   0.768  -1.771  0.00  0.00    +0.280 C 
ENDROOT
BRANCH   1   7
ATOM      7  C   LIG    1       -0.013   1.086   0.008  0.00  0.00    +0.350 C 
BRANCH   7  10
ATOM      8  N   LIG    1       -0.597   1.726   3.697  0.00  0.00    -0.480 N 
ATOM      9  C   LIG    1        0.075   1.181   2.511  0.00  0.00    +0.220 C 
ATOM     10  C   LIG    1       -0.729   1.579   1.267  0.00  0.00    +0.120 C 
ATOM     11  O   LIG    1       -2.019   0.966   1.362  0.00  0.00    -0.300 OA
ATOM     12  C   LIG    1       -2.648   1.050   2.567  0.00  0.00    +0.090 A 
ATOM     13  C   LIG    1       -4.002   0.757   2.634  0.00  0.00    -0.010 A 
ATOM     14  C   LIG    1       -4.670   0.827   3.842  0.00  0.00    +0.030 A 
ATOM     15  C   LIG    1       -3.988   1.188   4.989  0.00  0.00    -0.010 A 
ATOM     16  C   LIG    1       -2.640   1.483   4.930  0.00  0.00    +0.040 A 
ATOM     17  C   LIG    1       -1.960   1.417   3.718  0.00  0.00    +0.030 A 
BRANCH   8  19
ATOM     18  C   LIG    1       -0.879   3.665   5.166  0.00  0.00    +0.040 C 
ATOM     19  C   LIG    1       -0.384   3.175   3.804  0.00  0.00    +0.170 C 
ENDBRANCH   8  19
ENDBRANCH   7  10
ENDBRANCH   1   7
BRANCH   3  20
ATOM     20  C   LIG    1       -0.674   4.491  -3.413  0.00  0.00    +0.280 C 
BRANCH  20  21
ATOM     21  C   LIG    1       -1.560   4.759  -4.631  0.00  0.00    +0.020 C 
BRANCH  21  22
ATOM     22  C   LIG    1       -1.180   6.105  -5.252  0.00  0.00    +0.260 C 
BRANCH  22  23
ATOM     23  N   LIG    1       -2.028   6.361  -6.419  0.00  0.00    -0.730 N 
ATOM     24  H   LIG    1       -2.702   5.715  -6.680  0.00  0.00    +0.400 HD
ATOM     25  C   LIG    1       -1.871   7.496  -7.129  0.00  0.00    +0.510 C 
ATOM     26  O   LIG    1       -1.028   8.304  -6.803  0.00  0.00    -0.540 OA
ATOM     27  C   LIG    1       -2.744   7.760  -8.329  0.00  0.00    +0.090 C 
ENDBRANCH  22  23
ENDBRANCH  21  22
ENDBRANCH  20  21
ENDBRANCH   3  20
TORSDOF 7
