REMARK  Name = ZINCkj000005lstA.0
REMARK                            x       y       z     vdW  Elec       q    Type
REMARK                         _______ _______ _______ _____ _____    ______ ____
ROOT
ATOM      1  C   LIG    1        6.042  -1.990  -0.051  0.00  0.00    -0.270 A 
ATOM      2  C   LIG    1        6.000  -0.590  -0.007  0.00  0.00    +0.420 A 
ATOM      3  N   LIG    1        4.828   0.015   0.018  0.00  0.00    -0.510 NA
ATOM      4  C   LIG    1        3.700  -0.684   0.002  0.00  0.00    +0.400 A 
ATOM      5  N   LIG    1        3.697  -2.011  -0.034  0.00  0.00    -0.510 NA
ATOM      6  C   LIG    1        4.828  -2.690  -0.067  0.00  0.00    +0.350 A 
ENDROOT
BRANCH   1  11
ATOM      7  C   LIG    1        8.141  -6.276  -0.417  0.00  0.00    +0.170 C 
ATOM      8  C   LIG    1        6.692  -6.385   0.127  0.00  0.00    +0.080 C 
ATOM      9  C   LIG    1        6.178  -4.932   0.040  0.00  0.00    +0.280 C 
ATOM     10  N   LIG    1        7.356  -4.053   0.013  0.00  0.00    -0.620 N 
ATOM     11  C   LIG    1        7.332  -2.709  -0.081  0.00  0.00    +0.600 C 
ATOM     12  O   LIG    1        8.371  -2.088  -0.192  0.00  0.00    -0.510 OA
ATOM     13  C   LIG    1        8.569  -4.885   0.114  0.00  0.00    +0.290 C 
BRANCH   7  14
ATOM     14  N   LIG    1        8.992  -7.337   0.138  0.00  0.00    -0.630 N 
ATOM     15  H   LIG    1        9.948  -7.184  -0.146  0.00  0.00    +0.440 HD
ATOM     16  H   LIG    1        8.679  -8.233  -0.203  0.00  0.00    +0.440 HD
ATOM     17  H   LIG    1        8.934  -7.322   1.145  0.00  0.00    +0.440 HD
ENDBRANCH   7  14
ENDBRANCH   1  11
BRANCH   4  18
ATOM     18  C   LIG    1        2.406   0.037   0.032  0.00  0.00    -0.080 A 
ATOM     19  C   LIG    1        1.207  -0.675   0.016  0.00  0.00    +0.080 A 
ATOM     20  C   LIG    1        0.005   0.002   0.044  0.00  0.00    +0.000 A 
ATOM     21  C   LIG    1       -0.012   1.385   0.088  0.00  0.00    +0.050 A 
ATOM     22  C   LIG    1        1.174   2.097   0.104  0.00  0.00    +0.000 A 
ATOM     23  C   LIG    1        2.382   1.431   0.076  0.00  0.00    +0.080 A 
ENDBRANCH   4  18
TORSDOF 3
