REMARK  Name = ZINCqH0000004S6o.0
REMARK                            x       y       z     vdW  Elec       q    Type
REMARK                         _______ _______ _______ _____ _____    ______ ____
ROOT
ATOM      1  S   LIG    1       -5.796   4.069  -1.165  0.00  0.00    +0.090 S 
ENDROOT
BRANCH   1   3
ATOM      2  N   LIG    1       -8.148   5.425  -1.833  0.00  0.00    -0.450 N 
ATOM      3  C   LIG    1       -6.892   5.442  -1.300  0.00  0.00    +0.150 A 
ATOM      4  N   LIG    1       -6.655   6.672  -0.900  0.00  0.00    -0.290 NA
ATOM      5  N   LIG    1       -7.667   7.422  -1.155  0.00  0.00    -0.250 NA
ATOM      6  C   LIG    1       -8.616   6.715  -1.723  0.00  0.00    +0.220 A 
BRANCH   6   7
ATOM      7  C   LIG    1       -9.938   7.210  -2.162  0.00  0.00    +0.030 A 
ATOM      8  C   LIG    1      -10.172   8.580  -2.334  0.00  0.00    +0.020 A 
ATOM      9  C   LIG    1      -11.419   8.997  -2.750  0.00  0.00    +0.280 A 
ATOM     10  N   LIG    1      -12.385   8.127  -2.975  0.00  0.00    -0.480 NA
ATOM     11  C   LIG    1      -12.208   6.828  -2.819  0.00  0.00    +0.270 A 
ATOM     12  C   LIG    1      -10.992   6.323  -2.412  0.00  0.00    -0.040 A 
ENDBRANCH   6   7
BRANCH   2  14
ATOM     13  C   LIG    1       -9.639   3.560  -1.302  0.00  0.00    +0.050 C 
ATOM     14  C   LIG    1       -8.852   4.274  -2.404  0.00  0.00    +0.310 C 
ENDBRANCH   2  14
ENDBRANCH   1   3
BRANCH   1  15
ATOM     15  C   LIG    1       -4.380   4.875  -0.376  0.00  0.00    +0.110 C 
BRANCH  15  16
ATOM     16  C   LIG    1       -3.285   3.863  -0.156  0.00  0.00    +0.530 C 
ATOM     17  N   LIG    1       -2.127   4.238   0.422  0.00  0.00    -0.670 N 
ATOM     18  H   LIG    1       -2.021   5.144   0.752  0.00  0.00    +0.410 HD
ATOM     19  O   LIG    1       -3.446   2.710  -0.499  0.00  0.00    -0.500 OA
BRANCH  17  20
ATOM     20  C   LIG    1       -1.077   3.321   0.544  0.00  0.00    +0.130 A 
ATOM     21  C   LIG    1       -0.611   2.642  -0.574  0.00  0.00    -0.070 A 
ATOM     22  C   LIG    1        0.422   1.734  -0.449  0.00  0.00    +0.020 A 
ATOM     23  C   LIG    1        1.000   1.509   0.787  0.00  0.00    +0.020 A 
ATOM     24  C   LIG    1        0.542   2.187   1.902  0.00  0.00    +0.010 A 
ATOM     25  C   LIG    1       -1.237   2.892  -1.922  0.00  0.00    +0.100 C 
ATOM     26  C   LIG    1       -0.494   3.092   1.784  0.00  0.00    -0.090 A 
ATOM     27  C   LIG    1       -0.992   3.831   2.999  0.00  0.00    +0.080 C 
ENDBRANCH  17  20
ENDBRANCH  15  16
ENDBRANCH   1  15
TORSDOF 6
