REMARK  Name = ZINCrH000004tecS.0
REMARK                            x       y       z     vdW  Elec       q    Type
REMARK                         _______ _______ _______ _____ _____    ______ ____
ROOT
ATOM      1  C   LIG    1        3.507   1.749   0.140  0.00  0.00    +0.210 A 
ATOM      2  N   LIG    1        2.513   0.904   0.269  0.00  0.00    -0.460 NA
ATOM      3  C   LIG    1        1.400   1.609  -0.003  0.00  0.00    +0.150 A 
ATOM      4  N   LIG    1        1.768   2.827  -0.270  0.00  0.00    -0.340 NA
ATOM      5  O   LIG    1        2.974   2.928  -0.194  0.00  0.00    +0.080 OA
ENDROOT
BRANCH   3   6
ATOM      6  C   LIG    1       -0.013   1.086   0.008  0.00  0.00    +0.330 C 
ATOM      7  C   LIG    1       -0.733   1.581   1.264  0.00  0.00    +0.180 C 
ATOM      8  N   LIG    1       -0.815   3.050   1.238  0.00  0.00    -0.520 NA
ATOM      9  C   LIG    1       -1.473   3.540   2.458  0.00  0.00    +0.180 C 
ATOM     10  C   LIG    1       -1.457   5.065   2.484  0.00  0.00    +0.020 C 
ATOM     11  C   LIG    1       -2.188   5.596   1.248  0.00  0.00    +0.010 C 
ATOM     12  C   LIG    1       -1.504   5.049  -0.007  0.00  0.00    +0.040 C 
ATOM     13  C   LIG    1       -1.510   3.518   0.032  0.00  0.00    +0.110 C 
ATOM     14  C   LIG    1       -0.794   2.987  -1.214  0.00  0.00    +0.230 C 
ATOM     15  O   LIG    1       -0.708   1.562  -1.148  0.00  0.00    -0.360 OA
ENDBRANCH   3   6
BRANCH   1  16
ATOM     16  C   LIG    1        4.971   1.449   0.336  0.00  0.00    +0.050 C 
ATOM     17  C   LIG    1        5.407   1.445   1.811  0.00  0.00    +0.070 C 
ATOM     18  C   LIG    1        5.682   2.952   1.649  0.00  0.00    +0.020 C 
ATOM     19  C   LIG    1        5.881   2.675   0.150  0.00  0.00    +0.070 C 
BRANCH  16  24
ATOM     20  F   LIG    1        6.675  -3.080  -2.533  0.00  0.00    -0.130 F 
ATOM     21  C   LIG    1        6.267  -1.992  -1.843  0.00  0.00    +0.130 A 
ATOM     22  C   LIG    1        5.007  -1.462  -2.067  0.00  0.00    -0.010 A 
ATOM     23  C   LIG    1        4.589  -0.349  -1.362  0.00  0.00    +0.090 A 
ATOM     24  C   LIG    1        5.428   0.236  -0.432  0.00  0.00    -0.110 A 
ATOM     25  C   LIG    1        6.690  -0.289  -0.210  0.00  0.00    +0.140 A 
ATOM     26  F   LIG    1        7.512   0.286   0.695  0.00  0.00    -0.120 F 
ATOM     27  C   LIG    1        7.108  -1.406  -0.913  0.00  0.00    -0.040 A 
ENDBRANCH  16  24
ENDBRANCH   1  16
TORSDOF 3
