REMARK  Name = ZINCvU00000004MX.0
REMARK                            x       y       z     vdW  Elec       q    Type
REMARK                         _______ _______ _______ _____ _____    ______ ____
ROOT
ATOM      1  N   LIG    1       -2.021   1.594   4.652  0.00  0.00    -0.540 N 
ATOM      2  C   LIG    1       -2.896   0.810   5.279  0.00  0.00    +0.530 C 
ATOM      3  C   LIG    1       -4.359   1.031   4.941  0.00  0.00    +0.180 C 
ATOM      4  S   LIG    1       -4.326   2.681   4.130  0.00  0.00    -0.160 S 
ATOM      5  O   LIG    1       -2.544  -0.033   6.076  0.00  0.00    -0.490 OA
ATOM      6  C   LIG    1       -2.546   2.583   3.720  0.00  0.00    +0.210 C 
ATOM      7  C   LIG    1       -2.357   2.194   2.282  0.00  0.00    +0.540 C 
ATOM      8  N   LIG    1       -1.673   3.199   1.699  0.00  0.00    -0.540 N 
ATOM      9  C   LIG    1       -1.389   4.231   2.596  0.00  0.00    +0.170 A 
ATOM     10  C   LIG    1       -0.719   5.438   2.411  0.00  0.00    +0.000 A 
ATOM     11  C   LIG    1       -0.558   6.312   3.467  0.00  0.00    +0.080 A 
ATOM     12  C   LIG    1       -1.061   5.997   4.716  0.00  0.00    +0.000 A 
ATOM     13  C   LIG    1       -1.728   4.800   4.908  0.00  0.00    +0.100 A 
ATOM     14  O   LIG    1       -2.741   1.174   1.750  0.00  0.00    -0.450 OA
ATOM     15  C   LIG    1       -1.891   3.925   3.858  0.00  0.00    -0.150 A 
ENDROOT
BRANCH   1  20
ATOM     16  C   LIG    1        3.554   1.103   5.580  0.00  0.00    +0.090 C 
ATOM     17  C   LIG    1        2.073   1.234   5.333  0.00  0.00    -0.070 A 
ATOM     18  C   LIG    1        1.543   0.872   4.108  0.00  0.00    +0.020 A 
ATOM     19  C   LIG    1        0.186   0.990   3.880  0.00  0.00    +0.010 A 
ATOM     20  C   LIG    1       -0.646   1.473   4.881  0.00  0.00    +0.130 A 
ATOM     21  C   LIG    1       -0.109   1.842   6.108  0.00  0.00    +0.040 A 
ATOM     22  C   LIG    1        1.248   1.716   6.332  0.00  0.00    +0.020 A 
ENDBRANCH   1  20
BRANCH   8  23
ATOM     23  C   LIG    1       -1.280   3.210   0.288  0.00  0.00    +0.370 C 
BRANCH  23  24
ATOM     24  C   LIG    1       -2.426   3.718  -0.549  0.00  0.00    -0.150 A 
ATOM     25  C   LIG    1       -2.634   5.080  -0.684  0.00  0.00    +0.130 A 
ATOM     26  C   LIG    1       -3.684   5.545  -1.458  0.00  0.00    +0.000 A 
ATOM     27  C   LIG    1       -4.522   4.650  -2.095  0.00  0.00    +0.080 A 
ATOM     28  C   LIG    1       -4.314   3.290  -1.960  0.00  0.00    +0.020 A 
ATOM     29  F   LIG    1       -1.814   5.954  -0.061  0.00  0.00    -0.130 F 
ATOM     30  C   LIG    1       -3.266   2.824  -1.188  0.00  0.00    +0.010 A 
ATOM     31 CL   LIG    1       -3.005   1.115  -1.020  0.00  0.00    -0.030 Cl
ENDBRANCH  23  24
ENDBRANCH   8  23
TORSDOF 3
