REMARK  Name = ZINCrH00000No4UW.0
REMARK                            x       y       z     vdW  Elec       q    Type
REMARK                         _______ _______ _______ _____ _____    ______ ____
ROOT
ATOM      1  N   LIG    1        1.157   4.224   1.000  0.00  0.00    -0.550 N 
ENDROOT
BRANCH   1   2
ATOM      2  C   LIG    1        2.405   4.561   1.467  0.00  0.00    +0.500 A 
ATOM      3  N   LIG    1        3.505   4.604   0.747  0.00  0.00    -0.510 NA
ATOM      4  C   LIG    1        4.523   4.972   1.531  0.00  0.00    +0.130 A 
ATOM      5  C   LIG    1        4.029   5.155   2.789  0.00  0.00    -0.050 A 
ATOM      6  C   LIG    1        5.957   5.147   1.103  0.00  0.00    +0.180 C 
ATOM      7  O   LIG    1        2.700   4.894   2.732  0.00  0.00    -0.190 OA
BRANCH   5   8
ATOM      8  C   LIG    1        4.773   5.549   3.948  0.00  0.00    +0.300 C 
ATOM      9  N   LIG    1        5.362   5.862   4.868  0.00  0.00    -0.390 NA
ENDBRANCH   5   8
ENDBRANCH   1   2
BRANCH   1  10
ATOM     10  C   LIG    1        0.012   4.210   1.914  0.00  0.00    +0.350 C 
BRANCH  10  11
ATOM     11  C   LIG    1       -0.724   5.548   1.830  0.00  0.00    +0.140 C 
BRANCH  11  12
ATOM     12  C   LIG    1       -1.992   5.487   2.684  0.00  0.00    +0.440 C 
ATOM     13  F   LIG    1       -2.824   4.467   2.210  0.00  0.00    -0.180 F 
ATOM     14  F   LIG    1       -2.665   6.711   2.607  0.00  0.00    -0.180 F 
ATOM     15  F   LIG    1       -1.647   5.228   4.014  0.00  0.00    -0.170 F 
ENDBRANCH  11  12
BRANCH  11  16
ATOM     16  O   LIG    1        0.126   6.590   2.313  0.00  0.00    -0.350 OA
BRANCH  16  18
ATOM     17  C   LIG    1        0.990   8.842   2.157  0.00  0.00    +0.060 C 
ATOM     18  C   LIG    1       -0.037   7.836   1.633  0.00  0.00    +0.170 C 
ENDBRANCH  16  18
ENDBRANCH  11  16
ENDBRANCH  10  11
ENDBRANCH   1  10
BRANCH   1  19
ATOM     19  C   LIG    1        0.972   3.879  -0.412  0.00  0.00    +0.410 C 
BRANCH  19  20
ATOM     20  C   LIG    1        1.074   2.385  -0.582  0.00  0.00    +0.090 A 
ATOM     21  C   LIG    1       -0.075   1.619  -0.586  0.00  0.00    -0.030 A 
ATOM     22  C   LIG    1        0.029   0.245  -0.744  0.00  0.00    +0.060 A 
ATOM     23  C   LIG    1        1.292  -0.308  -0.891  0.00  0.00    -0.120 A 
ATOM     24  C   LIG    1        2.397   0.522  -0.876  0.00  0.00    +0.260 A 
ATOM     25  N   LIG    1        2.259   1.825  -0.724  0.00  0.00    -0.450 NA
BRANCH  23  26
ATOM     26  C   LIG    1        1.458  -1.796  -1.065  0.00  0.00    +0.080 C 
ATOM     27  C   LIG    1        1.416  -2.142  -2.555  0.00  0.00    +0.030 C 
ENDBRANCH  23  26
ENDBRANCH  19  20
ENDBRANCH   1  19
TORSDOF 10
