REMARK  Name = ZINCpk00000y0lMl.0
REMARK                            x       y       z     vdW  Elec       q    Type
REMARK                         _______ _______ _______ _____ _____    ______ ____
ROOT
ATOM      1  C   LIG    1       -2.996   4.095  -1.114  0.00  0.00    +0.370 C 
ATOM      2  O   LIG    1       -2.740   3.191  -1.872  0.00  0.00    -0.370 OA
ENDROOT
BRANCH   1   3
ATOM      3  C   LIG    1       -4.235   4.927  -1.324  0.00  0.00    +0.210 C 
BRANCH   3   9
ATOM      4  C   LIG    1       -5.597   2.304  -5.220  0.00  0.00    +0.140 C 
ATOM      5  C   LIG    1       -5.270   3.638  -4.600  0.00  0.00    +0.180 A 
ATOM      6  C   LIG    1       -5.333   4.798  -5.356  0.00  0.00    -0.070 A 
ATOM      7  C   LIG    1       -5.024   6.002  -4.743  0.00  0.00    +0.180 A 
ATOM      8  N   LIG    1       -4.681   6.004  -3.465  0.00  0.00    -0.510 NA
ATOM      9  C   LIG    1       -4.631   4.880  -2.777  0.00  0.00    +0.330 A 
ATOM     10  C   LIG    1       -5.078   7.291  -5.521  0.00  0.00    +0.150 C 
ATOM     11  N   LIG    1       -4.913   3.717  -3.328  0.00  0.00    -0.490 NA
ENDBRANCH   3   9
BRANCH   3  12
ATOM     12  C   LIG    1       -5.331   4.392  -0.499  0.00  0.00    +0.220 C 
ATOM     13  N   LIG    1       -6.177   3.979   0.137  0.00  0.00    -0.390 NA
ENDBRANCH   3  12
ENDBRANCH   1   3
BRANCH   1  14
ATOM     14  C   LIG    1       -2.077   4.391   0.043  0.00  0.00    +0.160 C 
BRANCH  14  15
ATOM     15  C   LIG    1       -0.922   3.423   0.028  0.00  0.00    +0.110 A 
ATOM     16  C   LIG    1        0.351   3.820   0.018  0.00  0.00    -0.080 A 
ATOM     17  S   LIG    1        1.371   2.384   0.002  0.00  0.00    +0.140 S 
ATOM     18  C   LIG    1       -0.017   1.386   0.010  0.00  0.00    +0.310 A 
ATOM     19  N   LIG    1       -1.089   2.114   0.018  0.00  0.00    -0.470 NA
BRANCH  18  20
ATOM     20  N   LIG    1        0.002  -0.004   0.002  0.00  0.00    -0.540 N 
ATOM     21  C   LIG    1        1.212  -0.840  -0.019  0.00  0.00    +0.280 C 
ATOM     22  C   LIG    1        0.665  -2.281  -0.016  0.00  0.00    +0.280 C 
ATOM     23  N   LIG    1       -0.794  -2.104  -0.002  0.00  0.00    -0.740 N 
ATOM     24  H   LIG    1       -1.447  -2.821  -0.001  0.00  0.00    +0.440 HD
ATOM     25  C   LIG    1       -1.079  -0.795   0.007  0.00  0.00    +0.700 C 
ATOM     26  O   LIG    1       -2.216  -0.364   0.019  0.00  0.00    -0.520 OA
ENDBRANCH  18  20
ENDBRANCH  14  15
ENDBRANCH   1  14
TORSDOF 6
