REMARK  Name = ZINCvU00000007KA.0
REMARK                            x       y       z     vdW  Elec       q    Type
REMARK                         _______ _______ _______ _____ _____    ______ ____
ROOT
ATOM      1  C   LIG    1       -1.133  -1.200   4.193  0.00  0.00    +0.440 A 
ATOM      2  N   LIG    1       -0.259  -1.193   5.161  0.00  0.00    -0.540 NA
ATOM      3  C   LIG    1       -0.606  -0.860   6.415  0.00  0.00    +0.540 A 
ATOM      4  C   LIG    1       -2.009  -0.495   6.691  0.00  0.00    -0.220 A 
ATOM      5  C   LIG    1       -2.892  -0.519   5.626  0.00  0.00    +0.060 A 
ATOM      6  S   LIG    1       -4.498  -0.056   6.166  0.00  0.00    +0.180 S 
ATOM      7  C   LIG    1       -3.956   0.164   7.819  0.00  0.00    -0.040 A 
ATOM      8  C   LIG    1       -2.654  -0.099   7.935  0.00  0.00    +0.010 A 
ATOM      9  O   LIG    1        0.223  -0.859   7.311  0.00  0.00    -0.470 OA
ATOM     10  N   LIG    1       -2.421  -0.872   4.380  0.00  0.00    -0.590 N 
ATOM     11  H   LIG    1       -3.031  -0.889   3.626  0.00  0.00    +0.420 HD
ENDROOT
BRANCH   8  12
ATOM     12  C   LIG    1       -1.925   0.004   9.221  0.00  0.00    -0.040 A 
ATOM     13  C   LIG    1       -1.125  -1.051   9.658  0.00  0.00    +0.060 A 
ATOM     14  C   LIG    1       -0.444  -0.947  10.854  0.00  0.00    +0.000 A 
ATOM     15  C   LIG    1       -0.562   0.197  11.623  0.00  0.00    +0.010 A 
ATOM     16  C   LIG    1       -1.359   1.244  11.198  0.00  0.00    -0.010 A 
ATOM     17  C   LIG    1       -2.041   1.154  10.001  0.00  0.00    +0.020 A 
ENDBRANCH   8  12
BRANCH   1  18
ATOM     18  C   LIG    1       -0.676  -1.583   2.809  0.00  0.00    +0.300 C 
BRANCH  18  20
ATOM     19  C   LIG    1        1.551  -0.696   3.144  0.00  0.00    +0.220 C 
ATOM     20  N   LIG    1        0.759  -1.893   2.835  0.00  0.00    -0.500 NA
BRANCH  20  21
ATOM     21  C   LIG    1        1.190  -2.497   1.567  0.00  0.00    +0.220 C 
BRANCH  21  22
ATOM     22  C   LIG    1        2.595  -3.023   1.713  0.00  0.00    +0.520 C 
ATOM     23  N   LIG    1        3.202  -3.623   0.669  0.00  0.00    -0.690 N 
ATOM     24  H   LIG    1        2.710  -3.781  -0.152  0.00  0.00    +0.410 HD
ATOM     25  O   LIG    1        3.179  -2.908   2.769  0.00  0.00    -0.490 OA
BRANCH  23  26
ATOM     26  C   LIG    1        4.541  -4.018   0.771  0.00  0.00    +0.150 A 
ATOM     27  C   LIG    1        5.556  -3.134   0.425  0.00  0.00    -0.020 A 
ATOM     28  C   LIG    1        6.877  -3.526   0.531  0.00  0.00    +0.050 A 
ATOM     29  C   LIG    1        7.189  -4.799   0.971  0.00  0.00    +0.060 A 
ATOM     30  C   LIG    1        6.182  -5.683   1.312  0.00  0.00    +0.050 A 
ATOM     31 CL   LIG    1        5.165  -1.538  -0.135  0.00  0.00    -0.050 Cl
ATOM     32  C   LIG    1        4.859  -5.296   1.213  0.00  0.00    -0.020 A 
ATOM     33 CL   LIG    1        3.595  -6.406   1.641  0.00  0.00    -0.040 Cl
ENDBRANCH  23  26
ENDBRANCH  21  22
ENDBRANCH  20  21
ENDBRANCH  18  20
ENDBRANCH   1  18
TORSDOF 6
