REMARK  Name = ZINCkj000005jOPY.1
REMARK                            x       y       z     vdW  Elec       q    Type
REMARK                         _______ _______ _______ _____ _____    ______ ____
ROOT
ATOM      1  C   LIG    1        2.231  -4.256   2.822  0.00  0.00    +0.500 C 
ATOM      2  N   LIG    1        2.889  -5.369   3.093  0.00  0.00    -0.580 NA
ATOM      3  C   LIG    1        3.030  -5.770   4.355  0.00  0.00    +0.660 C 
ATOM      4  N   LIG    1        2.508  -5.050   5.341  0.00  0.00    -0.620 N 
ATOM      5  C   LIG    1        1.847  -3.931   5.064  0.00  0.00    +0.670 C 
ATOM      6  N   LIG    1        1.303  -3.179   6.085  0.00  0.00    -0.770 N 
ATOM      7  H   LIG    1        0.821  -2.362   5.882  0.00  0.00    +0.450 HD
ATOM      8  H   LIG    1        1.403  -3.467   7.006  0.00  0.00    +0.430 HD
ATOM      9  H   LIG    1        2.610  -5.339   6.261  0.00  0.00    +0.440 HD
ATOM     10  N   LIG    1        1.715  -3.534   3.801  0.00  0.00    -0.550 NA
ENDROOT
BRANCH   3  11
ATOM     11  N   LIG    1        3.716  -6.933   4.637  0.00  0.00    -0.550 NA
ATOM     12  C   LIG    1        3.871  -7.374   6.026  0.00  0.00    +0.340 C 
ATOM     13  C   LIG    1        4.291  -7.728   3.549  0.00  0.00    +0.370 C 
ENDBRANCH   3  11
BRANCH   1  15
ATOM     14  C   LIG    1        0.861  -4.502   0.769  0.00  0.00    +0.100 C 
ATOM     15  C   LIG    1        2.073  -3.806   1.392  0.00  0.00    +0.240 C 
BRANCH  15  16
ATOM     16  N   LIG    1        1.875  -2.351   1.356  0.00  0.00    -0.520 NA
ATOM     17  C   LIG    1        2.977  -1.652   2.031  0.00  0.00    +0.190 C 
BRANCH  16  18
ATOM     18  C   LIG    1        1.717  -1.875  -0.025  0.00  0.00    +0.320 C 
BRANCH  18  19
ATOM     19  C   LIG    1        1.274  -0.435  -0.012  0.00  0.00    -0.010 A 
ATOM     20  C   LIG    1        2.086   0.638  -0.014  0.00  0.00    -0.050 A 
ATOM     21  C   LIG    1        1.254   1.781  -0.000  0.00  0.00    -0.070 A 
ATOM     22  C   LIG    1       -0.016   1.339   0.009  0.00  0.00    +0.180 A 
ATOM     23  O   LIG    1        0.002  -0.004   0.002  0.00  0.00    -0.170 OA
ENDBRANCH  18  19
ENDBRANCH  16  18
ENDBRANCH  15  16
ENDBRANCH   1  15
TORSDOF 5
