REMARK  Name = ZINCvU0000000I7F.0
REMARK                            x       y       z     vdW  Elec       q    Type
REMARK                         _______ _______ _______ _____ _____    ______ ____
ROOT
ATOM      1  C   LIG    1       -7.244   0.959   2.686  0.00  0.00    -0.180 A 
ATOM      2  C   LIG    1       -7.918   0.701   1.491  0.00  0.00    +0.060 A 
ATOM      3  C   LIG    1       -9.106   0.000   1.508  0.00  0.00    -0.010 A 
ATOM      4  C   LIG    1       -9.635  -0.449   2.707  0.00  0.00    +0.060 A 
ATOM      5  C   LIG    1       -8.980  -0.200   3.897  0.00  0.00    +0.010 A 
ATOM      6  C   LIG    1       -7.780   0.498   3.898  0.00  0.00    +0.220 A 
ENDROOT
BRANCH   1   9
ATOM      7  N   LIG    1       -5.408   2.057   1.501  0.00  0.00    -0.720 N 
ATOM      8  H   LIG    1       -5.837   1.816   0.665  0.00  0.00    +0.400 HD
ATOM      9  C   LIG    1       -5.973   1.708   2.674  0.00  0.00    +0.570 C 
ATOM     10  O   LIG    1       -5.436   2.010   3.722  0.00  0.00    -0.540 OA
BRANCH   7  11
ATOM     11  C   LIG    1       -4.146   2.801   1.489  0.00  0.00    +0.240 C 
BRANCH  11  12
ATOM     12  C   LIG    1       -3.725   3.068   0.043  0.00  0.00    +0.270 C 
BRANCH  12  13
ATOM     13  N   LIG    1       -2.463   3.812   0.030  0.00  0.00    -0.620 N 
BRANCH  13  14
ATOM     14  C   LIG    1       -1.248   3.124   0.010  0.00  0.00    +0.220 A 
ATOM     15  C   LIG    1       -1.234   1.736  -0.003  0.00  0.00    -0.080 A 
ATOM     16  C   LIG    1       -0.030   1.059  -0.018  0.00  0.00    +0.050 A 
ATOM     17  C   LIG    1        1.161   1.762  -0.029  0.00  0.00    -0.060 A 
ATOM     18  C   LIG    1        1.150   3.145  -0.021  0.00  0.00    -0.040 A 
ATOM     19  C   LIG    1        2.450   3.907  -0.034  0.00  0.00    +0.090 C 
ATOM     20  C   LIG    1       -0.050   3.828  -0.001  0.00  0.00    -0.070 A 
ENDBRANCH  13  14
BRANCH  13  22
ATOM     21  C   LIG    1       -2.499   5.796  -1.400  0.00  0.00    +0.020 C 
ATOM     22  C   LIG    1       -2.476   5.277   0.040  0.00  0.00    +0.270 C 
ENDBRANCH  13  22
ENDBRANCH  12  13
ENDBRANCH  11  12
ENDBRANCH   7  11
ENDBRANCH   1   9
BRANCH   6  23
ATOM     23  N   LIG    1       -7.114   0.744   5.096  0.00  0.00    -0.660 N 
ATOM     24  H   LIG    1       -6.626   1.573   5.218  0.00  0.00    +0.420 HD
ATOM     25  C   LIG    1       -7.149  -0.170   6.085  0.00  0.00    +0.550 C 
ATOM     26  O   LIG    1       -7.678  -1.249   5.899  0.00  0.00    -0.490 OA
BRANCH  25  27
ATOM     27  C   LIG    1       -6.542   0.138   7.397  0.00  0.00    -0.120 A 
ATOM     28  C   LIG    1       -5.934   1.375   7.614  0.00  0.00    +0.070 A 
ATOM     29  C   LIG    1       -5.370   1.657   8.842  0.00  0.00    +0.030 A 
ATOM     30  C   LIG    1       -5.406   0.717   9.856  0.00  0.00    +0.060 A 
ATOM     31  C   LIG    1       -6.007  -0.512   9.648  0.00  0.00    +0.040 A 
ATOM     32  C   LIG    1       -6.581  -0.805   8.427  0.00  0.00    -0.040 A 
ATOM     33 BR   LIG    1       -7.409  -2.482   8.147  0.00  0.00    -0.010 Br
ENDBRANCH  25  27
ENDBRANCH   6  23
TORSDOF 8
