REMARK  Name = ZINCpk00000kSGaL.0
REMARK                            x       y       z     vdW  Elec       q    Type
REMARK                         _______ _______ _______ _____ _____    ______ ____
ROOT
ATOM      1  C   LIG    1        1.449   8.034   0.032  0.00  0.00    +0.040 A 
ATOM      2  C   LIG    1        0.272   8.561  -0.415  0.00  0.00    +0.200 A 
ATOM      3  N   LIG    1        0.356   9.895  -0.204  0.00  0.00    -0.290 N 
ATOM      4  N   LIG    1        1.498  10.152   0.330  0.00  0.00    -0.080 NA
ATOM      5  N   LIG    1        2.173   9.070   0.491  0.00  0.00    -0.250 NA
ENDROOT
BRANCH   1   8
ATOM      6  C   LIG    1        4.337   7.130  -0.000  0.00  0.00    +0.180 C 
ATOM      7  C   LIG    1        3.139   6.215   0.006  0.00  0.00    -0.170 A 
ATOM      8  C   LIG    1        1.847   6.603   0.020  0.00  0.00    +0.140 A 
ATOM      9  N   LIG    1        0.962   5.626   0.018  0.00  0.00    -0.410 NA
ATOM     10  C   LIG    1        1.424   4.409   0.013  0.00  0.00    +0.140 A 
ATOM     11  S   LIG    1        3.185   4.454  -0.004  0.00  0.00    +0.110 S 
BRANCH  10  12
ATOM     12  C   LIG    1        0.603   3.186   0.013  0.00  0.00    +0.250 A 
ATOM     13  N   LIG    1       -0.712   3.140   0.026  0.00  0.00    -0.430 NA
ATOM     14  C   LIG    1       -1.109   1.863   0.017  0.00  0.00    +0.160 A 
ATOM     15  C   LIG    1       -0.013   1.076   0.008  0.00  0.00    +0.160 A 
ATOM     16  N   LIG    1        1.077   1.904   0.002  0.00  0.00    -0.450 N 
ATOM     17  C   LIG    1        2.483   1.494  -0.013  0.00  0.00    +0.330 C 
ENDBRANCH  10  12
ENDBRANCH   1   8
BRANCH   3  18
ATOM     18  C   LIG    1       -0.679  10.880  -0.529  0.00  0.00    +0.340 C 
BRANCH  18  19
ATOM     19  C   LIG    1       -1.026  11.687   0.723  0.00  0.00    +0.190 C 
BRANCH  19  20
ATOM     20  N   LIG    1       -2.064  12.675   0.397  0.00  0.00    -0.530 NA
ATOM     21  C   LIG    1       -1.551  13.690  -0.535  0.00  0.00    +0.150 C 
ATOM     22  C   LIG    1       -2.678  14.661  -0.893  0.00  0.00    +0.220 C 
ATOM     23  O   LIG    1       -3.200  15.241   0.305  0.00  0.00    -0.380 OA
ATOM     24  C   LIG    1       -3.709  14.281   1.235  0.00  0.00    +0.220 C 
ATOM     25  C   LIG    1       -2.592  13.305   1.615  0.00  0.00    +0.160 C 
ENDBRANCH  19  20
ENDBRANCH  18  19
ENDBRANCH   3  18
TORSDOF 5
