REMARK  Name = ZINCrD00000bGMMm.0
REMARK                            x       y       z     vdW  Elec       q    Type
REMARK                         _______ _______ _______ _____ _____    ______ ____
ROOT
ATOM      1  C   LIG    1       -0.162   2.080   3.776  0.00  0.00    +0.520 C 
ATOM      2  N   LIG    1        0.233   1.558   4.954  0.00  0.00    -0.610 N 
ATOM      3  C   LIG    1        0.975   0.290   4.999  0.00  0.00    +0.280 C 
ATOM      4  C   LIG    1        0.260  -0.671   5.947  0.00  0.00    +0.030 C 
ATOM      5  C   LIG    1        0.079   0.001   7.310  0.00  0.00    +0.010 C 
ATOM      6  C   LIG    1       -0.783   1.256   7.152  0.00  0.00    +0.050 C 
ATOM      7  C   LIG    1       -0.075   2.242   6.218  0.00  0.00    +0.280 C 
ATOM      8  O   LIG    1       -0.778   3.125   3.752  0.00  0.00    -0.530 OA
ENDROOT
BRANCH   5   9
ATOM      9  C   LIG    1       -0.599  -0.958   8.255  0.00  0.00    +0.520 C 
ATOM     10  N   LIG    1       -0.020  -2.139   8.548  0.00  0.00    -0.670 N 
ATOM     11  H   LIG    1        0.799  -2.402   8.099  0.00  0.00    +0.410 HD
ATOM     12  O   LIG    1       -1.666  -0.666   8.754  0.00  0.00    -0.510 OA
BRANCH  10  13
ATOM     13  C   LIG    1       -0.600  -2.986   9.498  0.00  0.00    +0.170 A 
ATOM     14  C   LIG    1        0.205  -3.759  10.325  0.00  0.00    -0.030 A 
ATOM     15  C   LIG    1       -0.369  -4.590  11.267  0.00  0.00    +0.070 A 
ATOM     16  C   LIG    1       -1.744  -4.664  11.380  0.00  0.00    -0.030 A 
ATOM     17  C   LIG    1       -2.551  -3.900  10.553  0.00  0.00    +0.120 A 
ATOM     18  F   LIG    1       -3.896  -3.973  10.666  0.00  0.00    -0.130 F 
ATOM     19  C   LIG    1       -1.982  -3.061   9.613  0.00  0.00    -0.010 A 
ENDBRANCH  10  13
ENDBRANCH   5   9
BRANCH   1  20
ATOM     20  C   LIG    1        0.162   1.367   2.489  0.00  0.00    +0.050 C 
BRANCH  20  21
ATOM     21  C   LIG    1       -0.396   2.166   1.309  0.00  0.00    +0.130 C 
BRANCH  21  22
ATOM     22  C   LIG    1       -0.068   1.441   0.002  0.00  0.00    +0.040 C 
ATOM     23  N   LIG    1        1.066   0.514  -0.019  0.00  0.00    -0.120 NA
ATOM     24  N   LIG    1       -0.051  -0.024  -0.003  0.00  0.00    -0.120 NA
BRANCH  22  25
ATOM     25  C   LIG    1       -0.439   2.174  -1.289  0.00  0.00    +0.120 C 
BRANCH  25  26
ATOM     26  C   LIG    1        0.080   1.383  -2.491  0.00  0.00    +0.160 C 
BRANCH  26  28
ATOM     27  C   LIG    1       -0.562   2.649  -4.724  0.00  0.00    +0.030 C 
ATOM     28  C   LIG    1       -0.277   2.087  -3.733  0.00  0.00    -0.190 C 
ENDBRANCH  26  28
ENDBRANCH  25  26
ENDBRANCH  22  25
ENDBRANCH  21  22
ENDBRANCH  20  21
ENDBRANCH   1  20
TORSDOF 8
