REMARK  Name = ZINCpk00000e9dX7.0
REMARK                            x       y       z     vdW  Elec       q    Type
REMARK                         _______ _______ _______ _____ _____    ______ ____
ROOT
ATOM      1  N   LIG    1       -0.453   1.393   3.718  0.00  0.00    -0.600 N 
ATOM      2  C   LIG    1        0.000   1.080   2.488  0.00  0.00    +0.520 C 
ATOM      3  O   LIG    1        0.994   0.397   2.363  0.00  0.00    -0.520 OA
ENDROOT
BRANCH   1   4
ATOM      4  C   LIG    1        0.256   0.907   4.905  0.00  0.00    +0.270 C 
ATOM      5  C   LIG    1        1.698   1.443   4.901  0.00  0.00    +0.070 C 
ATOM      6  C   LIG    1        2.472   0.639   5.977  0.00  0.00    -0.310 C 
ATOM      7  S   LIG    1        1.880  -1.073   5.699  0.00  0.00    +2.400 S 
ATOM      8  O   LIG    1        1.613  -1.688   6.952  0.00  0.00    -0.940 OA
ATOM      9  O   LIG    1        2.729  -1.718   4.760  0.00  0.00    -0.920 OA
ATOM     10  C   LIG    1        0.303  -0.633   4.886  0.00  0.00    -0.330 C 
ENDBRANCH   1   4
BRANCH   1  11
ATOM     11  C   LIG    1       -1.654   2.218   3.868  0.00  0.00    +0.280 C 
BRANCH  11  13
ATOM     12  C   LIG    1       -4.144   2.178   4.079  0.00  0.00    +0.030 C 
ATOM     13  C   LIG    1       -2.889   1.316   3.922  0.00  0.00    +0.000 C 
ENDBRANCH  11  13
ENDBRANCH   1  11
BRANCH   2  14
ATOM     14  C   LIG    1       -0.729   1.579   1.267  0.00  0.00    +0.050 C 
BRANCH  14  15
ATOM     15  C   LIG    1       -0.013   1.086   0.008  0.00  0.00    +0.370 C 
BRANCH  15  16
ATOM     16  N   LIG    1       -0.721   1.571  -1.179  0.00  0.00    -0.550 N 
ATOM     17  C   LIG    1       -0.491   2.731  -1.826  0.00  0.00    +0.640 A 
ATOM     18  O   LIG    1       -1.332   2.837  -2.867  0.00  0.00    -0.240 OA
ATOM     19  C   LIG    1       -2.126   1.739  -2.911  0.00  0.00    +0.030 A 
ATOM     20  C   LIG    1       -3.145   1.344  -3.763  0.00  0.00    +0.060 A 
ATOM     21  C   LIG    1       -3.790   0.140  -3.553  0.00  0.00    +0.030 A 
ATOM     22  C   LIG    1       -3.423  -0.675  -2.497  0.00  0.00    +0.040 A 
ATOM     23  C   LIG    1       -2.408  -0.289  -1.642  0.00  0.00    +0.030 A 
ATOM     24  O   LIG    1        0.349   3.553  -1.515  0.00  0.00    -0.480 OA
ATOM     25  C   LIG    1       -1.753   0.915  -1.849  0.00  0.00    +0.070 A 
ENDBRANCH  15  16
ENDBRANCH  14  15
ENDBRANCH   2  14
TORSDOF 6
