REMARK  Name = ZINCrH000004uQ0L.0
REMARK                            x       y       z     vdW  Elec       q    Type
REMARK                         _______ _______ _______ _____ _____    ______ ____
ROOT
ATOM      1  O   LIG    1       -3.980  -0.444   2.771  0.00  0.00    -0.510 OA
ATOM      2  C   LIG    1       -3.806   0.717   3.078  0.00  0.00    +0.510 C 
ATOM      3  N   LIG    1       -2.876   1.452   2.436  0.00  0.00    -0.690 N 
ATOM      4  H   LIG    1       -2.737   2.380   2.681  0.00  0.00    +0.420 HD
ENDROOT
BRANCH   3   5
ATOM      5  C   LIG    1       -2.075   0.848   1.369  0.00  0.00    +0.300 C 
ATOM      6  C   LIG    1       -0.741   1.585   1.262  0.00  0.00    +0.030 C 
ATOM      7  C   LIG    1       -0.013   1.086   0.008  0.00  0.00    +0.030 C 
ATOM      8  C   LIG    1       -0.762   1.597  -1.221  0.00  0.00    +0.070 C 
ATOM      9  C   LIG    1       -2.229   1.272  -1.120  0.00  0.00    -0.060 A 
ATOM     10  C   LIG    1       -2.984   1.325  -2.285  0.00  0.00    +0.020 A 
ATOM     11  C   LIG    1       -4.334   1.042  -2.259  0.00  0.00    +0.030 A 
ATOM     12  C   LIG    1       -4.942   0.705  -1.063  0.00  0.00    -0.040 A 
ATOM     13  C   LIG    1       -4.192   0.651   0.096  0.00  0.00    +0.040 A 
ATOM     14 CL   LIG    1       -6.641   0.350  -1.018  0.00  0.00    -0.070 Cl
ATOM     15  C   LIG    1       -2.833   0.933   0.070  0.00  0.00    -0.090 A 
ENDBRANCH   3   5
BRANCH   2  16
ATOM     16  C   LIG    1       -4.624   1.333   4.167  0.00  0.00    +0.530 C 
ATOM     17  N   LIG    1       -5.554   0.599   4.809  0.00  0.00    -0.590 N 
ATOM     18  C   LIG    1       -5.893  -0.810   4.567  0.00  0.00    +0.310 C 
ATOM     19  C   LIG    1       -6.989  -1.178   5.532  0.00  0.00    +0.000 C 
ATOM     20  C   LIG    1       -7.297  -0.134   6.280  0.00  0.00    -0.100 C 
ATOM     21  C   LIG    1       -6.435   1.040   5.899  0.00  0.00    +0.320 C 
ATOM     22  O   LIG    1       -4.450   2.494   4.474  0.00  0.00    -0.510 OA
BRANCH  20  23
ATOM     23  C   LIG    1       -8.329  -0.122   7.337  0.00  0.00    -0.040 A 
ATOM     24  C   LIG    1       -9.461   0.683   7.203  0.00  0.00    +0.020 A 
ATOM     25  C   LIG    1      -10.424   0.685   8.191  0.00  0.00    +0.010 A 
ATOM     26  C   LIG    1      -10.264  -0.100   9.319  0.00  0.00    +0.010 A 
ATOM     27  C   LIG    1       -9.142  -0.896   9.461  0.00  0.00    +0.010 A 
ATOM     28  C   LIG    1       -8.174  -0.912   8.477  0.00  0.00    +0.020 A 
ENDBRANCH  20  23
ENDBRANCH   2  16
TORSDOF 3
