REMARK  Name = ZINCkj000005jc60.1
REMARK                            x       y       z     vdW  Elec       q    Type
REMARK                         _______ _______ _______ _____ _____    ______ ____
ROOT
ATOM      1  C   LIG    1        5.316   1.040   0.272  0.00  0.00    +0.120 C 
ATOM      2  C   LIG    1        4.384   0.393   1.299  0.00  0.00    +0.250 C 
ATOM      3  N   LIG    1        3.102   1.112   1.316  0.00  0.00    -0.380 N 
ATOM      4  C   LIG    1        3.334   2.517   1.680  0.00  0.00    +0.230 C 
ATOM      5  C   LIG    1        4.269   3.160   0.652  0.00  0.00    +0.260 C 
ATOM      6  H   LIG    1        2.486   0.686   1.992  0.00  0.00    +0.420 HD
ATOM      7  O   LIG    1        5.493   2.421   0.600  0.00  0.00    -0.350 OA
ENDROOT
BRANCH   1   9
ATOM      8  C   LIG    1        7.642   1.057  -0.640  0.00  0.00    +0.030 C 
ATOM      9  C   LIG    1        6.672   0.332   0.296  0.00  0.00    +0.240 C 
BRANCH   9  10
ATOM     10  O   LIG    1        7.194   0.346   1.626  0.00  0.00    -0.550 OA
ATOM     11  H   LIG    1        7.329   1.233   1.987  0.00  0.00    +0.390 HD
ENDBRANCH   9  10
ENDBRANCH   1   9
BRANCH   3  12
ATOM     12  C   LIG    1        2.487   1.046  -0.017  0.00  0.00    +0.310 C 
BRANCH  12  13
ATOM     13  C   LIG    1        1.109   1.654   0.036  0.00  0.00    -0.160 A 
ATOM     14  C   LIG    1        0.911   2.947  -0.405  0.00  0.00    +0.040 A 
ATOM     15  C   LIG    1       -0.352   3.507  -0.351  0.00  0.00    +0.030 A 
ATOM     16  C   LIG    1       -1.413   2.768   0.135  0.00  0.00    +0.060 A 
ATOM     17  C   LIG    1       -1.214   1.470   0.580  0.00  0.00    -0.110 A 
ATOM     18  C   LIG    1       -2.394   0.700   1.114  0.00  0.00    +0.290 C 
ATOM     19  O   LIG    1       -2.091  -0.694   1.167  0.00  0.00    -0.360 OA
ATOM     20  C   LIG    1       -0.868  -0.978   1.856  0.00  0.00    +0.220 C 
ATOM     21  C   LIG    1        0.299  -0.500   0.989  0.00  0.00    +0.040 C 
ATOM     22  C   LIG    1        0.046   0.913   0.527  0.00  0.00    -0.050 A 
ENDBRANCH  12  13
ENDBRANCH   3  12
TORSDOF 4
