REMARK  Name = ZINCkj000005jc60.2
REMARK                            x       y       z     vdW  Elec       q    Type
REMARK                         _______ _______ _______ _____ _____    ______ ____
ROOT
ATOM      1  C   LIG    1        0.717  -0.574   1.102  0.00  0.00    +0.120 C 
ATOM      2  C   LIG    1        2.156  -0.054   1.093  0.00  0.00    +0.250 C 
ATOM      3  N   LIG    1        2.144   1.414   1.160  0.00  0.00    -0.390 N 
ATOM      4  C   LIG    1        1.421   1.950  -0.001  0.00  0.00    +0.230 C 
ATOM      5  C   LIG    1       -0.017   1.426   0.010  0.00  0.00    +0.260 C 
ATOM      6  H   LIG    1        1.684   1.708   2.009  0.00  0.00    +0.420 HD
ATOM      7  O   LIG    1        0.002  -0.004   0.002  0.00  0.00    -0.350 OA
ENDROOT
BRANCH   1   9
ATOM      8  C   LIG    1       -0.716  -2.606   0.851  0.00  0.00    +0.030 C 
ATOM      9  C   LIG    1        0.723  -2.099   0.972  0.00  0.00    +0.240 C 
BRANCH   9  10
ATOM     10  O   LIG    1        1.460  -2.475  -0.193  0.00  0.00    -0.550 OA
ATOM     11  H   LIG    1        1.101  -2.119  -1.017  0.00  0.00    +0.390 HD
ENDBRANCH   9  10
ENDBRANCH   1   9
BRANCH   3  12
ATOM     12  C   LIG    1        3.525   1.916   1.152  0.00  0.00    +0.320 C 
BRANCH  12  13
ATOM     13  C   LIG    1        3.517   3.411   1.344  0.00  0.00    -0.160 A 
ATOM     14  C   LIG    1        3.660   4.245   0.253  0.00  0.00    +0.040 A 
ATOM     15  C   LIG    1        3.653   5.616   0.429  0.00  0.00    +0.030 A 
ATOM     16  C   LIG    1        3.506   6.146   1.696  0.00  0.00    +0.060 A 
ATOM     17  C   LIG    1        3.363   5.310   2.792  0.00  0.00    -0.110 A 
ATOM     18  C   LIG    1        3.210   5.927   4.158  0.00  0.00    +0.290 C 
ATOM     19  O   LIG    1        2.713   4.961   5.084  0.00  0.00    -0.370 OA
ATOM     20  C   LIG    1        3.469   3.745   5.090  0.00  0.00    +0.240 C 
ATOM     21  C   LIG    1        3.200   3.001   3.781  0.00  0.00    +0.040 C 
ATOM     22  C   LIG    1        3.361   3.942   2.615  0.00  0.00    -0.060 A 
ENDBRANCH  12  13
ENDBRANCH   3  12
TORSDOF 4
