REMARK  Name = ZINCtV00000L6jPO.0
REMARK                            x       y       z     vdW  Elec       q    Type
REMARK                         _______ _______ _______ _____ _____    ______ ____
ROOT
ATOM      1  C   LIG    1        1.278   1.728   0.247  0.00  0.00    +0.160 A 
ATOM      2  N   LIG    1        2.010   0.644   0.132  0.00  0.00    -0.280 NA
ATOM      3  N   LIG    1        1.261  -0.359  -0.160  0.00  0.00    -0.250 NA
ATOM      4  C   LIG    1        0.018   0.020  -0.246  0.00  0.00    +0.180 A 
ATOM      5  N   LIG    1       -0.017   1.363   0.009  0.00  0.00    -0.420 N 
ENDROOT
BRANCH   5   6
ATOM      6  C   LIG    1       -1.196   2.232   0.020  0.00  0.00    +0.190 C 
ATOM      7  C   LIG    1       -0.962   3.742  -0.059  0.00  0.00    +0.070 C 
ATOM      8  C   LIG    1       -1.419   3.106   1.256  0.00  0.00    +0.060 C 
ENDBRANCH   5   6
BRANCH   1   9
ATOM      9  S   LIG    1        1.856   3.346   0.635  0.00  0.00    +0.070 S 
BRANCH   9  11
ATOM     10  C   LIG    1        4.194   2.581  -0.553  0.00  0.00    +0.090 C 
ATOM     11  C   LIG    1        3.628   3.016   0.800  0.00  0.00    +0.100 C 
BRANCH  11  12
ATOM     12  C   LIG    1        4.332   4.266   1.260  0.00  0.00    +0.100 A 
ATOM     13  N   LIG    1        4.123   5.430   0.773  0.00  0.00    -0.450 NA
ATOM     14  C   LIG    1        4.822   6.461   1.284  0.00  0.00    +0.080 A 
ATOM     15  C   LIG    1        4.790   7.828   0.942  0.00  0.00    +0.080 A 
ATOM     16  C   LIG    1        5.594   8.719   1.587  0.00  0.00    +0.030 A 
ATOM     17  C   LIG    1        6.457   8.301   2.589  0.00  0.00    +0.040 A 
ATOM     18  C   LIG    1        6.511   6.971   2.943  0.00  0.00    +0.060 A 
ATOM     19  C   LIG    1        5.696   6.046   2.295  0.00  0.00    -0.180 A 
ATOM     20  S   LIG    1        5.512   4.306   2.492  0.00  0.00    +0.130 S 
ENDBRANCH  11  12
ENDBRANCH   9  11
ENDBRANCH   1   9
BRANCH   4  21
ATOM     21  C   LIG    1       -1.163  -0.858  -0.570  0.00  0.00    +0.350 C 
BRANCH  21  22
ATOM     22  O   LIG    1       -1.367  -0.881  -1.984  0.00  0.00    -0.300 OA
BRANCH  22  23
ATOM     23  C   LIG    1       -2.401  -1.632  -2.446  0.00  0.00    +0.140 A 
ATOM     24  C   LIG    1       -3.203  -2.332  -1.558  0.00  0.00    -0.060 A 
ATOM     25  C   LIG    1       -4.253  -3.096  -2.030  0.00  0.00    +0.060 A 
ATOM     26  C   LIG    1       -4.505  -3.162  -3.388  0.00  0.00    +0.000 A 
ATOM     27  C   LIG    1       -3.708  -2.465  -4.277  0.00  0.00    +0.070 A 
ATOM     28  C   LIG    1       -2.660  -1.695  -3.809  0.00  0.00    -0.070 A 
ATOM     29 CL   LIG    1       -1.663  -0.814  -4.925  0.00  0.00    -0.050 Cl
ENDBRANCH  22  23
ENDBRANCH  21  22
ENDBRANCH   4  21
TORSDOF 7
