REMARK  Name = ZINCpk00000ebD66.0
REMARK                            x       y       z     vdW  Elec       q    Type
REMARK                         _______ _______ _______ _____ _____    ______ ____
ROOT
ATOM      1  O   LIG    1       -1.251   6.476   0.752  0.00  0.00    -0.500 OA
ATOM      2  C   LIG    1       -0.724   5.878   1.667  0.00  0.00    +0.520 C 
ATOM      3  N   LIG    1        0.154   4.889   1.408  0.00  0.00    -0.700 N 
ATOM      4  H   LIG    1        0.576   4.411   2.139  0.00  0.00    +0.420 HD
ENDROOT
BRANCH   2   5
ATOM      5  C   LIG    1       -1.049   6.237   3.080  0.00  0.00    +0.510 C 
ATOM      6  N   LIG    1       -1.928   7.226   3.338  0.00  0.00    -0.640 N 
ATOM      7  H   LIG    1       -2.300   7.747   2.610  0.00  0.00    +0.430 HD
ATOM      8  O   LIG    1       -0.522   5.638   3.995  0.00  0.00    -0.490 OA
BRANCH   6   9
ATOM      9  C   LIG    1       -2.304   7.500   4.658  0.00  0.00    +0.130 A 
ATOM     10  C   LIG    1       -1.383   7.355   5.687  0.00  0.00    +0.070 A 
ATOM     11  C   LIG    1       -1.756   7.631   6.990  0.00  0.00    +0.080 A 
ATOM     12  C   LIG    1       -3.050   8.042   7.270  0.00  0.00    +0.090 A 
ATOM     13  C   LIG    1       -3.971   8.182   6.246  0.00  0.00    +0.030 A 
ATOM     14  F   LIG    1       -3.413   8.306   8.545  0.00  0.00    -0.110 F 
ATOM     15  F   LIG    1       -0.860   7.495   7.992  0.00  0.00    -0.110 F 
ATOM     16  C   LIG    1       -3.602   7.912   4.941  0.00  0.00    +0.110 A 
ATOM     17  F   LIG    1       -4.501   8.048   3.942  0.00  0.00    -0.120 F 
ENDBRANCH   6   9
ENDBRANCH   2   5
BRANCH   3  18
ATOM     18  C   LIG    1        0.473   4.537   0.022  0.00  0.00    +0.440 C 
BRANCH  18  19
ATOM     19  C   LIG    1        1.474   3.410   0.008  0.00  0.00    +0.100 A 
ATOM     20  N   LIG    1        2.776   3.532   0.004  0.00  0.00    -0.220 NA
ATOM     21  N   LIG    1        3.333   2.372  -0.009  0.00  0.00    -0.280 NA
ATOM     22  C   LIG    1        2.399   1.434  -0.014  0.00  0.00    +0.200 A 
ATOM     23  C   LIG    1        2.440   0.027  -0.028  0.00  0.00    +0.080 A 
ATOM     24  C   LIG    1        1.272  -0.671  -0.030  0.00  0.00    +0.070 A 
ATOM     25  C   LIG    1        0.048   0.018  -0.019  0.00  0.00    +0.030 A 
ATOM     26  C   LIG    1        0.024   1.367  -0.006  0.00  0.00    +0.230 A 
ATOM     27  N   LIG    1        1.187   2.080  -0.003  0.00  0.00    -0.380 N 
ENDBRANCH  18  19
ENDBRANCH   3  18
TORSDOF 4
