REMARK  Name = ZINCb70000002CQY.0
REMARK                            x       y       z     vdW  Elec       q    Type
REMARK                         _______ _______ _______ _____ _____    ______ ____
ROOT
ATOM      1  C   LIG    1       -2.233   1.026   1.204  0.00  0.00    -0.080 C 
ATOM      2  C   LIG    1       -0.869   1.713   1.084  0.00  0.00    +0.000 C 
ATOM      3  C   LIG    1       -0.112   1.121  -0.108  0.00  0.00    +0.230 C 
ATOM      4  O   LIG    1       -0.891   1.286  -1.295  0.00  0.00    -0.370 OA
ATOM      5  C   LIG    1       -2.157   0.625  -1.258  0.00  0.00    +0.220 C 
ATOM      6  C   LIG    1       -2.997   1.196  -0.113  0.00  0.00    +0.030 C 
ENDROOT
BRANCH   1   7
ATOM      7  C   LIG    1       -3.030   1.663   2.344  0.00  0.00    +0.280 C 
BRANCH   7   8
ATOM      8  N   LIG    1       -2.358   1.393   3.622  0.00  0.00    -0.640 N 
ATOM      9  H   LIG    1       -2.852   1.861   4.367  0.00  0.00    +0.440 HD
ATOM     10  H   LIG    1       -1.410   1.735   3.582  0.00  0.00    +0.430 HD
ATOM     11  H   LIG    1       -2.351   0.399   3.795  0.00  0.00    +0.430 HD
ENDBRANCH   7   8
ENDBRANCH   1   7
BRANCH   1  12
ATOM     12  C   LIG    1       -2.033  -0.464   1.490  0.00  0.00    +0.030 C 
BRANCH  12  13
ATOM     13  C   LIG    1       -3.394  -1.135   1.678  0.00  0.00    +0.170 C 
BRANCH  13  14
ATOM     14  O   LIG    1       -3.206  -2.521   1.970  0.00  0.00    -0.570 OA
ATOM     15  H   LIG    1       -4.029  -3.011   2.102  0.00  0.00    +0.390 HD
ENDBRANCH  13  14
ENDBRANCH  12  13
ENDBRANCH   1  12
TORSDOF 5
