REMARK  Name = ZINCAx0000000fUb.0
REMARK                            x       y       z     vdW  Elec       q    Type
REMARK                         _______ _______ _______ _____ _____    ______ ____
ROOT
ATOM      1  C   LIG    1        1.461   5.032   2.574  0.00  0.00    +0.160 C 
ATOM      2  C   LIG    1        1.041   5.831   1.331  0.00  0.00    +0.280 C 
ATOM      3  N   LIG    1       -0.164   5.190   0.777  0.00  0.00    -0.550 N 
ATOM      4  C   LIG    1       -0.195   3.786   0.732  0.00  0.00    +0.070 A 
ATOM      5  C   LIG    1       -1.157   3.137  -0.024  0.00  0.00    +0.050 A 
ATOM      6  C   LIG    1       -1.183   1.755  -0.066  0.00  0.00    +0.000 A 
ATOM      7  C   LIG    1       -0.257   1.023   0.652  0.00  0.00    +0.030 A 
ATOM      8  C   LIG    1        0.707   1.666   1.407  0.00  0.00    +0.020 A 
ATOM      9  C   LIG    1        0.744   3.051   1.451  0.00  0.00    +0.090 A 
ATOM     10  C   LIG    1       -1.201   5.925   0.329  0.00  0.00    +0.570 C 
ATOM     11  O   LIG    1       -2.165   5.376  -0.170  0.00  0.00    -0.500 OA
ATOM     12  O   LIG    1        1.697   3.675   2.192  0.00  0.00    -0.280 OA
ENDROOT
BRANCH   1  14
ATOM     13  O   LIG    1        3.749   4.977   3.149  0.00  0.00    -0.500 OA
ATOM     14  C   LIG    1        2.721   5.621   3.153  0.00  0.00    +0.530 C 
ATOM     15  N   LIG    1        2.707   6.863   3.676  0.00  0.00    -0.610 N 
ATOM     16  C   LIG    1        1.474   7.666   3.686  0.00  0.00    +0.240 C 
ATOM     17  C   LIG    1        1.257   8.194   5.114  0.00  0.00    +0.220 C 
ATOM     18  O   LIG    1        2.447   8.852   5.556  0.00  0.00    -0.370 OA
ATOM     19  C   LIG    1        3.591   7.998   5.643  0.00  0.00    +0.220 C 
ATOM     20  C   LIG    1        3.925   7.459   4.247  0.00  0.00    +0.270 C 
ENDBRANCH   1  14
BRANCH  10  21
ATOM     21  C   LIG    1       -1.167   7.398   0.444  0.00  0.00    -0.120 A 
ATOM     22  C   LIG    1        0.006   8.097   0.156  0.00  0.00    +0.030 A 
ATOM     23  C   LIG    1        0.030   9.472   0.261  0.00  0.00    +0.050 A 
ATOM     24  C   LIG    1       -1.103  10.158   0.660  0.00  0.00    -0.090 A 
ATOM     25  C   LIG    1       -2.268   9.472   0.952  0.00  0.00    +0.040 A 
ATOM     26  C   LIG    1       -2.307   8.097   0.846  0.00  0.00    +0.080 A 
BRANCH  24  27
ATOM     27  C   LIG    1       -1.069  11.660   0.778  0.00  0.00    +0.400 C 
BRANCH  27  28
ATOM     28  N   LIG    1       -0.661  12.035   2.134  0.00  0.00    -0.400 N 
ATOM     29  N   LIG    1        0.649  12.250   2.587  0.00  0.00    -0.000 NA
ATOM     30  N   LIG    1        0.625  12.564   3.834  0.00  0.00    -0.210 NA
ATOM     31  C   LIG    1       -0.645  12.582   4.288  0.00  0.00    -0.020 A 
ATOM     32  C   LIG    1       -1.210  12.855   5.540  0.00  0.00    +0.110 A 
ATOM     33  C   LIG    1       -2.563  12.793   5.705  0.00  0.00    +0.000 A 
ATOM     34  C   LIG    1       -3.393  12.460   4.642  0.00  0.00    +0.080 A 
ATOM     35  C   LIG    1       -2.863  12.187   3.402  0.00  0.00    +0.000 A 
ATOM     36  C   LIG    1       -1.486  12.250   3.212  0.00  0.00    +0.090 A 
ENDBRANCH  27  28
ENDBRANCH  24  27
ENDBRANCH  10  21
TORSDOF 4
