REMARK  Name = ZINCrH000004lzUr.0
REMARK                            x       y       z     vdW  Elec       q    Type
REMARK                         _______ _______ _______ _____ _____    ______ ____
ROOT
ATOM      1  C   LIG    1        5.970   0.918  -0.062  0.00  0.00    +0.600 C 
ATOM      2  N   LIG    1        6.567   2.127  -0.060  0.00  0.00    -0.650 N 
ATOM      3  H   LIG    1        6.032   2.933  -0.127  0.00  0.00    +0.430 HD
ATOM      4  O   LIG    1        6.645  -0.094  -0.060  0.00  0.00    -0.490 OA
ENDROOT
BRANCH   1   6
ATOM      5  C   LIG    1        3.796  -0.336  -0.070  0.00  0.00    -0.080 A 
ATOM      6  C   LIG    1        4.504   0.824  -0.068  0.00  0.00    -0.010 A 
ATOM      7  O   LIG    1        3.658   1.875  -0.070  0.00  0.00    -0.180 OA
ATOM      8  C   LIG    1        2.376   1.459  -0.075  0.00  0.00    +0.070 A 
ATOM      9  C   LIG    1        1.158   2.129  -0.078  0.00  0.00    +0.030 A 
ATOM     10  C   LIG    1       -0.019   1.411  -0.082  0.00  0.00    +0.060 A 
ATOM     11  C   LIG    1       -0.004   0.024  -0.083  0.00  0.00    -0.010 A 
ATOM     12  C   LIG    1        1.181  -0.656  -0.080  0.00  0.00    +0.070 A 
ATOM     13  C   LIG    1        2.385   0.052  -0.075  0.00  0.00    -0.130 A 
BRANCH   5  14
ATOM     14  C   LIG    1        4.351  -1.737  -0.069  0.00  0.00    +0.260 C 
BRANCH  14  16
ATOM     15  C   LIG    1        5.056  -3.503  -1.528  0.00  0.00    +0.210 C 
ATOM     16  O   LIG    1        4.531  -2.179  -1.416  0.00  0.00    -0.380 OA
ENDBRANCH  14  16
ENDBRANCH   5  14
ENDBRANCH   1   6
BRANCH   2  17
ATOM     17  C   LIG    1        7.952   2.218   0.040  0.00  0.00    +0.210 A 
ATOM     18  C   LIG    1        8.760   1.262  -0.563  0.00  0.00    +0.020 A 
ATOM     19  C   LIG    1       10.133   1.355  -0.463  0.00  0.00    +0.070 A 
ATOM     20  C   LIG    1       10.717   2.399   0.236  0.00  0.00    -0.010 A 
ATOM     21  C   LIG    1        9.931   3.357   0.840  0.00  0.00    +0.060 A 
ATOM     22  C   LIG    1        8.540   3.280   0.744  0.00  0.00    -0.170 A 
BRANCH  22  23
ATOM     23  C   LIG    1        7.694   4.304   1.384  0.00  0.00    +0.570 C 
ATOM     24  N   LIG    1        8.262   5.379   1.967  0.00  0.00    -0.700 N 
ATOM     25  H   LIG    1        9.226   5.479   1.965  0.00  0.00    +0.400 HD
ATOM     26  O   LIG    1        6.485   4.180   1.386  0.00  0.00    -0.540 OA
BRANCH  24  27
ATOM     27  C   LIG    1        7.421   6.397   2.602  0.00  0.00    +0.220 C 
ATOM     28  C   LIG    1        7.768   7.864   2.340  0.00  0.00    +0.010 C 
ATOM     29  C   LIG    1        8.052   7.243   3.710  0.00  0.00    +0.020 C 
ENDBRANCH  24  27
ENDBRANCH  22  23
ENDBRANCH   2  17
TORSDOF 6
