REMARK  Name = ZINCrg000000rpQM.0
REMARK                            x       y       z     vdW  Elec       q    Type
REMARK                         _______ _______ _______ _____ _____    ______ ____
ROOT
ATOM      1  N   LIG    1        1.143   1.898   0.001  0.00  0.00    -0.730 N 
ATOM      2  H   LIG    1        1.130   2.868   0.007  0.00  0.00    +0.410 HD
ATOM      3  C   LIG    1       -0.014   1.209   0.009  0.00  0.00    +0.520 C 
ATOM      4  O   LIG    1        0.002  -0.004   0.002  0.00  0.00    -0.530 OA
ENDROOT
BRANCH   1   5
ATOM      5  C   LIG    1        2.422   1.183  -0.015  0.00  0.00    +0.310 C 
BRANCH   5   6
ATOM      6  C   LIG    1        3.571   2.193  -0.020  0.00  0.00    -0.380 C 
BRANCH   6   7
ATOM      7  S   LIG    1        5.154   1.308  -0.040  0.00  0.00    +2.620 S 
ATOM      8  O   LIG    1        5.338   0.643  -1.282  0.00  0.00    -0.940 OA
ATOM      9  O   LIG    1        5.362   0.630   1.191  0.00  0.00    -0.940 OA
BRANCH   7  13
ATOM     10  C   LIG    1        7.462   5.174   2.371  0.00  0.00    +0.070 C 
ATOM     11  C   LIG    1        6.740   4.576   1.162  0.00  0.00    +0.140 C 
ATOM     12  C   LIG    1        6.833   3.047   1.215  0.00  0.00    +0.280 C 
ATOM     13  N   LIG    1        6.298   2.505  -0.045  0.00  0.00    -1.000 NA
ATOM     14  C   LIG    1        6.813   3.056  -1.308  0.00  0.00    +0.280 C 
ATOM     15  C   LIG    1        6.717   4.588  -1.238  0.00  0.00    +0.190 C 
ATOM     16  C   LIG    1        5.247   5.013  -1.228  0.00  0.00    +0.010 C 
ATOM     17  O   LIG    1        7.353   5.044  -0.041  0.00  0.00    -0.370 OA
ENDBRANCH   7  13
ENDBRANCH   6   7
ENDBRANCH   5   6
ENDBRANCH   1   5
BRANCH   3  18
ATOM     18  C   LIG    1       -1.330   1.944   0.019  0.00  0.00    +0.080 C 
BRANCH  18  19
ATOM     19  C   LIG    1       -2.479   0.934   0.019  0.00  0.00    +0.170 C 
BRANCH  19  20
ATOM     20  C   LIG    1       -3.794   1.670   0.029  0.00  0.00    +0.280 A 
ATOM     21  N   LIG    1       -4.144   2.559   0.912  0.00  0.00    -0.490 NA
ATOM     22  C   LIG    1       -5.386   3.025   0.624  0.00  0.00    +0.050 A 
ATOM     23  C   LIG    1       -6.226   3.967   1.224  0.00  0.00    +0.070 A 
ATOM     24  C   LIG    1       -7.457   4.221   0.689  0.00  0.00    +0.000 A 
ATOM     25  C   LIG    1       -7.885   3.552  -0.449  0.00  0.00    +0.030 A 
ATOM     26  C   LIG    1       -7.074   2.618  -1.058  0.00  0.00    +0.010 A 
ATOM     27  C   LIG    1       -5.820   2.347  -0.528  0.00  0.00    +0.050 A 
ATOM     28  N   LIG    1       -4.791   1.497  -0.881  0.00  0.00    -0.600 N 
ATOM     29  H   LIG    1       -4.780   0.889  -1.636  0.00  0.00    +0.420 HD
ENDBRANCH  19  20
ENDBRANCH  18  19
ENDBRANCH   3  18
TORSDOF 7
