REMARK  Name = ZINCrg000000r9uR.0
REMARK                            x       y       z     vdW  Elec       q    Type
REMARK                         _______ _______ _______ _____ _____    ______ ____
ROOT
ATOM      1  C   LIG    1       -1.187   1.624   0.017  0.00  0.00    +0.520 C 
ATOM      2  N   LIG    1       -0.011   0.966   0.007  0.00  0.00    -0.720 N 
ATOM      3  H   LIG    1        0.002  -0.004   0.002  0.00  0.00    +0.410 HD
ATOM      4  O   LIG    1       -1.204   2.837   0.023  0.00  0.00    -0.520 OA
ENDROOT
BRANCH   1   5
ATOM      5  C   LIG    1       -2.482   0.853   0.018  0.00  0.00    +0.250 C 
BRANCH   5   6
ATOM      6  N   LIG    1       -3.608   1.789   0.029  0.00  0.00    -0.700 N 
ATOM      7  H   LIG    1       -3.496   2.687  -0.322  0.00  0.00    +0.420 HD
ATOM      8  C   LIG    1       -4.801   1.404   0.526  0.00  0.00    +0.610 C 
ATOM      9  O   LIG    1       -4.941   0.278   0.966  0.00  0.00    -0.520 OA
BRANCH   8  10
ATOM     10  C   LIG    1       -5.928   2.342   0.536  0.00  0.00    -0.090 A 
ATOM     11  C   LIG    1       -7.183   2.083   1.008  0.00  0.00    +0.050 A 
ATOM     12  C   LIG    1       -7.934   3.254   0.823  0.00  0.00    -0.070 A 
ATOM     13  C   LIG    1       -7.114   4.166   0.253  0.00  0.00    +0.210 A 
ATOM     14  O   LIG    1       -5.905   3.614   0.087  0.00  0.00    -0.160 OA
ENDBRANCH   8  10
ENDBRANCH   5   6
BRANCH   5  15
ATOM     15  C   LIG    1       -2.557  -0.021  -1.235  0.00  0.00    +0.070 C 
BRANCH  15  16
ATOM     16  C   LIG    1       -3.811  -0.896  -1.173  0.00  0.00    +0.100 C 
BRANCH  16  18
ATOM     17  C   LIG    1       -5.425  -2.880  -2.405  0.00  0.00    +0.140 C 
ATOM     18  S   LIG    1       -3.900  -1.932  -2.659  0.00  0.00    -0.270 S 
ENDBRANCH  16  18
ENDBRANCH  15  16
ENDBRANCH   5  15
ENDBRANCH   1   5
BRANCH   2  19
ATOM     19  C   LIG    1        1.248   1.716  -0.001  0.00  0.00    +0.330 C 
BRANCH  19  20
ATOM     20  C   LIG    1        2.406   0.752  -0.017  0.00  0.00    -0.050 A 
ATOM     21  C   LIG    1        2.953   0.308   1.173  0.00  0.00    +0.020 A 
ATOM     22  C   LIG    1        4.012  -0.580   1.158  0.00  0.00    +0.130 A 
ATOM     23  C   LIG    1        4.532  -1.016  -0.047  0.00  0.00    -0.670 A 
ATOM     24  C   LIG    1        3.989  -0.567  -1.236  0.00  0.00    +0.130 A 
ATOM     25  C   LIG    1        2.926   0.316  -1.221  0.00  0.00    +0.020 A 
BRANCH  23  26
ATOM     26  S   LIG    1        5.886  -2.142  -0.066  0.00  0.00    +2.700 S 
ATOM     27  O   LIG    1        5.835  -2.811  -1.319  0.00  0.00    -0.960 OA
ATOM     28  O   LIG    1        5.859  -2.824   1.181  0.00  0.00    -0.960 OA
BRANCH  26  29
ATOM     29  N   LIG    1        7.275  -1.240  -0.074  0.00  0.00    -1.250 NA
ATOM     30  H   LIG    1        7.281  -0.363  -0.489  0.00  0.00    +0.420 HD
ATOM     31  H   LIG    1        8.082  -1.587   0.336  0.00  0.00    +0.420 HD
ENDBRANCH  26  29
ENDBRANCH  23  26
ENDBRANCH  19  20
ENDBRANCH   2  19
TORSDOF 10
