REMARK  Name = ZINCtV00000tjrMo.0
REMARK                            x       y       z     vdW  Elec       q    Type
REMARK                         _______ _______ _______ _____ _____    ______ ____
ROOT
ATOM      1  C   LIG    1       -1.791   2.258  -1.306  0.00  0.00    +0.020 C 
ATOM      2  C   LIG    1       -1.288   1.680   0.019  0.00  0.00    +0.290 C 
ENDROOT
BRANCH   2   3
ATOM      3  C   LIG    1       -2.353   0.799   0.619  0.00  0.00    -0.130 A 
ATOM      4  C   LIG    1       -2.523  -0.492   0.154  0.00  0.00    +0.060 A 
ATOM      5  C   LIG    1       -3.494  -1.304   0.707  0.00  0.00    -0.020 A 
ATOM      6  C   LIG    1       -4.307  -0.820   1.721  0.00  0.00    +0.130 A 
ATOM      7  C   LIG    1       -4.138   0.478   2.182  0.00  0.00    -0.080 A 
ATOM      8  C   LIG    1       -3.162   1.284   1.630  0.00  0.00    +0.060 A 
BRANCH   6   9
ATOM      9  O   LIG    1       -5.267  -1.615   2.263  0.00  0.00    -0.310 OA
BRANCH   9  10
ATOM     10  C   LIG    1       -6.144  -1.015   3.218  0.00  0.00    +0.210 C 
ATOM     11  C   LIG    1       -5.495  -1.057   4.603  0.00  0.00    +0.040 C 
BRANCH  10  12
ATOM     12  C   LIG    1       -7.446  -1.772   3.250  0.00  0.00    -0.090 A 
ATOM     13  C   LIG    1       -7.446  -3.151   3.163  0.00  0.00    +0.040 A 
ATOM     14  C   LIG    1       -8.640  -3.846   3.197  0.00  0.00    +0.000 A 
ATOM     15  C   LIG    1       -9.836  -3.161   3.308  0.00  0.00    +0.010 A 
ATOM     16  C   LIG    1       -9.836  -1.781   3.389  0.00  0.00    +0.010 A 
ATOM     17  C   LIG    1       -8.642  -1.087   3.360  0.00  0.00    +0.010 A 
ENDBRANCH  10  12
ENDBRANCH   9  10
ENDBRANCH   6   9
ENDBRANCH   2   3
BRANCH   2  18
ATOM     18  N   LIG    1       -0.078   0.890  -0.221  0.00  0.00    -0.740 N 
ATOM     19  H   LIG    1       -0.142  -0.069  -0.349  0.00  0.00    +0.400 HD
BRANCH  18  20
ATOM     20  C   LIG    1        1.178   1.524  -0.273  0.00  0.00    +0.070 A 
ATOM     21  C   LIG    1        1.409   2.853  -0.119  0.00  0.00    +0.140 A 
ATOM     22  N   LIG    1        2.749   3.052  -0.236  0.00  0.00    -0.380 N 
ATOM     23  N   LIG    1        3.349   1.809  -0.477  0.00  0.00    -0.270 NA
ATOM     24  C   LIG    1        3.442   4.339  -0.135  0.00  0.00    +0.350 C 
ATOM     25  C   LIG    1        2.411   0.896  -0.499  0.00  0.00    +0.050 A 
BRANCH  25  26
ATOM     26  C   LIG    1        2.621  -0.578  -0.729  0.00  0.00    +0.070 C 
ATOM     27  C   LIG    1        3.588  -1.145   0.331  0.00  0.00    +0.020 C 
ATOM     28  C   LIG    1        4.433  -2.187  -0.445  0.00  0.00    +0.020 C 
ATOM     29  C   LIG    1        4.630  -1.509  -1.824  0.00  0.00    +0.010 C 
ATOM     30  C   LIG    1        3.283  -0.809  -2.098  0.00  0.00    +0.020 C 
ENDBRANCH  25  26
ENDBRANCH  18  20
ENDBRANCH   2  18
TORSDOF 7
