REMARK  Name = ZINCpk00000y6yOV.0
REMARK                            x       y       z     vdW  Elec       q    Type
REMARK                         _______ _______ _______ _____ _____    ______ ____
ROOT
ATOM      1  C   LIG    1        4.925   1.150  -0.039  0.00  0.00    +0.290 C 
ENDROOT
BRANCH   1   2
ATOM      2  C   LIG    1        6.049   2.188  -0.044  0.00  0.00    +0.010 C 
ATOM      3  C   LIG    1        6.051   2.995  -1.363  0.00  0.00    +0.060 C 
ATOM      4  C   LIG    1        7.024   2.250  -2.251  0.00  0.00    +0.520 C 
ATOM      5  N   LIG    1        7.780   1.419  -1.514  0.00  0.00    -0.620 N 
ATOM      6  C   LIG    1        8.818   0.542  -2.060  0.00  0.00    +0.310 C 
ATOM      7  O   LIG    1        7.109   2.384  -3.454  0.00  0.00    -0.520 OA
ATOM      8  C   LIG    1        7.433   1.504  -0.090  0.00  0.00    +0.290 C 
BRANCH   8   9
ATOM      9  C   LIG    1        8.451   2.337   0.646  0.00  0.00    -0.060 A 
ATOM     10  C   LIG    1        9.038   3.438   0.042  0.00  0.00    -0.030 A 
ATOM     11  C   LIG    1        9.965   4.180   0.750  0.00  0.00    +0.260 A 
ATOM     12  N   LIG    1       10.298   3.845   1.982  0.00  0.00    -0.480 NA
ATOM     13  C   LIG    1        9.763   2.802   2.586  0.00  0.00    +0.260 A 
ATOM     14  C   LIG    1        8.826   2.016   1.942  0.00  0.00    -0.020 A 
ENDBRANCH   8   9
ENDBRANCH   1   2
BRANCH   1  16
ATOM     15  C   LIG    1        2.488   1.115  -0.016  0.00  0.00    +0.580 C 
ATOM     16  N   LIG    1        3.629   1.834  -0.023  0.00  0.00    -0.710 N 
ATOM     17  H   LIG    1        3.592   2.803  -0.017  0.00  0.00    +0.410 HD
ATOM     18  O   LIG    1        2.535  -0.098  -0.023  0.00  0.00    -0.520 OA
BRANCH  15  22
ATOM     19  C   LIG    1       -2.525   1.030   0.020  0.00  0.00    +0.160 C 
ATOM     20  C   LIG    1       -1.213   1.772   0.017  0.00  0.00    +0.190 A 
ATOM     21  C   LIG    1       -0.013   1.076   0.008  0.00  0.00    -0.020 A 
ATOM     22  C   LIG    1        1.175   1.808   0.001  0.00  0.00    +0.130 A 
ATOM     23  N   LIG    1        1.111   3.137   0.008  0.00  0.00    -0.500 NA
ATOM     24  C   LIG    1       -0.050   3.755   0.022  0.00  0.00    +0.330 A 
ATOM     25  C   LIG    1       -0.078   5.261   0.030  0.00  0.00    +0.180 C 
ATOM     26  N   LIG    1       -1.191   3.093   0.029  0.00  0.00    -0.500 NA
ENDBRANCH  15  22
ENDBRANCH   1  16
TORSDOF 4
