REMARK  Name = ZINCrD00000hQ5si.0
REMARK                            x       y       z     vdW  Elec       q    Type
REMARK                         _______ _______ _______ _____ _____    ______ ____
ROOT
ATOM      1  N   LIG    1       -2.176  -2.097   0.842  0.00  0.00    -0.530 NA
ATOM      2  C   LIG    1       -1.067  -2.834   1.463  0.00  0.00    +0.170 C 
ATOM      3  C   LIG    1       -1.091  -2.604   2.978  0.00  0.00    +0.280 C 
ATOM      4  N   LIG    1       -2.429  -2.951   3.482  0.00  0.00    -0.620 N 
ATOM      5  C   LIG    1       -3.598  -2.357   2.818  0.00  0.00    +0.300 C 
ATOM      6  C   LIG    1       -2.578  -3.793   4.525  0.00  0.00    +0.520 C 
ATOM      7  O   LIG    1       -3.681  -3.997   4.986  0.00  0.00    -0.530 OA
ATOM      8  C   LIG    1       -3.476  -2.596   1.310  0.00  0.00    +0.170 C 
ENDROOT
BRANCH   6   9
ATOM      9  C   LIG    1       -1.375  -4.479   5.117  0.00  0.00    +0.070 C 
ATOM     10  C   LIG    1       -0.711  -3.554   6.140  0.00  0.00    +0.050 C 
BRANCH   9  11
ATOM     11  C   LIG    1       -1.807  -5.753   5.798  0.00  0.00    -0.170 A 
ATOM     12  C   LIG    1       -2.669  -5.858   6.822  0.00  0.00    +0.270 A 
ATOM     13  N   LIG    1       -2.819  -7.172   7.172  0.00  0.00    -0.490 N 
ATOM     14  C   LIG    1       -2.031  -7.964   6.368  0.00  0.00    +0.090 A 
ATOM     15  C   LIG    1       -1.805  -9.335   6.299  0.00  0.00    -0.010 A 
ATOM     16  C   LIG    1       -0.934  -9.838   5.358  0.00  0.00    +0.020 A 
ATOM     17  C   LIG    1       -0.277  -8.992   4.476  0.00  0.00    -0.020 A 
ATOM     18  C   LIG    1       -0.484  -7.642   4.526  0.00  0.00    +0.040 A 
ATOM     19  C   LIG    1       -3.685  -7.662   8.247  0.00  0.00    +0.310 C 
ATOM     20  C   LIG    1       -1.362  -7.110   5.471  0.00  0.00    -0.100 A 
ENDBRANCH   9  11
ENDBRANCH   6   9
BRANCH   1  21
ATOM     21  C   LIG    1       -2.088  -2.150  -0.623  0.00  0.00    +0.280 C 
BRANCH  21  26
ATOM     22  C   LIG    1        1.796   1.255  -2.305  0.00  0.00    +0.180 C 
ATOM     23  C   LIG    1        0.899   0.137  -1.842  0.00  0.00    +0.040 A 
ATOM     24  N   LIG    1        1.275  -1.084  -1.659  0.00  0.00    -0.480 NA
ATOM     25  C   LIG    1        0.359  -1.940  -1.251  0.00  0.00    +0.210 A 
ATOM     26  C   LIG    1       -0.856  -1.411  -1.080  0.00  0.00    -0.220 A 
ATOM     27  S   LIG    1       -0.765   0.301  -1.484  0.00  0.00    +0.150 S 
ENDBRANCH  21  26
ENDBRANCH   1  21
TORSDOF 4
