REMARK  Name = ZINCtV00000L6k8q.1
REMARK                            x       y       z     vdW  Elec       q    Type
REMARK                         _______ _______ _______ _____ _____    ______ ____
ROOT
ATOM      1  C   LIG    1        3.343   2.878  -1.167  0.00  0.00    +0.060 C 
ATOM      2  C   LIG    1        4.121   2.798   0.143  0.00  0.00    +0.020 C 
ATOM      3  C   LIG    1        4.088   1.345   0.634  0.00  0.00    +0.020 C 
ATOM      4  C   LIG    1        2.653   1.018   1.046  0.00  0.00    +0.090 C 
ATOM      5  C   LIG    1        1.686   1.413  -0.034  0.00  0.00    -0.250 C 
ATOM      6  C   LIG    1        0.285   0.820   0.011  0.00  0.00    +0.350 C 
ATOM      7  N   LIG    1       -0.637   1.239  -1.046  0.00  0.00    -0.460 N 
ATOM      8  N   LIG    1       -1.964   0.950  -1.367  0.00  0.00    -0.490 N 
ATOM      9  H   LIG    1       -2.562   0.355  -0.886  0.00  0.00    +0.450 HD
ATOM     10  C   LIG    1       -2.256   1.668  -2.487  0.00  0.00    +0.620 A 
ATOM     11  N   LIG    1       -1.206   2.353  -2.849  0.00  0.00    -0.520 NA
ATOM     12  C   LIG    1       -0.180   2.127  -2.000  0.00  0.00    +0.560 A 
ATOM     13  N   LIG    1        1.046   2.580  -1.956  0.00  0.00    -0.570 NA
ATOM     14  C   LIG    1        1.977   2.252  -1.020  0.00  0.00    +0.190 C 
ENDROOT
BRANCH   6  15
ATOM     15  C   LIG    1       -0.332   1.181   1.338  0.00  0.00    -0.110 A 
ATOM     16  C   LIG    1       -0.933   2.416   1.504  0.00  0.00    +0.020 A 
ATOM     17  C   LIG    1       -1.504   2.751   2.716  0.00  0.00    +0.020 A 
ATOM     18  C   LIG    1       -1.464   1.846   3.775  0.00  0.00    -0.040 A 
ATOM     19  C   LIG    1       -0.853   0.606   3.603  0.00  0.00    +0.020 A 
ATOM     20  C   LIG    1       -0.290   0.280   2.386  0.00  0.00    +0.030 A 
BRANCH  18  21
ATOM     21  C   LIG    1       -2.072   2.203   5.081  0.00  0.00    -0.050 A 
ATOM     22  C   LIG    1       -2.038   1.296   6.138  0.00  0.00    +0.020 A 
ATOM     23  C   LIG    1       -2.601   1.634   7.352  0.00  0.00    +0.010 A 
ATOM     24  C   LIG    1       -3.206   2.867   7.518  0.00  0.00    +0.000 A 
ATOM     25  C   LIG    1       -3.247   3.769   6.470  0.00  0.00    +0.010 A 
ATOM     26  C   LIG    1       -2.683   3.443   5.253  0.00  0.00    +0.010 A 
ENDBRANCH  18  21
ENDBRANCH   6  15
BRANCH   1  28
ATOM     27  C   LIG    1        2.239   5.043  -0.586  0.00  0.00    +0.020 C 
ATOM     28  C   LIG    1        3.183   4.346  -1.569  0.00  0.00    -0.050 C 
ATOM     29  C   LIG    1        2.600   4.428  -2.981  0.00  0.00    +0.030 C 
ATOM     30  C   LIG    1        4.549   5.034  -1.540  0.00  0.00    +0.000 C 
ENDBRANCH   1  28
TORSDOF 3
