REMARK  Name = ZINCqH0000050hdp.0
REMARK                            x       y       z     vdW  Elec       q    Type
REMARK                         _______ _______ _______ _____ _____    ______ ____
ROOT
ATOM      1  C   LIG    1        4.126   0.899  -1.448  0.00  0.00    +0.460 C 
ATOM      2  O   LIG    1        3.342   0.757  -2.356  0.00  0.00    -0.490 OA
ENDROOT
BRANCH   1   3
ATOM      3  C   LIG    1        3.628   0.972  -0.027  0.00  0.00    +0.210 C 
BRANCH   3   9
ATOM      4  C   LIG    1       -1.740  -3.353   0.001  0.00  0.00    +0.110 C 
ATOM      5  C   LIG    1       -0.654  -2.309  -0.004  0.00  0.00    -0.060 A 
ATOM      6  C   LIG    1        0.676  -2.701  -0.019  0.00  0.00    -0.100 A 
ATOM      7  C   LIG    1        1.679  -1.757  -0.023  0.00  0.00    +0.050 A 
ATOM      8  C   LIG    1        1.349  -0.403  -0.013  0.00  0.00    -0.110 A 
ATOM      9  C   LIG    1        2.127   0.843  -0.014  0.00  0.00    -0.180 A 
ATOM     10  C   LIG    1        1.233   1.841   0.000  0.00  0.00    +0.250 A 
ATOM     11  O   LIG    1       -0.016   1.344   0.009  0.00  0.00    -0.190 OA
ATOM     12  C   LIG    1        0.002  -0.004   0.002  0.00  0.00    +0.050 A 
ATOM     13  C   LIG    1        1.026  -4.167  -0.030  0.00  0.00    +0.090 C 
ATOM     14  C   LIG    1       -0.994  -0.972   0.006  0.00  0.00    +0.030 A 
ENDBRANCH   3   9
ENDBRANCH   1   3
BRANCH   1  15
ATOM     15  O   LIG    1        5.440   0.993  -1.704  0.00  0.00    -0.330 OA
BRANCH  15  16
ATOM     16  C   LIG    1        5.847   0.915  -3.096  0.00  0.00    +0.270 C 
BRANCH  16  17
ATOM     17  C   LIG    1        7.346   1.038  -3.188  0.00  0.00    +0.510 C 
ATOM     18  N   LIG    1        7.954   0.993  -4.391  0.00  0.00    -0.630 N 
ATOM     19  H   LIG    1        7.426   0.881  -5.197  0.00  0.00    +0.420 HD
ATOM     20  O   LIG    1        8.007   1.177  -2.180  0.00  0.00    -0.470 OA
BRANCH  18  21
ATOM     21  C   LIG    1        9.334   1.106  -4.476  0.00  0.00    +0.050 A 
ATOM     22  C   LIG    1       10.049   1.067  -5.644  0.00  0.00    -0.120 A 
ATOM     23  C   LIG    1       11.472   1.213  -5.437  0.00  0.00    +0.080 A 
ATOM     24  C   LIG    1       11.802   1.345  -4.159  0.00  0.00    -0.100 A 
ATOM     25  S   LIG    1       10.374   1.304  -3.140  0.00  0.00    +0.320 S 
BRANCH  22  26
ATOM     26  C   LIG    1        9.449   0.904  -6.934  0.00  0.00    +0.270 C 
ATOM     27  N   LIG    1        8.973   0.774  -7.957  0.00  0.00    -0.420 NA
ENDBRANCH  22  26
ENDBRANCH  18  21
ENDBRANCH  16  17
ENDBRANCH  15  16
ENDBRANCH   1  15
TORSDOF 7
