REMARK  Name = ZINCnE000008J99E.0
REMARK                            x       y       z     vdW  Elec       q    Type
REMARK                         _______ _______ _______ _____ _____    ______ ____
ROOT
ATOM      1  S   LIG    1       -2.518   2.480   0.020  0.00  0.00    +2.690 S 
ATOM      2  O   LIG    1       -3.193   1.272  -0.303  0.00  0.00    -0.940 OA
ATOM      3  O   LIG    1       -3.115   3.763  -0.110  0.00  0.00    -0.950 OA
ENDROOT
BRANCH   1   4
ATOM      4  C   LIG    1       -1.056   2.511  -0.963  0.00  0.00    -0.690 A 
ATOM      5  C   LIG    1       -0.513   3.721  -1.356  0.00  0.00    +0.090 A 
ATOM      6  C   LIG    1        0.632   3.755  -2.133  0.00  0.00    -0.020 A 
ATOM      7  C   LIG    1        1.240   2.580  -2.521  0.00  0.00    +0.110 A 
ATOM      8  C   LIG    1        0.697   1.353  -2.129  0.00  0.00    -0.150 A 
ATOM      9  C   LIG    1       -0.459   1.327  -1.345  0.00  0.00    +0.160 A 
BRANCH   8  10
ATOM     10  C   LIG    1        1.341   0.092  -2.541  0.00  0.00    +0.520 C 
ATOM     11  O   LIG    1        2.353   0.118  -3.228  0.00  0.00    -0.680 OA
ATOM     12  O   LIG    1        0.864  -0.980  -2.196  0.00  0.00    -0.680 OA
ENDBRANCH   8  10
ENDBRANCH   1   4
BRANCH   1  13
ATOM     13  N   LIG    1       -2.043   2.343   1.600  0.00  0.00    -0.950 N 
BRANCH  13  14
ATOM     14  C   LIG    1       -1.751   3.489   2.344  0.00  0.00    +0.170 A 
ATOM     15  C   LIG    1       -0.726   4.336   1.942  0.00  0.00    +0.020 A 
ATOM     16  C   LIG    1       -0.442   5.471   2.676  0.00  0.00    +0.050 A 
ATOM     17  C   LIG    1       -1.171   5.760   3.817  0.00  0.00    -0.040 A 
ATOM     18  C   LIG    1       -2.189   4.914   4.222  0.00  0.00    +0.050 A 
ATOM     19 CL   LIG    1       -0.807   7.184   4.741  0.00  0.00    -0.070 Cl
ATOM     20  C   LIG    1       -2.480   3.781   3.489  0.00  0.00    +0.030 A 
ENDBRANCH  13  14
BRANCH  13  21
ATOM     21  C   LIG    1       -1.930   1.020   2.219  0.00  0.00    +0.340 C 
BRANCH  21  23
ATOM     22  C   LIG    1        0.139   0.182   3.208  0.00  0.00    +0.030 C 
ATOM     23  C   LIG    1       -0.504   0.541   2.124  0.00  0.00    -0.060 C 
ENDBRANCH  21  23
ENDBRANCH  13  21
ENDBRANCH   1  13
TORSDOF 6
