REMARK  Name = ZINCtV00000L6jAU.0
REMARK                            x       y       z     vdW  Elec       q    Type
REMARK                         _______ _______ _______ _____ _____    ______ ____
ROOT
ATOM      1  N   LIG    1       -4.845  -0.458  -4.285  0.00  0.00    -0.660 N 
ATOM      2  H   LIG    1       -5.498  -1.086  -3.936  0.00  0.00    +0.410 HD
ATOM      3  C   LIG    1       -4.934  -0.033  -5.561  0.00  0.00    +0.510 C 
ATOM      4  O   LIG    1       -4.066   0.676  -6.025  0.00  0.00    -0.510 OA
ENDROOT
BRANCH   1  10
ATOM      5  N   LIG    1       -0.760   1.603  -1.149  0.00  0.00    -0.500 N 
ATOM      6  C   LIG    1       -0.638   2.880  -1.666  0.00  0.00    +0.150 A 
ATOM      7  C   LIG    1       -1.575   3.031  -2.698  0.00  0.00    -0.110 A 
ATOM      8  C   LIG    1       -2.301   1.751  -2.796  0.00  0.00    -0.090 A 
ATOM      9  C   LIG    1       -3.329   1.294  -3.617  0.00  0.00    +0.080 A 
ATOM     10  C   LIG    1       -3.811   0.006  -3.462  0.00  0.00    +0.110 A 
ATOM     11  C   LIG    1       -3.268  -0.829  -2.489  0.00  0.00    +0.030 A 
ATOM     12  C   LIG    1       -2.251  -0.385  -1.674  0.00  0.00    +0.010 A 
ATOM     13  C   LIG    1       -1.662   4.236  -3.392  0.00  0.00    +0.060 A 
ATOM     14  C   LIG    1       -0.824   5.279  -3.060  0.00  0.00    -0.020 A 
ATOM     15  C   LIG    1        0.103   5.131  -2.040  0.00  0.00    +0.050 A 
ATOM     16  C   LIG    1        0.199   3.945  -1.345  0.00  0.00    -0.020 A 
ATOM     17  C   LIG    1       -1.752   0.906  -1.820  0.00  0.00    +0.130 A 
BRANCH   5  19
ATOM     18  C   LIG    1       -0.643   1.352   1.281  0.00  0.00    +0.020 C 
ATOM     19  C   LIG    1        0.048   1.062  -0.053  0.00  0.00    +0.290 C 
ENDBRANCH   5  19
ENDBRANCH   1  10
BRANCH   3  20
ATOM     20  C   LIG    1       -6.112  -0.438  -6.410  0.00  0.00    +0.240 C 
ATOM     21  C   LIG    1       -6.157  -1.963  -6.524  0.00  0.00    +0.050 C 
BRANCH  20  22
ATOM     22  N   LIG    1       -5.975   0.149  -7.745  0.00  0.00    -0.720 N 
ATOM     23  H   LIG    1       -5.097   0.379  -8.086  0.00  0.00    +0.420 HD
BRANCH  22  24
ATOM     24  C   LIG    1       -7.110   0.375  -8.527  0.00  0.00    +0.250 A 
ATOM     25  C   LIG    1       -8.368   0.040  -8.043  0.00  0.00    -0.050 A 
ATOM     26  C   LIG    1       -9.489   0.271  -8.817  0.00  0.00    +0.030 A 
ATOM     27  C   LIG    1       -9.359   0.825 -10.079  0.00  0.00    -0.020 A 
ATOM     28  C   LIG    1       -8.107   1.154 -10.566  0.00  0.00    +0.030 A 
ATOM     29 CL   LIG    1       -7.948   1.849 -12.149  0.00  0.00    -0.050 Cl
ATOM     30 CL   LIG    1      -11.062  -0.141  -8.209  0.00  0.00    -0.060 Cl
ATOM     31  C   LIG    1       -6.982   0.931  -9.794  0.00  0.00    -0.040 A 
ENDBRANCH  22  24
ENDBRANCH  20  22
ENDBRANCH   3  20
TORSDOF 5
