REMARK  Name = ZINCvU00000006Zc.0
REMARK                            x       y       z     vdW  Elec       q    Type
REMARK                         _______ _______ _______ _____ _____    ______ ____
ROOT
ATOM      1  C   LIG    1        2.883   0.317   1.142  0.00  0.00    +0.510 C 
ATOM      2  O   LIG    1        3.686  -0.583   0.986  0.00  0.00    -0.500 OA
ENDROOT
BRANCH   1   3
ATOM      3  C   LIG    1        2.607   1.255   0.045  0.00  0.00    -0.120 C 
ATOM      4  C   LIG    1        3.251   1.117  -1.146  0.00  0.00    +0.170 C 
BRANCH   3   5
ATOM      5  C   LIG    1        1.629   2.351   0.235  0.00  0.00    -0.060 A 
ATOM      6  C   LIG    1        0.278   2.058   0.417  0.00  0.00    +0.060 A 
ATOM      7  C   LIG    1       -0.630   3.083   0.590  0.00  0.00    -0.010 A 
ATOM      8  C   LIG    1       -0.200   4.400   0.593  0.00  0.00    +0.110 A 
ATOM      9  C   LIG    1        1.142   4.696   0.412  0.00  0.00    -0.010 A 
ATOM     10  F   LIG    1       -1.092   5.399   0.766  0.00  0.00    -0.140 F 
ATOM     11  C   LIG    1        2.057   3.679   0.234  0.00  0.00    +0.070 A 
ENDBRANCH   3   5
BRANCH   4  12
ATOM     12  C   LIG    1        2.862   1.950  -2.292  0.00  0.00    -0.080 A 
ATOM     13  C   LIG    1        1.517   2.277  -2.499  0.00  0.00    +0.060 A 
ATOM     14  C   LIG    1        1.161   3.063  -3.573  0.00  0.00    +0.030 A 
ATOM     15  C   LIG    1        2.129   3.520  -4.454  0.00  0.00    -0.020 A 
ATOM     16  C   LIG    1        3.462   3.195  -4.258  0.00  0.00    +0.030 A 
ATOM     17 CL   LIG    1        1.669   4.503  -5.809  0.00  0.00    -0.060 Cl
ATOM     18  C   LIG    1        3.834   2.415  -3.186  0.00  0.00    +0.060 A 
ENDBRANCH   4  12
ENDBRANCH   1   3
BRANCH   1  19
ATOM     19  O   LIG    1        2.245   0.453   2.322  0.00  0.00    -0.310 OA
BRANCH  19  21
ATOM     20  C   LIG    1        1.622  -1.709   3.254  0.00  0.00    +0.070 C 
ATOM     21  C   LIG    1        2.566  -0.509   3.361  0.00  0.00    +0.190 C 
BRANCH  21  22
ATOM     22  C   LIG    1        2.406   0.137   4.712  0.00  0.00    +0.510 C 
ATOM     23  N   LIG    1        2.748  -0.538   5.827  0.00  0.00    -0.660 N 
ATOM     24  H   LIG    1        3.166  -1.411   5.757  0.00  0.00    +0.420 HD
ATOM     25  O   LIG    1        1.969   1.265   4.797  0.00  0.00    -0.440 OA
BRANCH  23  26
ATOM     26  C   LIG    1        2.501   0.017   7.082  0.00  0.00    +0.360 A 
ATOM     27  C   LIG    1        2.754  -0.729   8.227  0.00  0.00    -0.040 A 
ATOM     28  C   LIG    1        2.509  -0.165   9.467  0.00  0.00    +0.110 A 
ATOM     29  C   LIG    1        2.007   1.129   9.518  0.00  0.00    -0.120 A 
ATOM     30  C   LIG    1        1.774   1.811   8.338  0.00  0.00    +0.320 A 
ATOM     31 CL   LIG    1        1.676   1.882  11.047  0.00  0.00    -0.050 Cl
ATOM     32  N   LIG    1        2.022   1.248   7.172  0.00  0.00    -0.460 NA
ENDBRANCH  23  26
ENDBRANCH  21  22
ENDBRANCH  19  21
ENDBRANCH   1  19
TORSDOF 7
