REMARK  Name = ZINCvU0000000G6e.0
REMARK                            x       y       z     vdW  Elec       q    Type
REMARK                         _______ _______ _______ _____ _____    ______ ____
ROOT
ATOM      1  C   LIG    1       -2.512   3.868   0.046  0.00  0.00    +0.230 C 
ATOM      2  N   LIG    1       -2.496   5.174   0.053  0.00  0.00    -0.420 NA
ATOM      3  C   LIG    1       -3.677   5.844   0.142  0.00  0.00    +0.360 A 
ATOM      4  N   LIG    1       -3.947   7.105  -0.062  0.00  0.00    -0.430 NA
ATOM      5  C   LIG    1       -5.263   7.316   0.145  0.00  0.00    +0.040 A 
ATOM      6  C   LIG    1       -5.831   6.131   0.513  0.00  0.00    +0.190 A 
ATOM      7  N   LIG    1       -4.837   5.208   0.524  0.00  0.00    -0.480 N 
ATOM      8  C   LIG    1       -4.876   3.784   0.865  0.00  0.00    +0.300 C 
ATOM      9  C   LIG    1       -3.788   3.073   0.048  0.00  0.00    +0.090 C 
ENDROOT
BRANCH   1  13
ATOM     10  C   LIG    1        1.183   1.786   0.000  0.00  0.00    +0.150 A 
ATOM     11  C   LIG    1       -0.013   1.076   0.008  0.00  0.00    -0.020 A 
ATOM     12  C   LIG    1       -1.215   1.747   0.017  0.00  0.00    +0.090 A 
ATOM     13  C   LIG    1       -1.232   3.146   0.030  0.00  0.00    -0.110 A 
ATOM     14  C   LIG    1       -0.026   3.857   0.022  0.00  0.00    +0.120 A 
ATOM     15  C   LIG    1        1.171   3.176   0.007  0.00  0.00    -0.080 A 
BRANCH  10  17
ATOM     16  C   LIG    1        3.555   1.911  -0.021  0.00  0.00    +0.240 C 
ATOM     17  O   LIG    1        2.365   1.120  -0.014  0.00  0.00    -0.310 OA
ENDBRANCH  10  17
ENDBRANCH   1  13
BRANCH   5  18
ATOM     18  C   LIG    1       -5.971   8.611  -0.001  0.00  0.00    +0.000 A 
ATOM     19  C   LIG    1       -7.342   8.691   0.239  0.00  0.00    +0.010 A 
ATOM     20  C   LIG    1       -7.994   9.899   0.106  0.00  0.00    +0.000 A 
ATOM     21  C   LIG    1       -7.293  11.029  -0.275  0.00  0.00    +0.000 A 
ATOM     22  C   LIG    1       -5.933  10.955  -0.520  0.00  0.00    +0.000 A 
ATOM     23  C   LIG    1       -5.269   9.752  -0.385  0.00  0.00    +0.030 A 
ENDBRANCH   5  18
BRANCH   8  24
ATOM     24  C   LIG    1       -6.227   3.214   0.517  0.00  0.00    -0.150 A 
ATOM     25  C   LIG    1       -6.679   3.258  -0.789  0.00  0.00    +0.070 A 
ATOM     26  C   LIG    1       -7.915   2.731  -1.111  0.00  0.00    -0.080 A 
ATOM     27  C   LIG    1       -8.707   2.167  -0.121  0.00  0.00    +0.150 A 
ATOM     28  C   LIG    1       -8.253   2.128   1.189  0.00  0.00    -0.010 A 
ATOM     29  C   LIG    1       -7.014   2.652   1.505  0.00  0.00    +0.080 A 
BRANCH  27  30
ATOM     30  O   LIG    1       -9.925   1.652  -0.435  0.00  0.00    -0.310 OA
ATOM     31  C   LIG    1      -10.327   1.725  -1.804  0.00  0.00    +0.240 C 
ENDBRANCH  27  30
ENDBRANCH   8  24
TORSDOF 5
