REMARK  Name = ZINCqH0000007XCS.0
REMARK                            x       y       z     vdW  Elec       q    Type
REMARK                         _______ _______ _______ _____ _____    ______ ____
ROOT
ATOM      1  C   LIG    1       -0.018   1.474   0.018  0.00  0.00    +0.560 C 
ATOM      2  N   LIG    1        1.140   2.163   0.003  0.00  0.00    -0.660 N 
ATOM      3  H   LIG    1        1.986   1.692   0.060  0.00  0.00    +0.410 HD
ATOM      4  O   LIG    1       -1.079   2.068   0.023  0.00  0.00    -0.510 OA
ENDROOT
BRANCH   2   5
ATOM      5  C   LIG    1        1.122   3.555  -0.095  0.00  0.00    +0.140 A 
ATOM      6  C   LIG    1        0.117   4.292   0.502  0.00  0.00    +0.030 A 
ATOM      7  C   LIG    1        0.072   5.684   0.423  0.00  0.00    +0.040 A 
ATOM      8  C   LIG    1        1.034   6.369  -0.256  0.00  0.00    -0.090 A 
ATOM      9  C   LIG    1        1.291   7.830  -0.536  0.00  0.00    +0.100 C 
ATOM     10  C   LIG    1        2.584   7.862  -1.380  0.00  0.00    +0.100 C 
ATOM     11  C   LIG    1        2.994   6.418  -1.535  0.00  0.00    -0.070 A 
ATOM     12  C   LIG    1        4.024   5.778  -2.156  0.00  0.00    +0.020 A 
ATOM     13  C   LIG    1        4.119   4.386  -2.111  0.00  0.00    +0.030 A 
ATOM     14  C   LIG    1        3.203   3.613  -1.456  0.00  0.00    +0.000 A 
ATOM     15  C   LIG    1        2.054   5.643  -0.864  0.00  0.00    -0.070 A 
ATOM     16  C   LIG    1        2.134   4.241  -0.800  0.00  0.00    -0.050 A 
ENDBRANCH   2   5
BRANCH   1  20
ATOM     17  C   LIG    1        0.038  -2.773   0.029  0.00  0.00    -0.060 A 
ATOM     18  C   LIG    1       -1.171  -2.100   0.040  0.00  0.00    +0.030 A 
ATOM     19  C   LIG    1       -1.196  -0.720   0.037  0.00  0.00    +0.100 A 
ATOM     20  C   LIG    1        0.001  -0.004   0.022  0.00  0.00    -0.130 A 
ATOM     21  C   LIG    1        1.217  -0.689   0.004  0.00  0.00    +0.050 A 
ATOM     22  C   LIG    1        1.228  -2.068   0.013  0.00  0.00    +0.030 A 
BRANCH  17  23
ATOM     23  C   LIG    1        0.058  -4.279   0.033  0.00  0.00    -0.270 C 
BRANCH  23  25
ATOM     24  C   LIG    1        0.073  -6.686  -1.433  0.00  0.00    -0.270 C 
ATOM     25  S   LIG    1        0.046  -4.889  -1.676  0.00  0.00    +2.420 S 
ATOM     26  O   LIG    1        1.260  -4.499  -2.304  0.00  0.00    -0.930 OA
ATOM     27  O   LIG    1       -1.191  -4.531  -2.276  0.00  0.00    -0.930 OA
ENDBRANCH  23  25
ENDBRANCH  17  23
ENDBRANCH   1  20
TORSDOF 4
