REMARK  Name = ZINCfA000001ogYI.0
REMARK                            x       y       z     vdW  Elec       q    Type
REMARK                         _______ _______ _______ _____ _____    ______ ____
ROOT
ATOM      1  N   LIG    1        1.193   3.468   0.009  0.00  0.00    -0.640 NA
ATOM      2  H   LIG    1        0.393   4.016   0.020  0.00  0.00    +0.430 HD
ENDROOT
BRANCH   1   3
ATOM      3  C   LIG    1        1.088   2.096   0.003  0.00  0.00    +0.470 C 
ATOM      4  N   LIG    1       -0.018   1.442   0.010  0.00  0.00    -0.620 NA
ATOM      5  C   LIG    1        0.002  -0.004   0.002  0.00  0.00    +0.140 C 
ATOM      6  C   LIG    1        1.442  -0.541  -0.015  0.00  0.00    +0.170 C 
ATOM      7  C   LIG    1       -0.736  -0.509  -1.240  0.00  0.00    +0.090 C 
ATOM      8  C   LIG    1       -0.712  -0.522   1.252  0.00  0.00    +0.090 C 
ATOM      9  H   LIG    1       -0.863   1.916   0.017  0.00  0.00    +0.430 HD
ATOM     10  S   LIG    1        2.454   0.974  -0.016  0.00  0.00    +0.070 S 
ENDBRANCH   1   3
BRANCH   1  17
ATOM     11  C   LIG    1        1.914   5.382   2.059  0.00  0.00    +0.020 C 
ATOM     12  C   LIG    1        2.414   5.497   0.618  0.00  0.00    -0.010 C 
ATOM     13  C   LIG    1        3.794   6.159   0.609  0.00  0.00    +0.040 C 
ATOM     14  C   LIG    1        4.295   6.274  -0.833  0.00  0.00    +0.020 C 
ATOM     15  C   LIG    1        4.394   4.877  -1.451  0.00  0.00    +0.030 C 
ATOM     16  C   LIG    1        3.014   4.216  -1.441  0.00  0.00    +0.010 C 
ATOM     17  C   LIG    1        2.514   4.101   0.000  0.00  0.00    +0.240 C 
ENDBRANCH   1  17
TORSDOF 2
