REMARK  Name = ZINCpe00000MJJhu.0
REMARK                            x       y       z     vdW  Elec       q    Type
REMARK                         _______ _______ _______ _____ _____    ______ ____
ROOT
ATOM      1  C   LIG    1        3.576   0.838  -0.029  0.00  0.00    +0.110 C 
ATOM      2  C   LIG    1        4.193  -0.334   0.756  0.00  0.00    +0.260 C 
ATOM      3  N   LIG    1        4.997  -1.119  -0.199  0.00  0.00    -0.630 N 
ATOM      4  C   LIG    1        5.384  -0.177  -1.274  0.00  0.00    +0.280 C 
ATOM      5  C   LIG    1        5.314  -2.426  -0.111  0.00  0.00    +0.530 C 
ATOM      6  O   LIG    1        5.987  -2.946  -0.975  0.00  0.00    -0.520 OA
ATOM      7  C   LIG    1        4.109   0.681  -1.471  0.00  0.00    +0.020 C 
ENDROOT
BRANCH   1  12
ATOM      8  C   LIG    1       -0.016   1.303   0.009  0.00  0.00    +0.230 A 
ATOM      9  N   LIG    1        0.002  -0.004   0.002  0.00  0.00    -0.290 NA
ATOM     10  N   LIG    1        1.352  -0.392  -0.013  0.00  0.00    -0.480 N 
ATOM     11  H   LIG    1        1.696  -1.298  -0.021  0.00  0.00    +0.440 HD
ATOM     12  C   LIG    1        2.072   0.744  -0.014  0.00  0.00    +0.300 A 
ATOM     13  N   LIG    1        1.238   1.753  -0.000  0.00  0.00    -0.510 NA
BRANCH   8  14
ATOM     14  C   LIG    1       -1.254   2.162   0.020  0.00  0.00    +0.320 C 
BRANCH  14  16
ATOM     15  C   LIG    1       -2.808   3.238   1.494  0.00  0.00    +0.220 C 
ATOM     16  O   LIG    1       -1.638   2.426   1.371  0.00  0.00    -0.380 OA
ENDBRANCH  14  16
ENDBRANCH   8  14
ENDBRANCH   1  12
BRANCH   7  17
ATOM     17  C   LIG    1        4.461   2.044  -2.070  0.00  0.00    -0.040 C 
ATOM     18  C   LIG    1        3.584   2.561  -3.213  0.00  0.00    +0.020 C 
ATOM     19  C   LIG    1        5.005   2.068  -3.501  0.00  0.00    +0.010 C 
ENDBRANCH   7  17
BRANCH   5  20
ATOM     20  C   LIG    1        4.832  -3.241   1.062  0.00  0.00    +0.140 C 
BRANCH  20  21
ATOM     21  C   LIG    1        5.320  -4.660   0.921  0.00  0.00    -0.230 A 
ATOM     22  C   LIG    1        4.667  -5.669   0.299  0.00  0.00    +0.240 A 
ATOM     23  N   LIG    1        5.435  -6.774   0.390  0.00  0.00    -0.370 N 
ATOM     24  N   LIG    1        6.595  -6.436   1.098  0.00  0.00    -0.290 NA
ATOM     25  C   LIG    1        5.111  -8.096  -0.152  0.00  0.00    +0.360 C 
ATOM     26  C   LIG    1        6.525  -5.169   1.416  0.00  0.00    +0.240 A 
ENDBRANCH  20  21
ENDBRANCH   5  20
TORSDOF 6
