REMARK  Name = ZINCpe00000MJJhu.2
REMARK                            x       y       z     vdW  Elec       q    Type
REMARK                         _______ _______ _______ _____ _____    ______ ____
ROOT
ATOM      1  C   LIG    1       -4.595  -3.460  -1.369  0.00  0.00    +0.120 C 
ATOM      2  C   LIG    1       -3.523  -2.634  -0.629  0.00  0.00    +0.270 C 
ATOM      3  N   LIG    1       -2.683  -1.993  -1.651  0.00  0.00    -0.620 N 
ATOM      4  C   LIG    1       -3.200  -2.356  -2.983  0.00  0.00    +0.270 C 
ATOM      5  C   LIG    1       -1.620  -1.200  -1.410  0.00  0.00    +0.530 C 
ATOM      6  O   LIG    1       -0.998  -0.723  -2.335  0.00  0.00    -0.530 OA
ATOM      7  C   LIG    1       -3.954  -3.693  -2.763  0.00  0.00    +0.030 C 
ENDROOT
BRANCH   1  10
ATOM      8  C   LIG    1       -5.866  -6.368   0.363  0.00  0.00    +0.290 A 
ATOM      9  N   LIG    1       -6.005  -5.185  -0.178  0.00  0.00    -0.530 NA
ATOM     10  C   LIG    1       -4.836  -4.772  -0.667  0.00  0.00    +0.240 A 
ATOM     11  N   LIG    1       -3.932  -5.686  -0.434  0.00  0.00    -0.300 NA
ATOM     12  N   LIG    1       -4.579  -6.736   0.237  0.00  0.00    -0.460 N 
ATOM     13  H   LIG    1       -4.178  -7.563   0.548  0.00  0.00    +0.450 HD
BRANCH   8  14
ATOM     14  C   LIG    1       -6.957  -7.173   1.021  0.00  0.00    +0.320 C 
BRANCH  14  16
ATOM     15  C   LIG    1       -7.372  -9.251   2.143  0.00  0.00    +0.230 C 
ATOM     16  O   LIG    1       -6.416  -8.407   1.498  0.00  0.00    -0.400 OA
ENDBRANCH  14  16
ENDBRANCH   8  14
ENDBRANCH   1  10
BRANCH   7  17
ATOM     17  C   LIG    1       -5.027  -3.898  -3.833  0.00  0.00    -0.030 C 
ATOM     18  C   LIG    1       -5.150  -5.291  -4.453  0.00  0.00    +0.010 C 
ATOM     19  C   LIG    1       -4.557  -4.141  -5.269  0.00  0.00    +0.030 C 
ENDBRANCH   7  17
BRANCH   5  20
ATOM     20  C   LIG    1       -1.204  -0.907   0.008  0.00  0.00    +0.150 C 
BRANCH  20  21
ATOM     21  C   LIG    1        0.002  -0.004   0.002  0.00  0.00    -0.230 A 
ATOM     22  C   LIG    1        1.295  -0.403  -0.013  0.00  0.00    +0.240 A 
ATOM     23  N   LIG    1        2.067   0.704  -0.014  0.00  0.00    -0.380 N 
ATOM     24  N   LIG    1        1.220   1.820   0.000  0.00  0.00    -0.300 NA
ATOM     25  C   LIG    1        3.532   0.734  -0.028  0.00  0.00    +0.360 C 
ATOM     26  C   LIG    1       -0.017   1.395   0.010  0.00  0.00    +0.240 A 
ENDBRANCH  20  21
ENDBRANCH   5  20
TORSDOF 6
