REMARK  Name = ZINCpe00000MJJhu.1
REMARK                            x       y       z     vdW  Elec       q    Type
REMARK                         _______ _______ _______ _____ _____    ______ ____
ROOT
ATOM      1  C   LIG    1       -0.611   6.708   0.042  0.00  0.00    +0.120 C 
ATOM      2  C   LIG    1       -1.892   6.378  -0.746  0.00  0.00    +0.260 C 
ATOM      3  N   LIG    1       -3.016   6.444   0.207  0.00  0.00    -0.630 N 
ATOM      4  C   LIG    1       -2.581   7.362   1.285  0.00  0.00    +0.280 C 
ATOM      5  C   LIG    1       -4.196   5.801   0.116  0.00  0.00    +0.530 C 
ATOM      6  O   LIG    1       -5.036   5.948   0.979  0.00  0.00    -0.520 OA
ATOM      7  C   LIG    1       -1.089   6.996   1.484  0.00  0.00    +0.020 C 
ENDROOT
BRANCH   1  11
ATOM      8  C   LIG    1        1.141   3.524   0.010  0.00  0.00    +0.180 A 
ATOM      9  N   LIG    1        2.116   4.392   0.005  0.00  0.00    -0.280 NA
ATOM     10  N   LIG    1        1.635   5.584   0.015  0.00  0.00    -0.270 NA
ATOM     11  C   LIG    1        0.331   5.532   0.028  0.00  0.00    +0.190 A 
ATOM     12  N   LIG    1       -0.020   4.223   0.019  0.00  0.00    -0.560 N 
ATOM     13  H   LIG    1       -0.920   3.860   0.022  0.00  0.00    +0.430 HD
BRANCH   8  14
ATOM     14  C   LIG    1        1.280   2.024   0.001  0.00  0.00    +0.330 C 
BRANCH  14  16
ATOM     15  C   LIG    1        0.002  -0.004   0.002  0.00  0.00    +0.220 C 
ATOM     16  O   LIG    1       -0.017   1.425   0.010  0.00  0.00    -0.400 OA
ENDBRANCH  14  16
ENDBRANCH   8  14
ENDBRANCH   1  11
BRANCH   7  17
ATOM     17  C   LIG    1       -0.318   8.172   2.087  0.00  0.00    -0.040 C 
ATOM     18  C   LIG    1        0.652   7.868   3.231  0.00  0.00    +0.020 C 
ATOM     19  C   LIG    1       -0.668   8.588   3.517  0.00  0.00    +0.010 C 
ENDBRANCH   7  17
BRANCH   5  20
ATOM     20  C   LIG    1       -4.473   4.898  -1.058  0.00  0.00    +0.140 C 
BRANCH  20  21
ATOM     21  C   LIG    1       -5.852   4.304  -0.921  0.00  0.00    -0.230 A 
ATOM     22  C   LIG    1       -6.160   3.142  -0.301  0.00  0.00    +0.240 A 
ATOM     23  N   LIG    1       -7.495   2.968  -0.395  0.00  0.00    -0.370 N 
ATOM     24  N   LIG    1       -8.024   4.055  -1.103  0.00  0.00    -0.290 NA
ATOM     25  C   LIG    1       -8.257   1.838   0.144  0.00  0.00    +0.360 C 
ATOM     26  C   LIG    1       -7.038   4.855  -1.418  0.00  0.00    +0.240 A 
ENDBRANCH  20  21
ENDBRANCH   5  20
TORSDOF 6
