REMARK  Name = ZINCrD0000070Yok.0
REMARK                            x       y       z     vdW  Elec       q    Type
REMARK                         _______ _______ _______ _____ _____    ______ ____
ROOT
ATOM      1  C   LIG    1       -2.189   5.626   1.250  0.00  0.00    +0.190 C 
ATOM      2  C   LIG    1       -2.606   6.298   2.561  0.00  0.00    +0.060 C 
ENDROOT
BRANCH   1   3
ATOM      3  C   LIG    1       -2.186   4.130   1.432  0.00  0.00    +0.520 C 
ATOM      4  N   LIG    1       -1.314   3.557   2.285  0.00  0.00    -0.720 N 
ATOM      5  H   LIG    1       -0.688   4.107   2.781  0.00  0.00    +0.400 HD
ATOM      6  O   LIG    1       -2.969   3.443   0.812  0.00  0.00    -0.510 OA
BRANCH   4   7
ATOM      7  C   LIG    1       -1.311   2.103   2.461  0.00  0.00    +0.290 C 
ATOM      8  C   LIG    1       -0.447   1.458   1.375  0.00  0.00    +0.040 C 
BRANCH   7   9
ATOM      9  C   LIG    1       -0.749   1.762   3.817  0.00  0.00    -0.110 A 
ATOM     10  C   LIG    1        0.339   2.460   4.309  0.00  0.00    +0.040 A 
ATOM     11  C   LIG    1        0.852   2.153   5.555  0.00  0.00    -0.010 A 
ATOM     12  C   LIG    1        0.283   1.139   6.306  0.00  0.00    +0.100 A 
ATOM     13  C   LIG    1       -0.803   0.437   5.811  0.00  0.00    -0.010 A 
ATOM     14  F   LIG    1        0.787   0.834   7.522  0.00  0.00    -0.140 F 
ATOM     15  C   LIG    1       -1.317   0.749   4.566  0.00  0.00    +0.060 A 
ENDBRANCH   7   9
ENDBRANCH   4   7
ENDBRANCH   1   3
BRANCH   1  16
ATOM     16  O   LIG    1       -3.129   5.985   0.203  0.00  0.00    -0.330 OA
BRANCH  16  17
ATOM     17  C   LIG    1       -2.851   7.092  -0.515  0.00  0.00    +0.540 C 
ATOM     18  O   LIG    1       -1.851   7.740  -0.272  0.00  0.00    -0.490 OA
BRANCH  17  23
ATOM     19  C   LIG    1       -4.689   8.637  -3.280  0.00  0.00    -0.260 A 
ATOM     20  C   LIG    1       -5.484   7.542  -2.981  0.00  0.00    +0.120 A 
ATOM     21  N   LIG    1       -4.914   6.870  -1.970  0.00  0.00    -0.510 N 
ATOM     22  H   LIG    1       -5.263   6.059  -1.567  0.00  0.00    +0.430 HD
ATOM     23  C   LIG    1       -3.756   7.515  -1.590  0.00  0.00    -0.050 A 
ATOM     24  C   LIG    1       -6.765   7.165  -3.679  0.00  0.00    +0.160 C 
ATOM     25  C   LIG    1       -3.592   8.609  -2.387  0.00  0.00    -0.020 A 
ATOM     26  C   LIG    1       -2.458   9.599  -2.327  0.00  0.00    +0.140 C 
BRANCH  19  28
ATOM     27  C   LIG    1       -4.428   9.409  -5.723  0.00  0.00    +0.060 C 
ATOM     28  C   LIG    1       -4.938   9.637  -4.324  0.00  0.00    +0.440 C 
ATOM     29  O   LIG    1       -5.555  10.648  -4.060  0.00  0.00    -0.450 OA
ENDBRANCH  19  28
ENDBRANCH  17  23
ENDBRANCH  16  17
ENDBRANCH   1  16
TORSDOF 7
