REMARK  Name = ZINCqH0000031EwS.0
REMARK                            x       y       z     vdW  Elec       q    Type
REMARK                         _______ _______ _______ _____ _____    ______ ____
ROOT
ATOM      1  N   LIG    1        2.405   0.885  -0.018  0.00  0.00    -0.670 N 
ATOM      2  H   LIG    1        2.478   0.045   0.462  0.00  0.00    +0.410 HD
ATOM      3  C   LIG    1        3.460   1.361  -0.709  0.00  0.00    +0.510 C 
ATOM      4  O   LIG    1        3.341   2.359  -1.387  0.00  0.00    -0.510 OA
ENDROOT
BRANCH   1  12
ATOM      5  C   LIG    1       -4.630   4.630   0.018  0.00  0.00    +0.110 C 
ATOM      6  C   LIG    1       -3.558   3.574   0.110  0.00  0.00    +0.520 C 
ATOM      7  N   LIG    1       -2.258   3.929   0.079  0.00  0.00    -0.560 N 
ATOM      8  C   LIG    1       -1.764   5.308   0.064  0.00  0.00    +0.280 C 
ATOM      9  C   LIG    1       -0.232   5.188   0.030  0.00  0.00    +0.090 C 
ATOM     10  C   LIG    1        0.034   3.699   0.027  0.00  0.00    -0.120 A 
ATOM     11  C   LIG    1        1.220   2.992   0.003  0.00  0.00    +0.060 A 
ATOM     12  C   LIG    1        1.203   1.603   0.007  0.00  0.00    +0.120 A 
ATOM     13  C   LIG    1       -0.011   0.931   0.036  0.00  0.00    +0.010 A 
ATOM     14  C   LIG    1       -1.194   1.638   0.056  0.00  0.00    +0.030 A 
ATOM     15  C   LIG    1       -1.182   3.034   0.057  0.00  0.00    +0.130 A 
ATOM     16  O   LIG    1       -3.865   2.406   0.213  0.00  0.00    -0.520 OA
ENDBRANCH   1  12
BRANCH   3  17
ATOM     17  C   LIG    1        4.788   0.652  -0.638  0.00  0.00    +0.120 C 
BRANCH  17  18
ATOM     18  C   LIG    1        5.792   1.380  -1.494  0.00  0.00    -0.070 A 
ATOM     19  C   LIG    1        5.946   1.035  -2.824  0.00  0.00    +0.060 A 
ATOM     20  C   LIG    1        6.864   1.706  -3.610  0.00  0.00    +0.020 A 
ATOM     21  C   LIG    1        7.635   2.716  -3.064  0.00  0.00    +0.070 A 
ATOM     22  C   LIG    1        7.484   3.057  -1.733  0.00  0.00    -0.180 A 
ATOM     23  C   LIG    1        6.563   2.389  -0.948  0.00  0.00    +0.070 A 
BRANCH  22  24
ATOM     24  C   LIG    1        8.324   4.158  -1.138  0.00  0.00    +0.510 C 
ATOM     25  F   LIG    1        7.612   4.784  -0.110  0.00  0.00    -0.180 F 
ATOM     26  F   LIG    1        8.634   5.096  -2.129  0.00  0.00    -0.180 F 
ATOM     27  F   LIG    1        9.506   3.616  -0.623  0.00  0.00    -0.180 F 
ENDBRANCH  22  24
ENDBRANCH  17  18
ENDBRANCH   3  17
TORSDOF 4
