REMARK  Name = ZINCvU0000000ELH.0
REMARK                            x       y       z     vdW  Elec       q    Type
REMARK                         _______ _______ _______ _____ _____    ______ ____
ROOT
ATOM      1  C   LIG    1       -2.471   3.749   0.018  0.00  0.00    +0.150 C 
ATOM      2  N   LIG    1       -1.262   3.306  -0.027  0.00  0.00    -0.230 NA
ATOM      3  N   LIG    1       -1.162   1.917   0.038  0.00  0.00    -0.460 N 
ATOM      4  C   LIG    1       -2.515   1.347   0.137  0.00  0.00    +0.270 C 
ATOM      5  C   LIG    1       -0.014   1.212   0.009  0.00  0.00    +0.600 C 
ATOM      6  O   LIG    1       -0.048  -0.003  -0.025  0.00  0.00    -0.480 OA
ATOM      7  C   LIG    1       -3.432   2.587   0.131  0.00  0.00    +0.100 C 
ENDROOT
BRANCH   4   8
ATOM      8  C   LIG    1       -2.674   0.580   1.424  0.00  0.00    -0.110 A 
ATOM      9  C   LIG    1       -2.096   1.054   2.587  0.00  0.00    +0.060 A 
ATOM     10  C   LIG    1       -2.246   0.353   3.769  0.00  0.00    -0.010 A 
ATOM     11  C   LIG    1       -2.966  -0.829   3.785  0.00  0.00    +0.110 A 
ATOM     12  C   LIG    1       -3.540  -1.306   2.619  0.00  0.00    -0.010 A 
ATOM     13  F   LIG    1       -3.108  -1.518   4.939  0.00  0.00    -0.140 F 
ATOM     14  C   LIG    1       -3.394  -0.601   1.440  0.00  0.00    +0.070 A 
ENDBRANCH   4   8
BRANCH   5  15
ATOM     15  C   LIG    1        1.285   1.915   0.012  0.00  0.00    -0.140 A 
ATOM     16  C   LIG    1        1.329   3.307  -0.078  0.00  0.00    +0.110 A 
ATOM     17  C   LIG    1        2.546   3.957  -0.074  0.00  0.00    +0.010 A 
ATOM     18  C   LIG    1        3.721   3.233   0.019  0.00  0.00    +0.060 A 
ATOM     19  C   LIG    1        3.686   1.853   0.108  0.00  0.00    +0.010 A 
ATOM     20  C   LIG    1        2.475   1.189   0.111  0.00  0.00    +0.020 A 
ATOM     21 CL   LIG    1        2.432  -0.542   0.230  0.00  0.00    -0.030 Cl
ENDBRANCH   5  15
BRANCH   1  26
ATOM     22  C   LIG    1       -4.564   6.870  -0.026  0.00  0.00    +0.170 A 
ATOM     23  C   LIG    1       -3.587   7.849  -0.130  0.00  0.00    -0.140 A 
ATOM     24  C   LIG    1       -2.247   7.495  -0.186  0.00  0.00    +0.170 A 
ATOM     25  C   LIG    1       -1.878   6.161  -0.138  0.00  0.00    -0.010 A 
ATOM     26  C   LIG    1       -2.858   5.171  -0.033  0.00  0.00    +0.040 A 
ATOM     27  C   LIG    1       -4.206   5.533   0.017  0.00  0.00    -0.020 A 
BRANCH  22  29
ATOM     28  C   LIG    1       -6.174   8.619  -0.025  0.00  0.00    +0.240 C 
ATOM     29  O   LIG    1       -5.875   7.223   0.029  0.00  0.00    -0.310 OA
ENDBRANCH  22  29
BRANCH  24  30
ATOM     30  O   LIG    1       -1.294   8.458  -0.289  0.00  0.00    -0.310 OA
ATOM     31  C   LIG    1       -1.744   9.814  -0.333  0.00  0.00    +0.240 C 
ENDBRANCH  24  30
ENDBRANCH   1  26
TORSDOF 5
