REMARK  Name = ZINCvU0000000A21.0
REMARK                            x       y       z     vdW  Elec       q    Type
REMARK                         _______ _______ _______ _____ _____    ______ ____
ROOT
ATOM      1  C   LIG    1        0.299   4.170   1.764  0.00  0.00    +0.520 C 
ATOM      2  N   LIG    1       -0.755   3.484   1.277  0.00  0.00    -0.720 N 
ATOM      3  H   LIG    1       -1.526   3.961   0.932  0.00  0.00    +0.400 HD
ATOM      4  O   LIG    1        1.263   3.574   2.196  0.00  0.00    -0.500 OA
ENDROOT
BRANCH   1   5
ATOM      5  C   LIG    1        0.278   5.676   1.772  0.00  0.00    +0.220 C 
BRANCH   5   6
ATOM      6  O   LIG    1        1.498   6.166   2.333  0.00  0.00    -0.280 OA
BRANCH   6  10
ATOM      7  C   LIG    1       -0.322  10.628   1.558  0.00  0.00    +0.110 C 
ATOM      8  C   LIG    1        0.777   9.721   2.047  0.00  0.00    -0.040 A 
ATOM      9  C   LIG    1        0.629   8.350   1.963  0.00  0.00    -0.060 A 
ATOM     10  C   LIG    1        1.642   7.515   2.414  0.00  0.00    +0.140 A 
ATOM     11  C   LIG    1        2.799   8.059   2.953  0.00  0.00    -0.090 A 
ATOM     12  C   LIG    1        2.945   9.431   3.031  0.00  0.00    +0.080 A 
ATOM     13  C   LIG    1        1.934  10.262   2.580  0.00  0.00    -0.070 A 
ATOM     14 CL   LIG    1        2.117  11.985   2.685  0.00  0.00    -0.070 Cl
BRANCH  11  15
ATOM     15  C   LIG    1        3.897   7.155   3.449  0.00  0.00    +0.040 C 
ATOM     16  C   LIG    1        4.137   7.413   4.938  0.00  0.00    +0.040 C 
ATOM     17  C   LIG    1        5.182   7.438   2.668  0.00  0.00    +0.040 C 
ENDBRANCH  11  15
ENDBRANCH   6  10
ENDBRANCH   5   6
ENDBRANCH   1   5
BRANCH   2  18
ATOM     18  C   LIG    1       -0.735   2.019   1.269  0.00  0.00    +0.300 C 
BRANCH  18  19
ATOM     19  C   LIG    1       -2.149   1.498   1.280  0.00  0.00    -0.080 A 
ATOM     20  C   LIG    1       -3.121   2.128   0.527  0.00  0.00    +0.020 A 
ATOM     21  C   LIG    1       -4.420   1.651   0.527  0.00  0.00    +0.030 A 
ATOM     22  C   LIG    1       -4.745   0.546   1.294  0.00  0.00    +0.070 A 
ATOM     23  O   LIG    1       -6.024   0.068   1.308  0.00  0.00    -0.320 OA
ATOM     24  C   LIG    1       -6.220  -1.208   0.697  0.00  0.00    +0.230 C 
ATOM     25  C   LIG    1       -5.910  -2.329   1.677  0.00  0.00    -0.010 C 
ATOM     26  C   LIG    1       -4.445  -2.353   2.084  0.00  0.00    +0.230 C 
ATOM     27  O   LIG    1       -4.101  -1.172   2.810  0.00  0.00    -0.320 OA
ATOM     28  C   LIG    1       -3.770  -0.084   2.056  0.00  0.00    +0.070 A 
ATOM     29  C   LIG    1       -2.470   0.393   2.048  0.00  0.00    +0.040 A 
ENDBRANCH  18  19
BRANCH  18  30
ATOM     30  C   LIG    1       -0.019   1.526   0.010  0.00  0.00    -0.030 C 
ATOM     31  C   LIG    1        1.417   2.055  -0.000  0.00  0.00    +0.030 C 
ATOM     32  C   LIG    1        0.002  -0.004   0.002  0.00  0.00    +0.030 C 
ENDBRANCH  18  30
ENDBRANCH   2  18
TORSDOF 7
