REMARK  Name = ZINCrg00000Bzhb5.0
REMARK                            x       y       z     vdW  Elec       q    Type
REMARK                         _______ _______ _______ _____ _____    ______ ____
ROOT
ATOM      1  O   LIG    1       -0.777   5.137   2.439  0.00  0.00    -0.510 OA
ATOM      2  C   LIG    1       -1.131   5.737   1.442  0.00  0.00    +0.590 C 
ATOM      3  N   LIG    1       -1.477   7.037   1.525  0.00  0.00    -0.610 N 
ATOM      4  C   LIG    1       -2.015   7.749   0.357  0.00  0.00    +0.300 C 
ATOM      5  C   LIG    1       -3.467   8.166   0.653  0.00  0.00    +0.120 C 
ATOM      6  C   LIG    1       -3.529   8.761   2.036  0.00  0.00    +0.110 A 
ATOM      7  C   LIG    1       -2.579   8.590   2.991  0.00  0.00    -0.210 A 
ATOM      8  C   LIG    1       -2.983   9.275   4.133  0.00  0.00    +0.000 A 
ATOM      9  N   LIG    1       -4.136   9.845   3.878  0.00  0.00    -0.230 NA
ATOM     10  N   LIG    1       -4.497   9.534   2.558  0.00  0.00    -0.440 N 
ATOM     11  H   LIG    1       -5.303   9.825   2.103  0.00  0.00    +0.450 HD
ATOM     12  C   LIG    1       -1.320   7.781   2.788  0.00  0.00    +0.380 C 
ENDROOT
BRANCH   2  13
ATOM     13  C   LIG    1       -1.180   5.043   0.143  0.00  0.00    -0.250 A 
ATOM     14  C   LIG    1       -0.132   5.163  -0.753  0.00  0.00    +0.200 A 
ATOM     15  C   LIG    1        1.030   6.037  -0.354  0.00  0.00    +0.320 C 
ATOM     16  O   LIG    1        2.154   5.786  -1.196  0.00  0.00    -0.360 OA
ATOM     17  C   LIG    1        1.817   5.816  -2.588  0.00  0.00    +0.240 C 
ATOM     18  C   LIG    1        0.935   4.607  -2.895  0.00  0.00    +0.280 C 
ATOM     19  N   LIG    1       -0.170   4.522  -1.933  0.00  0.00    -0.490 N 
ATOM     20  C   LIG    1       -1.233   3.765  -2.284  0.00  0.00    +0.530 A 
ATOM     21  C   LIG    1       -2.333   3.595  -1.441  0.00  0.00    -0.190 A 
ATOM     22  O   LIG    1       -1.232   3.214  -3.373  0.00  0.00    -0.540 OA
ATOM     23  C   LIG    1       -2.339   4.221  -0.211  0.00  0.00    +0.270 A 
BRANCH  23  24
ATOM     24  O   LIG    1       -3.382   4.080   0.640  0.00  0.00    -0.450 OA
ATOM     25  H   LIG    1       -4.123   3.580   0.274  0.00  0.00    +0.410 HD
ENDBRANCH  23  24
ENDBRANCH   2  13
BRANCH   8  26
ATOM     26  C   LIG    1       -2.227   9.350   5.434  0.00  0.00    +0.550 C 
ATOM     27  F   LIG    1       -1.482   8.179   5.609  0.00  0.00    -0.160 F 
ATOM     28  F   LIG    1       -3.133   9.488   6.492  0.00  0.00    -0.160 F 
ATOM     29  F   LIG    1       -1.366  10.452   5.411  0.00  0.00    -0.170 F 
ENDBRANCH   8  26
TORSDOF 3
