REMARK  Name = ZINCvU0000000E9I.0
REMARK                            x       y       z     vdW  Elec       q    Type
REMARK                         _______ _______ _______ _____ _____    ______ ____
ROOT
ATOM      1  C   LIG    1       -3.100   1.747  -1.103  0.00  0.00    +0.520 C 
ATOM      2  N   LIG    1       -3.419   3.050  -1.230  0.00  0.00    -0.720 N 
ATOM      3  H   LIG    1       -3.449   3.620  -0.446  0.00  0.00    +0.400 HD
ATOM      4  O   LIG    1       -3.063   1.034  -2.084  0.00  0.00    -0.520 OA
ENDROOT
BRANCH   1   5
ATOM      5  C   LIG    1       -2.790   1.175   0.256  0.00  0.00    +0.170 C 
BRANCH   5   7
ATOM      6  C   LIG    1       -1.235  -0.826   0.026  0.00  0.00    +0.140 A 
ATOM      7  C   LIG    1       -2.468  -0.291   0.123  0.00  0.00    -0.200 A 
ATOM      8  S   LIG    1       -3.636  -1.609   0.067  0.00  0.00    +0.140 S 
ATOM      9  C   LIG    1       -2.366  -2.744  -0.080  0.00  0.00    +0.050 A 
ATOM     10  C   LIG    1       -2.556  -4.235  -0.192  0.00  0.00    +0.180 C 
ATOM     11  N   LIG    1       -1.225  -2.145  -0.088  0.00  0.00    -0.460 NA
BRANCH   6  15
ATOM     12  C   LIG    1        1.757   2.981  -1.371  0.00  0.00    +0.140 C 
ATOM     13  C   LIG    1        1.339   1.741  -0.623  0.00  0.00    -0.180 A 
ATOM     14  C   LIG    1        0.167   1.125  -0.759  0.00  0.00    +0.020 A 
ATOM     15  C   LIG    1        0.004  -0.007   0.038  0.00  0.00    -0.040 A 
ATOM     16  C   LIG    1        1.060  -0.297   0.818  0.00  0.00    -0.150 A 
ATOM     17  C   LIG    1        1.143  -1.462   1.770  0.00  0.00    +0.140 C 
ATOM     18  S   LIG    1        2.328   0.893   0.558  0.00  0.00    +0.110 S 
ENDBRANCH   6  15
ENDBRANCH   5   7
ENDBRANCH   1   5
BRANCH   2  19
ATOM     19  C   LIG    1       -3.721   3.606  -2.551  0.00  0.00    +0.300 C 
BRANCH  19  20
ATOM     20  C   LIG    1       -3.443   5.087  -2.549  0.00  0.00    -0.080 A 
ATOM     21  C   LIG    1       -3.780   5.851  -1.447  0.00  0.00    +0.020 A 
ATOM     22  C   LIG    1       -3.526   7.210  -1.441  0.00  0.00    +0.030 A 
ATOM     23  C   LIG    1       -2.934   7.811  -2.542  0.00  0.00    +0.050 A 
ATOM     24  O   LIG    1       -2.697   9.151  -2.524  0.00  0.00    -0.310 OA
ATOM     25  C   LIG    1       -1.766   9.652  -3.489  0.00  0.00    +0.220 C 
ATOM     26  C   LIG    1       -2.105   9.034  -4.852  0.00  0.00    +0.220 C 
ATOM     27  O   LIG    1       -2.004   7.611  -4.736  0.00  0.00    -0.310 OA
ATOM     28  C   LIG    1       -2.593   7.042  -3.649  0.00  0.00    +0.060 A 
ATOM     29  C   LIG    1       -2.846   5.679  -3.646  0.00  0.00    +0.040 A 
ENDBRANCH  19  20
BRANCH  19  30
ATOM     30  C   LIG    1       -5.195   3.364  -2.882  0.00  0.00    -0.030 C 
ATOM     31  C   LIG    1       -5.477   1.861  -2.884  0.00  0.00    +0.020 C 
ATOM     32  C   LIG    1       -5.510   3.945  -4.262  0.00  0.00    +0.030 C 
ENDBRANCH  19  30
ENDBRANCH   2  19
TORSDOF 6
