REMARK  Name = ZINCyk0000000eMz.0
REMARK                            x       y       z     vdW  Elec       q    Type
REMARK                         _______ _______ _______ _____ _____    ______ ____
ROOT
ATOM      1  C   LIG    1       -2.841   6.062  -1.304  0.00  0.00    +0.160 C 
ATOM      2  C   LIG    1       -1.590   5.240  -1.132  0.00  0.00    +0.200 A 
ATOM      3  C   LIG    1       -0.459   5.823  -0.598  0.00  0.00    -0.040 A 
ATOM      4  C   LIG    1        0.691   5.061  -0.442  0.00  0.00    +0.180 A 
ATOM      5  C   LIG    1        0.660   3.734  -0.830  0.00  0.00    -0.720 A 
ATOM      6  C   LIG    1       -0.514   3.211  -1.361  0.00  0.00    +0.380 A 
ATOM      7  N   LIG    1       -1.589   3.972  -1.499  0.00  0.00    -0.510 NA
ENDROOT
BRANCH   6   8
ATOM      8  N   LIG    1       -0.559   1.879  -1.756  0.00  0.00    -0.470 N 
ATOM      9  C   LIG    1       -1.550   1.130  -0.971  0.00  0.00    +0.250 C 
ATOM     10  C   LIG    1       -2.907   1.842  -1.038  0.00  0.00    +0.300 C 
ATOM     11  N   LIG    1       -3.211   2.122  -2.444  0.00  0.00    -0.330 N 
ATOM     12  N   LIG    1       -4.437   2.456  -3.016  0.00  0.00    -0.280 NA
ATOM     13  C   LIG    1       -4.255   2.616  -4.304  0.00  0.00    +0.340 A 
ATOM     14  C   LIG    1       -2.901   2.389  -4.588  0.00  0.00    -0.780 A 
ATOM     15  C   LIG    1       -2.284   2.088  -3.431  0.00  0.00    +0.160 A 
ATOM     16  C   LIG    1       -0.829   1.764  -3.200  0.00  0.00    +0.360 C 
BRANCH  14  17
ATOM     17  S   LIG    1       -2.144   2.480  -6.177  0.00  0.00    +2.530 S 
ATOM     18  O   LIG    1       -3.213   2.801  -7.056  0.00  0.00    -0.930 OA
ATOM     19  O   LIG    1       -1.438   1.253  -6.299  0.00  0.00    -0.930 OA
ATOM     20  C   LIG    1       -0.986   3.870  -6.047  0.00  0.00    -0.270 C 
ENDBRANCH  14  17
ENDBRANCH   6   8
BRANCH   5  21
ATOM     21  S   LIG    1        2.090   2.719  -0.655  0.00  0.00    +2.690 S 
ATOM     22  O   LIG    1        3.210   3.557  -0.906  0.00  0.00    -0.940 OA
ATOM     23  O   LIG    1        1.830   1.529  -1.387  0.00  0.00    -0.890 OA
BRANCH  21  24
ATOM     24  N   LIG    1        2.185   2.276   0.938  0.00  0.00    -1.130 NA
ATOM     25  H   LIG    1        2.958   2.529   1.467  0.00  0.00    +0.420 HD
BRANCH  24  26
ATOM     26  C   LIG    1        1.100   1.504   1.550  0.00  0.00    +0.310 C 
BRANCH  26  27
ATOM     27  C   LIG    1        1.250   1.532   3.072  0.00  0.00    +0.170 C 
BRANCH  27  28
ATOM     28  N   LIG    1        0.741   2.809   3.591  0.00  0.00    -0.390 N 
ATOM     29  C   LIG    1        1.371   3.943   2.867  0.00  0.00    +0.240 C 
ATOM     30  C   LIG    1        0.373   5.107   3.096  0.00  0.00    +0.060 C 
ATOM     31  C   LIG    1       -1.002   4.403   3.028  0.00  0.00    +0.070 C 
ATOM     32  C   LIG    1       -0.711   2.922   3.334  0.00  0.00    +0.250 C 
ATOM     33  H   LIG    1        0.927   2.882   4.580  0.00  0.00    +0.430 HD
ENDBRANCH  27  28
BRANCH  27  34
ATOM     34  C   LIG    1        0.452   0.379   3.684  0.00  0.00    -0.010 C 
ATOM     35  C   LIG    1        0.507   0.474   5.210  0.00  0.00    +0.040 C 
ATOM     36  C   LIG    1        1.053  -0.953   3.233  0.00  0.00    +0.060 C 
ENDBRANCH  27  34
ENDBRANCH  26  27
ENDBRANCH  24  26
ENDBRANCH  21  24
ENDBRANCH   5  21
TORSDOF 8
