REMARK  Name = ZINCah0000002zbF.0
REMARK                            x       y       z     vdW  Elec       q    Type
REMARK                         _______ _______ _______ _____ _____    ______ ____
ROOT
ATOM      1  C   LIG    1        1.182   1.891   0.001  0.00  0.00    -0.100 A 
ATOM      2  C   LIG    1        0.917   3.225   0.010  0.00  0.00    -0.040 A 
ATOM      3  S   LIG    1       -0.762   3.513   0.027  0.00  0.00    +0.190 S 
ATOM      4  C   LIG    1       -1.135   1.798   0.017  0.00  0.00    +0.100 A 
ATOM      5  C   LIG    1       -0.013   1.076   0.008  0.00  0.00    -0.060 A 
ENDROOT
BRANCH   4   6
ATOM      6  N   LIG    1       -2.425   1.264   0.020  0.00  0.00    -0.850 N 
ATOM      7  H   LIG    1       -3.194   1.855   0.026  0.00  0.00    +0.400 HD
ATOM      8  H   LIG    1       -2.551   0.303   0.015  0.00  0.00    +0.410 HD
ENDBRANCH   4   6
BRANCH   1   9
ATOM      9  C   LIG    1        2.542   1.335  -0.014  0.00  0.00    +0.530 C 
ATOM     10  O   LIG    1        2.707   0.131  -0.021  0.00  0.00    -0.500 OA
BRANCH   9  12
ATOM     11  C   LIG    1        4.921   1.542  -0.034  0.00  0.00    +0.260 C 
ATOM     12  O   LIG    1        3.608   2.161  -0.020  0.00  0.00    -0.360 OA
ENDBRANCH   9  12
ENDBRANCH   1   9
TORSDOF 3
