REMARK  Name = ZINCvU000000080b.0
REMARK                            x       y       z     vdW  Elec       q    Type
REMARK                         _______ _______ _______ _____ _____    ______ ____
ROOT
ATOM      1  N   LIG    1        1.317  -0.311  -1.230  0.00  0.00    -0.450 N 
ATOM      2  C   LIG    1        0.053   0.114  -0.940  0.00  0.00    +0.140 A 
ATOM      3  N   LIG    1        0.130   1.393  -0.644  0.00  0.00    -0.290 NA
ATOM      4  N   LIG    1        1.348   1.793  -0.730  0.00  0.00    -0.270 NA
ATOM      5  C   LIG    1        2.123   0.795  -1.085  0.00  0.00    +0.230 A 
ENDROOT
BRANCH   5   6
ATOM      6  C   LIG    1        3.587   0.848  -1.290  0.00  0.00    -0.030 A 
ATOM      7  C   LIG    1        4.334   1.888  -0.734  0.00  0.00    +0.070 A 
ATOM      8  C   LIG    1        5.700   1.929  -0.925  0.00  0.00    +0.020 A 
ATOM      9  C   LIG    1        6.327   0.950  -1.674  0.00  0.00    -0.050 A 
ATOM     10  C   LIG    1        5.591  -0.080  -2.232  0.00  0.00    +0.020 A 
ATOM     11  C   LIG    1        4.225  -0.137  -2.045  0.00  0.00    +0.010 A 
BRANCH   9  12
ATOM     12  C   LIG    1        7.819   1.004  -1.883  0.00  0.00    -0.030 C 
ATOM     13  C   LIG    1        8.460  -0.262  -1.313  0.00  0.00    +0.040 C 
ATOM     14  C   LIG    1        8.389   2.231  -1.168  0.00  0.00    +0.030 C 
ATOM     15  C   LIG    1        8.121   1.100  -3.379  0.00  0.00    +0.040 C 
ENDBRANCH   9  12
ENDBRANCH   5   6
BRANCH   1  16
ATOM     16  C   LIG    1        1.730  -1.663  -1.616  0.00  0.00    +0.340 C 
BRANCH  16  18
ATOM     17  C   LIG    1        2.518  -2.266  -3.847  0.00  0.00    +0.060 C 
ATOM     18  C   LIG    1        1.528  -1.846  -3.098  0.00  0.00    -0.070 C 
ENDBRANCH  16  18
ENDBRANCH   1  16
BRANCH   2  19
ATOM     19  S   LIG    1       -1.410  -0.868  -0.957  0.00  0.00    +0.090 S 
BRANCH  19  20
ATOM     20  C   LIG    1       -2.631   0.379  -0.477  0.00  0.00    +0.110 C 
BRANCH  20  21
ATOM     21  C   LIG    1       -3.999  -0.252  -0.425  0.00  0.00    +0.530 C 
ATOM     22  N   LIG    1       -5.072   0.491  -0.087  0.00  0.00    -0.660 N 
ATOM     23  H   LIG    1       -4.967   1.438   0.098  0.00  0.00    +0.420 HD
ATOM     24  O   LIG    1       -4.135  -1.429  -0.686  0.00  0.00    -0.490 OA
BRANCH  22  25
ATOM     25  C   LIG    1       -6.338  -0.104  -0.003  0.00  0.00    +0.070 A 
ATOM     26  C   LIG    1       -7.466   0.600  -0.407  0.00  0.00    +0.110 A 
ATOM     27  C   LIG    1       -8.714   0.008  -0.326  0.00  0.00    +0.000 A 
ATOM     28  C   LIG    1       -8.841  -1.278   0.164  0.00  0.00    +0.080 A 
ATOM     29  C   LIG    1       -7.721  -1.980   0.571  0.00  0.00    +0.000 A 
ATOM     30  F   LIG    1       -7.345   1.860  -0.881  0.00  0.00    -0.130 F 
ATOM     31  C   LIG    1       -6.469  -1.397   0.489  0.00  0.00    +0.130 A 
ATOM     32  F   LIG    1       -5.376  -2.083   0.887  0.00  0.00    -0.110 F 
ENDBRANCH  22  25
ENDBRANCH  20  21
ENDBRANCH  19  20
ENDBRANCH   2  19
TORSDOF 8
