REMARK  Name = ZINCvU0000000Eg4.0
REMARK                            x       y       z     vdW  Elec       q    Type
REMARK                         _______ _______ _______ _____ _____    ______ ____
ROOT
ATOM      1  C   LIG    1        1.475   7.029  -3.204  0.00  0.00    +0.170 A 
ATOM      2  C   LIG    1        2.150   6.820  -4.406  0.00  0.00    +0.000 A 
ATOM      3  C   LIG    1        3.017   5.773  -4.541  0.00  0.00    +0.080 A 
ATOM      4  C   LIG    1        3.232   4.906  -3.467  0.00  0.00    -0.120 A 
ATOM      5  C   LIG    1        4.068   3.719  -3.272  0.00  0.00    -0.050 A 
ATOM      6  C   LIG    1        3.864   3.298  -2.014  0.00  0.00    +0.220 A 
ATOM      7  N   LIG    1        2.959   4.114  -1.389  0.00  0.00    -0.480 N 
ATOM      8  C   LIG    1        2.555   5.110  -2.251  0.00  0.00    +0.120 A 
ATOM      9  C   LIG    1        1.675   6.179  -2.130  0.00  0.00    -0.040 A 
ENDROOT
BRANCH   1  11
ATOM     10  C   LIG    1        0.853   9.268  -3.710  0.00  0.00    +0.560 C 
ATOM     11  N   LIG    1        0.589   8.105  -3.083  0.00  0.00    -0.670 N 
ATOM     12  H   LIG    1       -0.214   8.013  -2.548  0.00  0.00    +0.410 HD
ATOM     13  O   LIG    1        1.816   9.357  -4.448  0.00  0.00    -0.510 OA
BRANCH  10  17
ATOM     14  C   LIG    1       -1.680  12.624  -3.112  0.00  0.00    +0.170 A 
ATOM     15  C   LIG    1       -0.578  12.728  -3.955  0.00  0.00    +0.020 A 
ATOM     16  C   LIG    1        0.245  11.642  -4.152  0.00  0.00    +0.110 A 
ATOM     17  C   LIG    1       -0.027  10.434  -3.502  0.00  0.00    -0.150 A 
ATOM     18  C   LIG    1       -1.137  10.332  -2.659  0.00  0.00    +0.070 A 
ATOM     19  C   LIG    1       -1.954  11.423  -2.464  0.00  0.00    -0.020 A 
BRANCH  14  21
ATOM     20  C   LIG    1       -2.749  14.579  -3.931  0.00  0.00    +0.540 C 
ATOM     21  N   LIG    1       -2.511  13.725  -2.916  0.00  0.00    -0.670 N 
ATOM     22  H   LIG    1       -2.919  13.877  -2.049  0.00  0.00    +0.420 HD
ATOM     23  O   LIG    1       -2.173  14.437  -4.993  0.00  0.00    -0.520 OA
BRANCH  20  25
ATOM     24  C   LIG    1       -3.938  16.527  -4.756  0.00  0.00    +0.160 C 
ATOM     25  C   LIG    1       -3.704  15.684  -3.754  0.00  0.00    -0.090 C 
ENDBRANCH  20  25
ENDBRANCH  14  21
ENDBRANCH  10  17
ENDBRANCH   1  11
BRANCH   7  26
ATOM     26  C   LIG    1        2.494   3.955  -0.009  0.00  0.00    +0.350 C 
BRANCH  26  27
ATOM     27  C   LIG    1        1.202   3.179  -0.001  0.00  0.00    -0.150 A 
ATOM     28  C   LIG    1       -0.006   3.849   0.018  0.00  0.00    +0.060 A 
ATOM     29  C   LIG    1       -1.192   3.138   0.025  0.00  0.00    +0.000 A 
ATOM     30  C   LIG    1       -1.170   1.756   0.009  0.00  0.00    +0.060 A 
ATOM     31  C   LIG    1        0.037   1.083  -0.004  0.00  0.00    -0.010 A 
ATOM     32  C   LIG    1        1.225   1.795  -0.012  0.00  0.00    +0.120 A 
ATOM     33  F   LIG    1        2.406   1.139  -0.031  0.00  0.00    -0.140 F 
ENDBRANCH  26  27
ENDBRANCH   7  26
TORSDOF 6
