REMARK  Name = ZINCvU0000000F4L.0
REMARK                            x       y       z     vdW  Elec       q    Type
REMARK                         _______ _______ _______ _____ _____    ______ ____
ROOT
ATOM      1  C   LIG    1        0.071  -4.280  -0.024  0.00  0.00    +0.280 C 
ATOM      2  C   LIG    1       -0.005  -4.798  -1.476  0.00  0.00    +0.050 C 
ATOM      3  C   LIG    1        0.957  -6.015  -1.462  0.00  0.00    +0.040 C 
ATOM      4  C   LIG    1        2.059  -5.530  -0.487  0.00  0.00    +0.250 C 
ATOM      5  N   LIG    1        1.338  -4.763   0.546  0.00  0.00    -0.620 N 
ATOM      6  C   LIG    1        1.769  -4.542   1.804  0.00  0.00    +0.530 C 
ATOM      7  O   LIG    1        1.089  -3.895   2.572  0.00  0.00    -0.520 OA
ENDROOT
BRANCH   1  11
ATOM      8  C   LIG    1        0.002  -0.004   0.002  0.00  0.00    +0.170 A 
ATOM      9  C   LIG    1        1.213  -0.682  -0.019  0.00  0.00    -0.110 A 
ATOM     10  C   LIG    1        1.232  -2.064  -0.022  0.00  0.00    +0.090 A 
ATOM     11  C   LIG    1        0.047  -2.774  -0.014  0.00  0.00    -0.150 A 
ATOM     12  C   LIG    1       -1.167  -2.100   0.001  0.00  0.00    +0.180 A 
ATOM     13  C   LIG    1       -1.189  -0.714   0.010  0.00  0.00    -0.100 A 
BRANCH   8  15
ATOM     14  C   LIG    1        1.248   2.021   0.001  0.00  0.00    +0.250 C 
ATOM     15  O   LIG    1       -0.016   1.355   0.009  0.00  0.00    -0.320 OA
ENDBRANCH   8  15
BRANCH  12  16
ATOM     16  O   LIG    1       -2.332  -2.799   0.008  0.00  0.00    -0.310 OA
ATOM     17  C   LIG    1       -3.543  -2.040   0.024  0.00  0.00    +0.250 C 
ENDBRANCH  12  16
ENDBRANCH   1  11
BRANCH   6  18
ATOM     18  C   LIG    1        3.094  -5.100   2.255  0.00  0.00    +0.070 C 
BRANCH  18  19
ATOM     19  C   LIG    1        3.342  -4.707   3.713  0.00  0.00    +0.210 C 
BRANCH  19  20
ATOM     20  C   LIG    1        4.668  -5.265   4.165  0.00  0.00    +0.200 A 
ATOM     21  N   LIG    1        5.816  -4.656   4.070  0.00  0.00    -0.480 NA
ATOM     22  C   LIG    1        6.773  -5.452   4.571  0.00  0.00    +0.180 A 
ATOM     23  C   LIG    1        6.174  -6.597   4.989  0.00  0.00    -0.010 A 
ATOM     24  O   LIG    1        4.854  -6.464   4.733  0.00  0.00    -0.180 OA
BRANCH  23  25
ATOM     25  C   LIG    1        6.838  -7.763   5.609  0.00  0.00    -0.010 A 
ATOM     26  C   LIG    1        7.966  -8.327   5.011  0.00  0.00    +0.060 A 
ATOM     27  C   LIG    1        8.582  -9.415   5.595  0.00  0.00    +0.030 A 
ATOM     28  C   LIG    1        8.083  -9.947   6.771  0.00  0.00    +0.050 A 
ATOM     29  C   LIG    1        6.965  -9.394   7.370  0.00  0.00    +0.030 A 
ATOM     30  C   LIG    1        6.343  -8.301   6.799  0.00  0.00    -0.020 A 
ATOM     31 CL   LIG    1        4.946  -7.602   7.555  0.00  0.00    -0.050 Cl
ENDBRANCH  23  25
ENDBRANCH  19  20
ENDBRANCH  18  19
ENDBRANCH   6  18
TORSDOF 7
