REMARK  Name = ZINCBu0000000c3l.0
REMARK                            x       y       z     vdW  Elec       q    Type
REMARK                         _______ _______ _______ _____ _____    ______ ____
ROOT
ATOM      1  N   LIG    1       -4.569  -3.316  -0.699  0.00  0.00    -0.730 N 
ATOM      2  H   LIG    1       -5.450  -3.062  -0.382  0.00  0.00    +0.410 HD
ATOM      3  C   LIG    1       -3.540  -2.452  -0.595  0.00  0.00    +0.520 C 
ATOM      4  O   LIG    1       -2.439  -2.769  -0.992  0.00  0.00    -0.520 OA
ENDROOT
BRANCH   1   5
ATOM      5  C   LIG    1       -4.357  -4.639  -1.291  0.00  0.00    +0.330 C 
BRANCH   5  10
ATOM      6  C   LIG    1       -7.181  -6.899  -0.205  0.00  0.00    -0.160 A 
ATOM      7  C   LIG    1       -8.038  -6.808  -1.285  0.00  0.00    +0.050 A 
ATOM      8  C   LIG    1       -7.704  -6.015  -2.368  0.00  0.00    +0.030 A 
ATOM      9  C   LIG    1       -6.514  -5.313  -2.369  0.00  0.00    +0.070 A 
ATOM     10  C   LIG    1       -5.656  -5.404  -1.289  0.00  0.00    -0.100 A 
ATOM     11  C   LIG    1       -5.987  -6.201  -0.209  0.00  0.00    +0.050 A 
BRANCH   6  12
ATOM     12  C   LIG    1       -7.545  -7.762   0.975  0.00  0.00    +0.330 C 
BRANCH  12  17
ATOM     13  C   LIG    1       -7.023 -11.427   1.596  0.00  0.00    +0.010 C 
ATOM     14  C   LIG    1       -5.493 -11.456   1.530  0.00  0.00    +0.070 C 
ATOM     15  C   LIG    1       -5.021 -10.488   0.441  0.00  0.00    +0.050 C 
ATOM     16  C   LIG    1       -5.562  -9.088   0.741  0.00  0.00    +0.240 C 
ATOM     17  N   LIG    1       -7.029  -9.122   0.764  0.00  0.00    -0.380 N 
ATOM     18  H   LIG    1       -7.371  -9.477  -0.116  0.00  0.00    +0.430 HD
ATOM     19  C   LIG    1       -7.488  -9.992   1.854  0.00  0.00    +0.290 C 
BRANCH  13  23
ATOM     20  N   LIG    1       -7.310 -13.160  -0.146  0.00  0.00    -0.830 N 
ATOM     21  H   LIG    1       -7.677 -13.475  -0.987  0.00  0.00    +0.420 HD
ATOM     22  H   LIG    1       -6.740 -13.740   0.382  0.00  0.00    +0.410 HD
ATOM     23  C   LIG    1       -7.593 -11.916   0.289  0.00  0.00    +0.520 C 
ATOM     24  O   LIG    1       -8.306 -11.190  -0.371  0.00  0.00    -0.560 OA
ENDBRANCH  13  23
ENDBRANCH  12  17
ENDBRANCH   6  12
ENDBRANCH   5  10
ENDBRANCH   1   5
BRANCH   3  25
ATOM     25  C   LIG    1       -3.758  -1.091   0.014  0.00  0.00    +0.260 C 
BRANCH  25  26
ATOM     26  N   LIG    1       -2.496  -0.347   0.012  0.00  0.00    -0.710 N 
ATOM     27  H   LIG    1       -1.652  -0.825   0.005  0.00  0.00    +0.410 HD
ATOM     28  C   LIG    1       -2.508   1.001   0.019  0.00  0.00    +0.570 C 
ATOM     29  O   LIG    1       -3.566   1.599   0.028  0.00  0.00    -0.510 OA
BRANCH  28  30
ATOM     30  C   LIG    1       -1.234   1.751   0.018  0.00  0.00    -0.190 A 
ATOM     31  C   LIG    1       -1.232   3.151   0.031  0.00  0.00    +0.140 A 
ATOM     32  C   LIG    1       -0.013   3.806   0.023  0.00  0.00    -0.030 A 
ATOM     33  C   LIG    1        1.154   3.063   0.007  0.00  0.00    +0.290 A 
ATOM     34  N   LIG    1        1.122   1.744   0.001  0.00  0.00    -0.490 NA
ATOM     35  C   LIG    1       -0.013   1.076   0.008  0.00  0.00    +0.290 A 
ENDBRANCH  28  30
ENDBRANCH  25  26
BRANCH  25  36
ATOM     36  C   LIG    1       -4.255  -1.249   1.452  0.00  0.00    +0.080 C 
BRANCH  36  37
ATOM     37  C   LIG    1       -4.589   0.106   2.021  0.00  0.00    -0.070 A 
ATOM     38  C   LIG    1       -3.621   0.835   2.686  0.00  0.00    +0.000 A 
ATOM     39  C   LIG    1       -3.927   2.080   3.202  0.00  0.00    +0.010 A 
ATOM     40  C   LIG    1       -5.204   2.592   3.063  0.00  0.00    +0.010 A 
ATOM     41  C   LIG    1       -6.173   1.861   2.403  0.00  0.00    +0.010 A 
ATOM     42  C   LIG    1       -5.866   0.618   1.881  0.00  0.00    +0.000 A 
ENDBRANCH  36  37
ENDBRANCH  25  36
ENDBRANCH   3  25
TORSDOF 10
