REMARK  Name = ZINCBu0000000c3l.1
REMARK                            x       y       z     vdW  Elec       q    Type
REMARK                         _______ _______ _______ _____ _____    ______ ____
ROOT
ATOM      1  N   LIG    1       -4.074  -1.944  -4.078  0.00  0.00    -0.730 N 
ATOM      2  H   LIG    1       -4.127  -1.031  -4.401  0.00  0.00    +0.410 HD
ATOM      3  C   LIG    1       -4.303  -2.972  -4.919  0.00  0.00    +0.520 C 
ATOM      4  O   LIG    1       -4.237  -4.113  -4.515  0.00  0.00    -0.520 OA
ENDROOT
BRANCH   1   5
ATOM      5  C   LIG    1       -3.747  -2.206  -2.674  0.00  0.00    +0.330 C 
BRANCH   5  10
ATOM      6  C   LIG    1       -2.092   0.870  -1.242  0.00  0.00    -0.160 A 
ATOM      7  C   LIG    1       -3.161   1.501  -0.634  0.00  0.00    +0.040 A 
ATOM      8  C   LIG    1       -4.420   0.932  -0.686  0.00  0.00    +0.030 A 
ATOM      9  C   LIG    1       -4.609  -0.267  -1.346  0.00  0.00    +0.070 A 
ATOM     10  C   LIG    1       -3.540  -0.898  -1.954  0.00  0.00    -0.100 A 
ATOM     11  C   LIG    1       -2.282  -0.327  -1.906  0.00  0.00    +0.060 A 
BRANCH   6  12
ATOM     12  C   LIG    1       -0.719   1.490  -1.185  0.00  0.00    +0.320 C 
BRANCH  12  17
ATOM     13  C   LIG    1        2.131   0.945   1.195  0.00  0.00    -0.010 C 
ATOM     14  C   LIG    1        1.436   1.379   2.489  0.00  0.00    +0.060 C 
ATOM     15  C   LIG    1       -0.022   0.909   2.456  0.00  0.00    +0.070 C 
ATOM     16  C   LIG    1       -0.707   1.477   1.211  0.00  0.00    +0.240 C 
ATOM     17  N   LIG    1       -0.012   1.005   0.008  0.00  0.00    -0.380 N 
ATOM     18  H   LIG    1        0.002  -0.004   0.002  0.00  0.00    +0.420 HD
ATOM     19  C   LIG    1        1.366   1.511  -0.003  0.00  0.00    +0.290 C 
BRANCH  13  23
ATOM     20  N   LIG    1        4.407   1.100   2.150  0.00  0.00    -0.840 N 
ATOM     21  H   LIG    1        5.317   1.436   2.142  0.00  0.00    +0.420 HD
ATOM     22  H   LIG    1        4.119   0.498   2.854  0.00  0.00    +0.410 HD
ATOM     23  C   LIG    1        3.544   1.468   1.183  0.00  0.00    +0.530 C 
ATOM     24  O   LIG    1        3.905   2.220   0.302  0.00  0.00    -0.530 OA
ENDBRANCH  13  23
ENDBRANCH  12  17
ENDBRANCH   6  12
ENDBRANCH   5  10
ENDBRANCH   1   5
BRANCH   3  25
ATOM     25  C   LIG    1       -4.639  -2.703  -6.363  0.00  0.00    +0.260 C 
BRANCH  25  26
ATOM     26  N   LIG    1       -4.840  -3.974  -7.063  0.00  0.00    -0.710 N 
ATOM     27  H   LIG    1       -4.418  -4.782  -6.732  0.00  0.00    +0.410 HD
ATOM     28  C   LIG    1       -5.612  -4.021  -8.167  0.00  0.00    +0.570 C 
ATOM     29  O   LIG    1       -6.141  -3.008  -8.582  0.00  0.00    -0.510 OA
BRANCH  28  30
ATOM     30  C   LIG    1       -5.815  -5.303  -8.873  0.00  0.00    -0.190 A 
ATOM     31  C   LIG    1       -6.619  -5.366 -10.018  0.00  0.00    +0.140 A 
ATOM     32  C   LIG    1       -6.772  -6.591 -10.645  0.00  0.00    -0.030 A 
ATOM     33  C   LIG    1       -6.142  -7.704 -10.119  0.00  0.00    +0.290 A 
ATOM     34  N   LIG    1       -5.394  -7.616  -9.036  0.00  0.00    -0.490 NA
ATOM     35  C   LIG    1       -5.213  -6.473  -8.407  0.00  0.00    +0.290 A 
ENDBRANCH  28  30
ENDBRANCH  25  26
BRANCH  25  36
ATOM     36  C   LIG    1       -3.490  -1.935  -7.020  0.00  0.00    +0.080 C 
BRANCH  36  37
ATOM     37  C   LIG    1       -3.878  -1.558  -8.427  0.00  0.00    -0.070 A 
ATOM     38  C   LIG    1       -3.591  -2.413  -9.475  0.00  0.00    +0.000 A 
ATOM     39  C   LIG    1       -3.951  -2.070 -10.765  0.00  0.00    +0.010 A 
ATOM     40  C   LIG    1       -4.587  -0.868 -11.009  0.00  0.00    +0.010 A 
ATOM     41  C   LIG    1       -4.869  -0.010  -9.961  0.00  0.00    +0.010 A 
ATOM     42  C   LIG    1       -4.514  -0.356  -8.671  0.00  0.00    +0.000 A 
ENDBRANCH  36  37
ENDBRANCH  25  36
ENDBRANCH   3  25
TORSDOF 10
