REMARK  Name = ZINCvU00000008qX.0
REMARK                            x       y       z     vdW  Elec       q    Type
REMARK                         _______ _______ _______ _____ _____    ______ ____
ROOT
ATOM      1  C   LIG    1        2.200   6.726  -0.017  0.00  0.00    +0.350 C 
ENDROOT
BRANCH   1   2
ATOM      2  C   LIG    1        1.494   5.395  -0.025  0.00  0.00    +0.300 A 
ATOM      3  N   LIG    1        0.203   5.236  -0.019  0.00  0.00    -0.460 NA
ATOM      4  C   LIG    1       -0.094   3.911  -0.030  0.00  0.00    +0.060 A 
ATOM      5  C   LIG    1       -1.293   3.193  -0.029  0.00  0.00    +0.090 A 
ATOM      6  C   LIG    1       -1.265   1.816  -0.048  0.00  0.00    -0.040 A 
ATOM      7  C   LIG    1       -0.055   1.136  -0.057  0.00  0.00    +0.050 A 
ATOM      8  C   LIG    1        1.137   1.830  -0.057  0.00  0.00    +0.040 A 
ATOM      9 CL   LIG    1       -2.755   0.924  -0.054  0.00  0.00    -0.060 Cl
ATOM     10  C   LIG    1        1.128   3.217  -0.044  0.00  0.00    +0.050 A 
ATOM     11  N   LIG    1        2.114   4.184  -0.041  0.00  0.00    -0.580 N 
ATOM     12  H   LIG    1        3.072   4.029  -0.047  0.00  0.00    +0.430 HD
ENDBRANCH   1   2
BRANCH   1  13
ATOM     13  C   LIG    1        1.708   7.562  -1.170  0.00  0.00    -0.110 A 
ATOM     14  C   LIG    1        2.208   7.350  -2.441  0.00  0.00    +0.030 A 
ATOM     15  C   LIG    1        1.754   8.114  -3.500  0.00  0.00    +0.000 A 
ATOM     16  C   LIG    1        0.806   9.097  -3.285  0.00  0.00    +0.020 A 
ATOM     17  C   LIG    1        0.309   9.313  -2.013  0.00  0.00    +0.010 A 
ATOM     18  C   LIG    1        0.761   8.546  -0.956  0.00  0.00    +0.050 A 
ENDBRANCH   1  13
BRANCH   1  19
ATOM     19  O   LIG    1        3.631   6.516  -0.148  0.00  0.00    -0.350 OA
BRANCH  19  20
ATOM     20  C   LIG    1        4.438   7.425   0.433  0.00  0.00    +0.520 C 
ATOM     21  O   LIG    1        3.959   8.367   1.033  0.00  0.00    -0.480 OA
BRANCH  20  24
ATOM     22  C   LIG    1        8.118   8.068   0.853  0.00  0.00    +0.140 A 
ATOM     23  C   LIG    1        6.743   8.218   0.938  0.00  0.00    +0.100 A 
ATOM     24  C   LIG    1        5.905   7.275   0.342  0.00  0.00    -0.110 A 
ATOM     25  C   LIG    1        6.457   6.194  -0.346  0.00  0.00    +0.060 A 
ATOM     26  C   LIG    1        7.828   6.056  -0.430  0.00  0.00    +0.030 A 
ATOM     27  C   LIG    1        8.658   6.988   0.165  0.00  0.00    -0.080 A 
ATOM     28  C   LIG    1       10.154   6.830   0.069  0.00  0.00    +0.110 C 
BRANCH  22  31
ATOM     29  C   LIG    1        9.386  10.837   3.065  0.00  0.00    +0.110 C 
ATOM     30  C   LIG    1        8.523   9.740   2.497  0.00  0.00    +0.510 C 
ATOM     31  N   LIG    1        8.963   9.008   1.455  0.00  0.00    -0.670 N 
ATOM     32  H   LIG    1        9.866   9.131   1.122  0.00  0.00    +0.410 HD
ATOM     33  O   LIG    1        7.432   9.517   2.977  0.00  0.00    -0.520 OA
ENDBRANCH  22  31
ENDBRANCH  20  24
ENDBRANCH  19  20
ENDBRANCH   1  19
TORSDOF 6
