REMARK  Name = ZINCvU00000008qX.1
REMARK                            x       y       z     vdW  Elec       q    Type
REMARK                         _______ _______ _______ _____ _____    ______ ____
ROOT
ATOM      1  C   LIG    1        3.696   6.279   0.036  0.00  0.00    +0.350 C 
ENDROOT
BRANCH   1   2
ATOM      2  C   LIG    1        3.572   7.593   0.763  0.00  0.00    +0.300 A 
ATOM      3  N   LIG    1        4.517   8.482   0.862  0.00  0.00    -0.460 NA
ATOM      4  C   LIG    1        4.070   9.545   1.580  0.00  0.00    +0.050 A 
ATOM      5  C   LIG    1        4.652  10.751   1.978  0.00  0.00    +0.100 A 
ATOM      6  C   LIG    1        3.931  11.643   2.720  0.00  0.00    +0.020 A 
ATOM      7  C   LIG    1        2.620  11.365   3.084  0.00  0.00    -0.010 A 
ATOM      8  C   LIG    1        2.025  10.180   2.701  0.00  0.00    +0.040 A 
ATOM      9 CL   LIG    1        1.724  12.515   4.026  0.00  0.00    -0.060 Cl
ATOM     10  C   LIG    1        2.744   9.262   1.948  0.00  0.00    +0.060 A 
ATOM     11  N   LIG    1        2.457   8.020   1.417  0.00  0.00    -0.580 N 
ATOM     12  H   LIG    1        1.617   7.541   1.494  0.00  0.00    +0.430 HD
ENDBRANCH   1   2
BRANCH   1  13
ATOM     13  C   LIG    1        4.125   6.530  -1.386  0.00  0.00    -0.110 A 
ATOM     14  C   LIG    1        3.194   6.919  -2.331  0.00  0.00    +0.030 A 
ATOM     15  C   LIG    1        3.588   7.153  -3.635  0.00  0.00    +0.000 A 
ATOM     16  C   LIG    1        4.913   6.990  -3.996  0.00  0.00    +0.030 A 
ATOM     17  C   LIG    1        5.843   6.596  -3.052  0.00  0.00    +0.010 A 
ATOM     18  C   LIG    1        5.449   6.365  -1.748  0.00  0.00    +0.050 A 
ENDBRANCH   1  13
BRANCH   1  19
ATOM     19  O   LIG    1        2.412   5.600   0.042  0.00  0.00    -0.350 OA
BRANCH  19  20
ATOM     20  C   LIG    1        2.433   4.253   0.026  0.00  0.00    +0.520 C 
ATOM     21  O   LIG    1        3.494   3.662   0.009  0.00  0.00    -0.480 OA
BRANCH  20  24
ATOM     22  C   LIG    1       -0.011   1.395   0.018  0.00  0.00    +0.130 A 
ATOM     23  C   LIG    1        1.183   2.099   0.014  0.00  0.00    +0.110 A 
ATOM     24  C   LIG    1        1.165   3.495   0.031  0.00  0.00    -0.110 A 
ATOM     25  C   LIG    1       -0.057   4.172   0.051  0.00  0.00    +0.070 A 
ATOM     26  C   LIG    1       -1.240   3.461   0.054  0.00  0.00    +0.030 A 
ATOM     27  C   LIG    1       -1.221   2.079   0.032  0.00  0.00    -0.070 A 
ATOM     28  C   LIG    1       -2.518   1.311   0.029  0.00  0.00    +0.110 C 
BRANCH  22  31
ATOM     29  C   LIG    1        0.917  -2.164  -0.782  0.00  0.00    +0.110 C 
ATOM     30  C   LIG    1        0.961  -0.661  -0.680  0.00  0.00    +0.510 C 
ATOM     31  N   LIG    1        0.002  -0.004   0.002  0.00  0.00    -0.670 N 
ATOM     32  H   LIG    1       -0.679  -0.501   0.482  0.00  0.00    +0.410 HD
ATOM     33  O   LIG    1        1.859  -0.043  -1.212  0.00  0.00    -0.520 OA
ENDBRANCH  22  31
ENDBRANCH  20  24
ENDBRANCH  19  20
ENDBRANCH   1  19
TORSDOF 6
