REMARK  Name = ZINCpe000000UZIz.0
REMARK                            x       y       z     vdW  Elec       q    Type
REMARK                         _______ _______ _______ _____ _____    ______ ____
ROOT
ATOM      1  C   LIG    1        1.417   2.329  -0.012  0.00  0.00    +0.000 C 
ATOM      2  C   LIG    1        1.398   3.855  -0.134  0.00  0.00    +0.030 C 
ATOM      3  C   LIG    1        2.833   4.383  -0.176  0.00  0.00    +0.010 C 
ATOM      4  C   LIG    1        3.549   4.012   1.127  0.00  0.00    +0.260 C 
ATOM      5  N   LIG    1        3.446   2.559   1.325  0.00  0.00    -0.620 N 
ATOM      6  C   LIG    1        4.550   1.815   1.532  0.00  0.00    +0.710 C 
ATOM      7  N   LIG    1        5.770   2.384   1.458  0.00  0.00    -0.730 N 
ATOM      8  H   LIG    1        5.852   3.342   1.334  0.00  0.00    +0.410 HD
ATOM      9  O   LIG    1        4.446   0.630   1.786  0.00  0.00    -0.580 OA
ATOM     10  C   LIG    1        2.117   1.934   1.293  0.00  0.00    +0.300 C 
ENDROOT
BRANCH   1  11
ATOM     11  C   LIG    1       -0.018   1.799  -0.002  0.00  0.00    -0.350 C 
BRANCH  11  12
ATOM     12  S   LIG    1        0.008  -0.015  -0.002  0.00  0.00    +2.600 S 
ATOM     13  O   LIG    1        0.513  -0.506   1.232  0.00  0.00    -0.950 OA
ATOM     14  O   LIG    1        0.497  -0.507  -1.242  0.00  0.00    -0.950 OA
BRANCH  12  16
ATOM     15  C   LIG    1       -2.445  -0.126  -1.136  0.00  0.00    +0.290 C 
ATOM     16  N   LIG    1       -1.590  -0.450   0.009  0.00  0.00    -1.130 NA
ATOM     17  H   LIG    1       -1.960  -0.920   0.772  0.00  0.00    +0.420 HD
ENDBRANCH  12  16
ENDBRANCH  11  12
ENDBRANCH   1  11
BRANCH   7  18
ATOM     18  C   LIG    1        6.973   1.554   1.567  0.00  0.00    +0.400 C 
BRANCH  18  19
ATOM     19  C   LIG    1        8.120   2.395   2.063  0.00  0.00    +0.190 A 
ATOM     20  N   LIG    1        8.433   3.586   1.630  0.00  0.00    -0.480 NA
ATOM     21  C   LIG    1        9.507   4.032   2.299  0.00  0.00    +0.140 A 
ATOM     22  C   LIG    1        9.878   3.078   3.174  0.00  0.00    +0.130 A 
ATOM     23  N   LIG    1        8.999   2.039   3.024  0.00  0.00    -0.450 N 
ATOM     24  C   LIG    1        9.010   0.777   3.768  0.00  0.00    +0.320 C 
ENDBRANCH  18  19
BRANCH  18  25
ATOM     25  C   LIG    1        7.320   0.977   0.192  0.00  0.00    -0.060 C 
ATOM     26  C   LIG    1        6.535   1.501  -1.012  0.00  0.00    +0.020 C 
ATOM     27  C   LIG    1        6.275   0.088  -0.485  0.00  0.00    +0.030 C 
ENDBRANCH  18  25
ENDBRANCH   7  18
TORSDOF 6
