REMARK  Name = ZINCqH0000008m8S.0
REMARK                            x       y       z     vdW  Elec       q    Type
REMARK                         _______ _______ _______ _____ _____    ______ ____
ROOT
ATOM      1  N   LIG    1       -4.072   0.030   1.691  0.00  0.00    -0.730 N 
ATOM      2  H   LIG    1       -4.617  -0.291   0.955  0.00  0.00    +0.400 HD
ATOM      3  C   LIG    1       -2.936   0.711   1.442  0.00  0.00    +0.510 C 
ATOM      4  O   LIG    1       -2.255   1.111   2.362  0.00  0.00    -0.530 OA
ENDROOT
BRANCH   1   6
ATOM      5  C   LIG    1       -3.788  -1.490   3.587  0.00  0.00    +0.020 C 
ATOM      6  C   LIG    1       -4.484  -0.228   3.074  0.00  0.00    +0.240 C 
BRANCH   6   7
ATOM      7  C   LIG    1       -6.000  -0.425   3.125  0.00  0.00    -0.060 C 
ATOM      8  C   LIG    1       -6.697   0.837   2.612  0.00  0.00    +0.020 C 
ATOM      9  C   LIG    1       -8.213   0.640   2.664  0.00  0.00    -0.020 C 
ATOM     10  C   LIG    1       -8.603  -0.550   1.786  0.00  0.00    +0.010 C 
ATOM     11  C   LIG    1       -7.907  -1.812   2.299  0.00  0.00    -0.020 C 
ATOM     12  C   LIG    1       -8.337  -2.081   3.743  0.00  0.00    +0.010 C 
ATOM     13  C   LIG    1       -7.947  -0.890   4.621  0.00  0.00    -0.020 C 
ATOM     14  C   LIG    1       -8.643   0.372   4.108  0.00  0.00    +0.010 C 
ATOM     15  C   LIG    1       -6.390  -1.615   2.247  0.00  0.00    +0.030 C 
ATOM     16  C   LIG    1       -6.431  -0.693   4.569  0.00  0.00    +0.030 C 
ENDBRANCH   6   7
ENDBRANCH   1   6
BRANCH   3  17
ATOM     17  C   LIG    1       -2.513   0.976   0.021  0.00  0.00    +0.110 C 
BRANCH  17  18
ATOM     18  C   LIG    1       -1.219   1.749   0.017  0.00  0.00    -0.060 A 
ATOM     19  C   LIG    1       -0.013   1.076   0.008  0.00  0.00    +0.030 A 
ATOM     20  C   LIG    1        1.176   1.782   0.000  0.00  0.00    +0.030 A 
ATOM     21  C   LIG    1        1.160   3.169   0.007  0.00  0.00    +0.050 A 
ATOM     22  O   LIG    1        2.338   3.850   0.003  0.00  0.00    -0.310 OA
ATOM     23  C   LIG    1        2.280   5.233  -0.365  0.00  0.00    +0.220 C 
ATOM     24  C   LIG    1        1.114   5.883   0.391  0.00  0.00    +0.220 C 
ATOM     25  O   LIG    1       -0.092   5.207   0.023  0.00  0.00    -0.310 OA
ATOM     26  C   LIG    1       -0.054   3.846   0.020  0.00  0.00    +0.050 A 
ATOM     27  C   LIG    1       -1.242   3.131   0.030  0.00  0.00    +0.030 A 
ENDBRANCH  17  18
ENDBRANCH   3  17
TORSDOF 4
