REMARK  Name = ZINCvU0000000FSq.0
REMARK                            x       y       z     vdW  Elec       q    Type
REMARK                         _______ _______ _______ _____ _____    ______ ____
ROOT
ATOM      1  C   LIG    1       -8.167   7.542  -1.282  0.00  0.00    +0.310 C 
ATOM      2  N   LIG    1       -8.951   6.825  -0.516  0.00  0.00    -0.360 NA
ENDROOT
BRANCH   1   6
ATOM      3  C   LIG    1       -4.506   5.920  -2.680  0.00  0.00    +0.100 A 
ATOM      4  C   LIG    1       -5.390   5.120  -1.965  0.00  0.00    +0.020 A 
ATOM      5  C   LIG    1       -6.577   5.643  -1.504  0.00  0.00    +0.080 A 
ATOM      6  C   LIG    1       -6.899   6.980  -1.766  0.00  0.00    -0.060 A 
ATOM      7  C   LIG    1       -6.008   7.780  -2.491  0.00  0.00    +0.070 A 
ATOM      8  C   LIG    1       -4.821   7.248  -2.943  0.00  0.00    +0.020 A 
BRANCH   3   9
ATOM      9  O   LIG    1       -3.335   5.401  -3.128  0.00  0.00    -0.290 OA
BRANCH   9  11
ATOM     10  O   LIG    1       -2.294   6.429  -1.458  0.00  0.00    -0.480 OA
ATOM     11  C   LIG    1       -2.229   5.675  -2.408  0.00  0.00    +0.510 C 
BRANCH  11  12
ATOM     12  C   LIG    1       -0.938   5.058  -2.775  0.00  0.00    -0.180 A 
ATOM     13  C   LIG    1        0.218   5.331  -2.032  0.00  0.00    +0.140 A 
ATOM     14  C   LIG    1        1.403   4.732  -2.420  0.00  0.00    -0.030 A 
ATOM     15  C   LIG    1        1.407   3.883  -3.512  0.00  0.00    +0.310 A 
ATOM     16  N   LIG    1        0.302   3.640  -4.191  0.00  0.00    -0.490 NA
ATOM     17  C   LIG    1       -0.849   4.190  -3.865  0.00  0.00    +0.330 A 
ENDBRANCH  11  12
ENDBRANCH   9  11
ENDBRANCH   3   9
ENDBRANCH   1   6
BRANCH   2  18
ATOM     18  N   LIG    1      -10.014   7.351  -0.009  0.00  0.00    -0.370 NA
ATOM     19  C   LIG    1      -10.750   6.661   0.837  0.00  0.00    +0.280 C 
BRANCH  19  20
ATOM     20  C   LIG    1      -11.992   7.247   1.384  0.00  0.00    -0.060 A 
ATOM     21  C   LIG    1      -12.868   6.459   2.133  0.00  0.00    +0.050 A 
ATOM     22  C   LIG    1      -14.023   7.013   2.644  0.00  0.00    +0.000 A 
ATOM     23  C   LIG    1      -14.319   8.344   2.408  0.00  0.00    +0.030 A 
ATOM     24  C   LIG    1      -13.457   9.129   1.663  0.00  0.00    +0.000 A 
ATOM     25  C   LIG    1      -12.296   8.589   1.149  0.00  0.00    +0.060 A 
ENDBRANCH  19  20
BRANCH  19  26
ATOM     26  C   LIG    1      -10.335   5.301   1.240  0.00  0.00    -0.100 A 
ATOM     27  C   LIG    1      -10.553   4.859   2.547  0.00  0.00    +0.040 A 
ATOM     28  C   LIG    1      -10.167   3.587   2.914  0.00  0.00    +0.000 A 
ATOM     29  C   LIG    1       -9.556   2.753   1.995  0.00  0.00    +0.020 A 
ATOM     30  C   LIG    1       -9.332   3.186   0.700  0.00  0.00    +0.000 A 
ATOM     31  C   LIG    1       -9.718   4.454   0.317  0.00  0.00    +0.070 A 
ENDBRANCH  19  26
ENDBRANCH   2  18
TORSDOF 7
