REMARK  Name = ZINCpk000004WuI3.2
REMARK                            x       y       z     vdW  Elec       q    Type
REMARK                         _______ _______ _______ _____ _____    ______ ____
ROOT
ATOM      1  C   LIG    1        0.631  -0.513   1.301  0.00  0.00    +0.230 C 
ATOM      2  C   LIG    1        0.766  -2.036   1.240  0.00  0.00    +0.020 C 
ENDROOT
BRANCH   1   3
ATOM      3  N   LIG    1       -0.221  -0.143   2.433  0.00  0.00    -0.730 N 
ATOM      4  H   LIG    1       -1.169   0.010   2.297  0.00  0.00    +0.400 HD
ATOM      5  C   LIG    1        0.312  -0.016   3.665  0.00  0.00    +0.520 C 
ATOM      6  O   LIG    1        1.498  -0.207   3.835  0.00  0.00    -0.520 OA
BRANCH   5   7
ATOM      7  C   LIG    1       -0.564   0.365   4.830  0.00  0.00    +0.170 C 
BRANCH   7   8
ATOM      8  C   LIG    1        0.270   0.440   6.083  0.00  0.00    +0.030 A 
ATOM      9  N   LIG    1        1.033  -0.497   6.569  0.00  0.00    -0.340 NA
ATOM     10  O   LIG    1        1.578  -0.142   7.588  0.00  0.00    +0.110 OA
ATOM     11  C   LIG    1        1.238   1.111   7.919  0.00  0.00    +0.000 A 
ATOM     12  C   LIG    1        0.384   1.543   6.960  0.00  0.00    -0.050 A 
BRANCH  11  13
ATOM     13  C   LIG    1        1.716   1.889   9.117  0.00  0.00    +0.050 C 
ATOM     14  C   LIG    1        2.840   1.276   9.955  0.00  0.00    +0.040 C 
ATOM     15  C   LIG    1        1.411   1.313  10.502  0.00  0.00    +0.050 C 
ENDBRANCH  11  13
ENDBRANCH   7   8
ENDBRANCH   5   7
ENDBRANCH   1   3
BRANCH   1  16
ATOM     16  C   LIG    1        0.002  -0.004   0.002  0.00  0.00    +0.040 C 
BRANCH  16  17
ATOM     17  C   LIG    1       -0.019   1.526   0.010  0.00  0.00    +0.230 C 
ATOM     18  C   LIG    1       -0.759   2.033  -1.229  0.00  0.00    +0.030 C 
BRANCH  17  20
ATOM     19  C   LIG    1        1.627   3.256   0.497  0.00  0.00    +0.520 C 
ATOM     20  N   LIG    1        1.356   2.033   0.000  0.00  0.00    -0.730 N 
ATOM     21  H   LIG    1        2.071   1.488  -0.365  0.00  0.00    +0.400 HD
ATOM     22  O   LIG    1        0.733   3.937   0.953  0.00  0.00    -0.520 OA
BRANCH  19  23
ATOM     23  C   LIG    1        3.040   3.777   0.487  0.00  0.00    +0.190 C 
BRANCH  23  24
ATOM     24  N   LIG    1        3.071   5.122   1.079  0.00  0.00    -0.520 NA
ATOM     25  C   LIG    1        2.726   5.076   2.506  0.00  0.00    +0.200 C 
BRANCH  24  27
ATOM     26  C   LIG    1        4.298   7.232   1.276  0.00  0.00    +0.030 C 
ATOM     27  C   LIG    1        4.379   5.758   0.874  0.00  0.00    +0.150 C 
ENDBRANCH  24  27
ENDBRANCH  23  24
ENDBRANCH  19  23
ENDBRANCH  17  20
ENDBRANCH  16  17
ENDBRANCH   1  16
TORSDOF 10
