REMARK  Name = ZINCvU00000009lb.0
REMARK                            x       y       z     vdW  Elec       q    Type
REMARK                         _______ _______ _______ _____ _____    ______ ____
ROOT
ATOM      1  C   LIG    1       -3.856   3.286   2.738  0.00  0.00    +0.120 C 
ATOM      2  C   LIG    1       -2.560   2.546   2.527  0.00  0.00    +0.020 A 
ATOM      3  C   LIG    1       -1.589   2.400   3.444  0.00  0.00    +0.000 A 
ATOM      4  C   LIG    1       -0.528   1.614   2.801  0.00  0.00    -0.270 A 
ATOM      5  C   LIG    1       -0.974   1.354   1.519  0.00  0.00    +0.130 A 
ATOM      6  C   LIG    1       -0.231   0.574   0.465  0.00  0.00    +0.140 C 
ATOM      7  N   LIG    1       -2.184   1.922   1.373  0.00  0.00    -0.430 N 
ENDROOT
BRANCH   4   8
ATOM      8  C   LIG    1        0.742   1.192   3.396  0.00  0.00    +0.450 C 
ATOM      9  O   LIG    1        1.531   0.541   2.743  0.00  0.00    -0.460 OA
BRANCH   8  10
ATOM     10  C   LIG    1        1.069   1.567   4.819  0.00  0.00    +0.110 C 
BRANCH  10  11
ATOM     11  S   LIG    1        2.695   0.904   5.259  0.00  0.00    +0.050 S 
BRANCH  11  12
ATOM     12  C   LIG    1        2.817   1.474   6.921  0.00  0.00    +0.140 A 
ATOM     13  N   LIG    1        1.922   2.179   7.573  0.00  0.00    -0.290 NA
ATOM     14  N   LIG    1        2.339   2.420   8.765  0.00  0.00    -0.280 NA
ATOM     15  C   LIG    1        3.515   1.888   8.943  0.00  0.00    +0.180 A 
ATOM     16  C   LIG    1        4.339   1.947  10.203  0.00  0.00    +0.200 C 
ATOM     17  N   LIG    1        3.860   1.262   7.778  0.00  0.00    -0.470 N 
ATOM     18  C   LIG    1        5.093   0.519   7.503  0.00  0.00    +0.350 C 
ENDBRANCH  11  12
ENDBRANCH  10  11
ENDBRANCH   8  10
ENDBRANCH   4   8
BRANCH   7  19
ATOM     19  C   LIG    1       -2.987   1.875   0.148  0.00  0.00    +0.320 C 
BRANCH  19  20
ATOM     20  C   LIG    1       -2.083   1.998  -1.051  0.00  0.00    -0.100 A 
ATOM     21  C   LIG    1       -1.162   3.027  -1.120  0.00  0.00    +0.020 A 
ATOM     22  C   LIG    1       -0.329   3.136  -2.217  0.00  0.00    +0.010 A 
ATOM     23  C   LIG    1       -0.424   2.223  -3.251  0.00  0.00    +0.020 A 
ATOM     24  C   LIG    1       -1.348   1.197  -3.184  0.00  0.00    +0.020 A 
ATOM     25  C   LIG    1       -2.177   1.085  -2.084  0.00  0.00    +0.030 A 
ENDBRANCH  19  20
BRANCH  19  26
ATOM     26  C   LIG    1       -3.974   3.014   0.151  0.00  0.00    -0.100 A 
ATOM     27  C   LIG    1       -3.523   4.320   0.190  0.00  0.00    +0.030 A 
ATOM     28  C   LIG    1       -4.429   5.364   0.188  0.00  0.00    +0.010 A 
ATOM     29  C   LIG    1       -5.786   5.103   0.157  0.00  0.00    +0.020 A 
ATOM     30  C   LIG    1       -6.237   3.797   0.124  0.00  0.00    +0.010 A 
ATOM     31  C   LIG    1       -5.332   2.752   0.121  0.00  0.00    +0.030 A 
ENDBRANCH  19  26
ENDBRANCH   7  19
TORSDOF 7
