REMARK  Name = ZINCpk00000FmrNZ.0
REMARK                            x       y       z     vdW  Elec       q    Type
REMARK                         _______ _______ _______ _____ _____    ______ ____
ROOT
ATOM      1  C   LIG    1        2.369   1.025  -0.015  0.00  0.00    +0.520 C 
ATOM      2  N   LIG    1        1.193   1.683  -0.000  0.00  0.00    -0.520 N 
ATOM      3  H   LIG    1        1.179   2.653   0.005  0.00  0.00    +0.440 HD
ATOM      4  O   LIG    1        2.385  -0.188  -0.022  0.00  0.00    -0.510 OA
ENDROOT
BRANCH   2   5
ATOM      5  N   LIG    1       -0.011   0.966   0.007  0.00  0.00    -0.510 N 
ATOM      6  H   LIG    1        0.002  -0.004   0.002  0.00  0.00    +0.430 HD
ATOM      7  C   LIG    1       -1.187   1.624   0.017  0.00  0.00    +0.560 C 
ATOM      8  O   LIG    1       -1.204   2.839   0.023  0.00  0.00    -0.520 OA
BRANCH   7   9
ATOM      9  C   LIG    1       -2.458   0.867   0.018  0.00  0.00    -0.080 A 
ATOM     10  C   LIG    1       -2.442  -0.528   0.005  0.00  0.00    +0.070 A 
ATOM     11  C   LIG    1       -3.631  -1.228   0.011  0.00  0.00    +0.110 A 
ATOM     12  C   LIG    1       -4.837  -0.550   0.021  0.00  0.00    -0.020 A 
ATOM     13  C   LIG    1       -4.859   0.834   0.029  0.00  0.00    +0.110 A 
ATOM     14  C   LIG    1       -3.677   1.546   0.028  0.00  0.00    +0.120 A 
BRANCH  12  15
ATOM     15  N   LIG    1       -6.108  -1.307   0.022  0.00  0.00    +0.020 N 
ATOM     16  O   LIG    1       -6.092  -2.525   0.015  0.00  0.00    -0.150 OA
ATOM     17  O   LIG    1       -7.171  -0.713   0.031  0.00  0.00    -0.150 OA
ENDBRANCH  12  15
ENDBRANCH   7   9
ENDBRANCH   2   5
BRANCH   1  18
ATOM     18  C   LIG    1        3.663   1.796  -0.023  0.00  0.00    +0.280 C 
BRANCH  18  19
ATOM     19  O   LIG    1        4.780   0.868  -0.039  0.00  0.00    -0.320 OA
BRANCH  19  20
ATOM     20  C   LIG    1        6.013   1.397  -0.048  0.00  0.00    +0.500 C 
ATOM     21  O   LIG    1        6.155   2.597  -0.043  0.00  0.00    -0.470 OA
BRANCH  20  23
ATOM     22  C   LIG    1        7.075  -0.816   0.710  0.00  0.00    +0.130 C 
ATOM     23  C   LIG    1        7.220   0.496  -0.064  0.00  0.00    -0.110 C 
ATOM     24  C   LIG    1        8.069   0.474  -1.337  0.00  0.00    +0.160 C 
ATOM     25  C   LIG    1        8.598   1.161  -0.076  0.00  0.00    +0.020 C 
ATOM     26 CL   LIG    1        9.927   0.339   0.824  0.00  0.00    -0.070 Cl
ATOM     27 CL   LIG    1        8.653   2.963  -0.069  0.00  0.00    -0.050 Cl
ENDBRANCH  20  23
ENDBRANCH  19  20
ENDBRANCH  18  19
ENDBRANCH   1  18
TORSDOF 7
