REMARK  Name = ZINCpe000000XH7X.0
REMARK                            x       y       z     vdW  Elec       q    Type
REMARK                         _______ _______ _______ _____ _____    ______ ____
ROOT
ATOM      1  N   LIG    1       -3.532  -2.107   0.970  0.00  0.00    -0.480 N 
ATOM      2  C   LIG    1       -2.858  -2.437  -0.294  0.00  0.00    +0.220 C 
ATOM      3  C   LIG    1       -1.405  -1.961  -0.233  0.00  0.00    +0.190 C 
ATOM      4  N   LIG    1       -1.376  -0.512   0.012  0.00  0.00    -0.520 NA
ATOM      5  C   LIG    1       -2.050  -0.182   1.276  0.00  0.00    +0.200 C 
ATOM      6  C   LIG    1       -3.503  -0.658   1.216  0.00  0.00    +0.220 C 
ENDROOT
BRANCH   1  10
ATOM      7  C   LIG    1       -7.870  -2.687   3.223  0.00  0.00    +0.140 C 
ATOM      8  C   LIG    1       -6.942  -2.880   2.051  0.00  0.00    +0.190 A 
ATOM      9  C   LIG    1       -5.653  -2.387   2.092  0.00  0.00    -0.110 A 
ATOM     10  C   LIG    1       -4.832  -2.586   0.980  0.00  0.00    +0.360 A 
ATOM     11  N   LIG    1       -5.316  -3.248  -0.067  0.00  0.00    -0.560 NA
ATOM     12  C   LIG    1       -6.551  -3.706  -0.061  0.00  0.00    +0.360 A 
ATOM     13  N   LIG    1       -7.352  -3.530   0.971  0.00  0.00    -0.530 NA
BRANCH  12  14
ATOM     14  C   LIG    1       -7.062  -4.451  -1.267  0.00  0.00    +0.060 C 
ATOM     15  C   LIG    1       -8.274  -3.717  -1.845  0.00  0.00    +0.050 C 
ATOM     16  C   LIG    1       -7.472  -5.867  -0.855  0.00  0.00    +0.050 C 
ENDBRANCH  12  14
ENDBRANCH   1  10
BRANCH   4  17
ATOM     17  C   LIG    1        0.002  -0.004   0.002  0.00  0.00    +0.220 C 
BRANCH  17  18
ATOM     18  C   LIG    1       -0.018   1.503   0.010  0.00  0.00    +0.520 C 
ATOM     19  N   LIG    1        1.139   2.192   0.003  0.00  0.00    -0.620 N 
ATOM     20  C   LIG    1        2.436   1.496  -0.007  0.00  0.00    +0.240 C 
ATOM     21  C   LIG    1        3.289   2.088  -1.140  0.00  0.00    +0.220 C 
ATOM     22  O   LIG    1        3.334   3.510  -1.000  0.00  0.00    -0.380 OA
ATOM     23  C   LIG    1        2.061   4.150  -1.118  0.00  0.00    +0.220 C 
ATOM     24  C   LIG    1        1.145   3.664   0.011  0.00  0.00    +0.260 C 
ATOM     25  O   LIG    1       -1.077   2.095   0.018  0.00  0.00    -0.520 OA
ENDBRANCH  17  18
ENDBRANCH   4  17
TORSDOF 4
