REMARK  Name = ZINCvU0000000G7T.0
REMARK                            x       y       z     vdW  Elec       q    Type
REMARK                         _______ _______ _______ _____ _____    ______ ____
ROOT
ATOM      1  N   LIG    1        0.625   3.252  -0.208  0.00  0.00    -0.410 N 
ATOM      2  C   LIG    1       -0.248   2.200  -0.220  0.00  0.00    +0.150 A 
ATOM      3  N   LIG    1       -1.462   2.701  -0.184  0.00  0.00    -0.290 NA
ATOM      4  N   LIG    1       -1.410   3.984  -0.141  0.00  0.00    -0.260 NA
ATOM      5  C   LIG    1       -0.159   4.383  -0.157  0.00  0.00    +0.240 A 
ENDROOT
BRANCH   1   9
ATOM      6  C   LIG    1        4.793   3.074  -0.306  0.00  0.00    +0.160 A 
ATOM      7  C   LIG    1        4.056   2.692  -1.417  0.00  0.00    -0.030 A 
ATOM      8  C   LIG    1        2.676   2.750  -1.385  0.00  0.00    +0.090 A 
ATOM      9  C   LIG    1        2.027   3.193  -0.240  0.00  0.00    +0.070 A 
ATOM     10  C   LIG    1        2.764   3.581   0.870  0.00  0.00    +0.100 A 
ATOM     11  C   LIG    1        4.144   3.518   0.839  0.00  0.00    -0.060 A 
ATOM     12 CL   LIG    1        5.067   3.997   2.229  0.00  0.00    -0.030 Cl
BRANCH   6  14
ATOM     13  C   LIG    1        6.752   2.550  -1.548  0.00  0.00    +0.250 C 
ATOM     14  O   LIG    1        6.151   3.016  -0.338  0.00  0.00    -0.300 OA
ENDBRANCH   6  14
ENDBRANCH   1   9
BRANCH   5  15
ATOM     15  C   LIG    1        0.317   5.782  -0.126  0.00  0.00    -0.030 A 
ATOM     16  C   LIG    1       -0.544   6.808   0.269  0.00  0.00    +0.070 A 
ATOM     17  C   LIG    1       -0.091   8.110   0.301  0.00  0.00    +0.010 A 
ATOM     18  C   LIG    1        1.210   8.403  -0.067  0.00  0.00    +0.030 A 
ATOM     19  C   LIG    1        2.067   7.393  -0.465  0.00  0.00    +0.010 A 
ATOM     20  C   LIG    1        1.629   6.085  -0.496  0.00  0.00    +0.020 A 
ENDBRANCH   5  15
BRANCH   2  21
ATOM     21  S   LIG    1        0.176   0.490  -0.281  0.00  0.00    +0.090 S 
BRANCH  21  22
ATOM     22  C   LIG    1       -1.478  -0.244  -0.267  0.00  0.00    +0.110 C 
BRANCH  22  23
ATOM     23  C   LIG    1       -1.361  -1.746  -0.314  0.00  0.00    +0.540 C 
ATOM     24  N   LIG    1       -2.465  -2.512  -0.209  0.00  0.00    -0.600 N 
ATOM     25  O   LIG    1       -0.273  -2.266  -0.446  0.00  0.00    -0.520 OA
BRANCH  24  26
ATOM     26  C   LIG    1       -2.341  -3.970  -0.143  0.00  0.00    +0.240 C 
ATOM     27  C   LIG    1       -1.488  -4.355   1.067  0.00  0.00    +0.030 C 
ATOM     28  C   LIG    1       -1.675  -4.484  -1.421  0.00  0.00    +0.020 C 
ENDBRANCH  24  26
BRANCH  24  29
ATOM     29  C   LIG    1       -3.788  -1.886  -0.163  0.00  0.00    +0.220 C 
ATOM     30  C   LIG    1       -4.481  -2.256   1.150  0.00  0.00    +0.030 C 
ATOM     31  C   LIG    1       -4.629  -2.382  -1.341  0.00  0.00    +0.030 C 
ENDBRANCH  24  29
ENDBRANCH  22  23
ENDBRANCH  21  22
ENDBRANCH   2  21
TORSDOF 8
