REMARK  Name = ZINCpe000000XBMD.0
REMARK                            x       y       z     vdW  Elec       q    Type
REMARK                         _______ _______ _______ _____ _____    ______ ____
ROOT
ATOM      1  C   LIG    1       -5.335   0.340   1.360  0.00  0.00    +0.530 C 
ATOM      2  N   LIG    1       -4.836   0.217   0.114  0.00  0.00    -0.560 N 
ATOM      3  C   LIG    1       -5.533   0.831  -1.018  0.00  0.00    +0.320 C 
ATOM      4  O   LIG    1       -4.708  -0.085   2.309  0.00  0.00    -0.510 OA
ENDROOT
BRANCH   1   7
ATOM      5  N   LIG    1       -7.102   1.231   2.824  0.00  0.00    -0.600 N 
ATOM      6  H   LIG    1       -6.562   0.970   3.586  0.00  0.00    +0.430 HD
ATOM      7  C   LIG    1       -6.658   0.999   1.573  0.00  0.00    +0.530 C 
ATOM      8  O   LIG    1       -7.333   1.326   0.619  0.00  0.00    -0.480 OA
BRANCH   5  12
ATOM      9  C   LIG    1      -11.527   3.423   2.151  0.00  0.00    +0.190 C 
ATOM     10  C   LIG    1      -10.275   2.806   2.719  0.00  0.00    -0.020 A 
ATOM     11  C   LIG    1       -9.241   2.286   2.020  0.00  0.00    -0.040 A 
ATOM     12  C   LIG    1       -8.336   1.846   3.023  0.00  0.00    +0.240 A 
ATOM     13  N   LIG    1       -8.897   2.128   4.170  0.00  0.00    -0.380 NA
ATOM     14  O   LIG    1       -9.970   2.665   4.017  0.00  0.00    +0.100 OA
ENDBRANCH   5  12
ENDBRANCH   1   7
BRANCH   2  15
ATOM     15  C   LIG    1       -3.596  -0.532  -0.108  0.00  0.00    +0.420 C 
BRANCH  15  16
ATOM     16  C   LIG    1       -2.419   0.402  -0.001  0.00  0.00    +0.430 A 
ATOM     17  N   LIG    1       -2.650   1.660   0.257  0.00  0.00    -0.580 NA
ATOM     18  C   LIG    1       -1.650   2.554   0.372  0.00  0.00    +0.530 A 
ATOM     19  C   LIG    1       -0.267   2.077   0.188  0.00  0.00    -0.210 A 
ATOM     20  C   LIG    1        0.829   2.931   0.285  0.00  0.00    +0.110 A 
ATOM     21  C   LIG    1        2.099   2.425   0.108  0.00  0.00    -0.010 A 
ATOM     22  C   LIG    1        2.288   1.078  -0.164  0.00  0.00    +0.080 A 
ATOM     23  C   LIG    1        1.212   0.221  -0.263  0.00  0.00    -0.020 A 
ATOM     24  C   LIG    1       -0.075   0.711  -0.088  0.00  0.00    +0.180 A 
ATOM     25  O   LIG    1       -1.882   3.727   0.614  0.00  0.00    -0.480 OA
ATOM     26  N   LIG    1       -1.186  -0.104  -0.176  0.00  0.00    -0.620 N 
ATOM     27  H   LIG    1       -1.076  -1.049  -0.366  0.00  0.00    +0.420 HD
ENDBRANCH  15  16
ENDBRANCH   2  15
TORSDOF 4
