REMARK  Name = ZINCrH000004kVt8.0
REMARK                            x       y       z     vdW  Elec       q    Type
REMARK                         _______ _______ _______ _____ _____    ______ ____
ROOT
ATOM      1  N   LIG    1       -0.083   5.252   0.031  0.00  0.00    -0.670 N 
ATOM      2  H   LIG    1       -0.931   5.719  -0.025  0.00  0.00    +0.420 HD
ATOM      3  C   LIG    1        1.066   5.950   0.125  0.00  0.00    +0.510 C 
ATOM      4  O   LIG    1        2.131   5.370   0.112  0.00  0.00    -0.510 OA
ENDROOT
BRANCH   1   9
ATOM      5  C   LIG    1        1.023   1.795  -0.621  0.00  0.00    -0.120 A 
ATOM      6  C   LIG    1       -0.008   1.076  -0.013  0.00  0.00    +0.070 A 
ATOM      7  C   LIG    1       -1.050   1.745   0.596  0.00  0.00    +0.020 A 
ATOM      8  C   LIG    1       -1.073   3.127   0.616  0.00  0.00    -0.070 A 
ATOM      9  C   LIG    1       -0.052   3.853   0.013  0.00  0.00    +0.130 A 
ATOM     10  C   LIG    1       -2.212   3.850   1.287  0.00  0.00    +0.110 C 
ATOM     11  C   LIG    1        0.997   3.191  -0.606  0.00  0.00    +0.110 A 
BRANCH   5  12
ATOM     12  C   LIG    1        2.137   1.082  -1.278  0.00  0.00    +0.510 C 
ATOM     13  O   LIG    1        3.033   1.710  -1.806  0.00  0.00    -0.500 OA
BRANCH  12  15
ATOM     14  C   LIG    1        3.286  -0.899  -1.954  0.00  0.00    +0.280 C 
ATOM     15  O   LIG    1        2.160  -0.265  -1.291  0.00  0.00    -0.360 OA
ENDBRANCH  12  15
ENDBRANCH   5  12
ENDBRANCH   1   9
BRANCH   3  16
ATOM     16  C   LIG    1        1.027   7.452   0.246  0.00  0.00    +0.310 C 
BRANCH  16  17
ATOM     17  N   LIG    1        2.395   7.970   0.333  0.00  0.00    -0.740 N 
ATOM     18  H   LIG    1        3.148   7.359   0.307  0.00  0.00    +0.410 HD
BRANCH  17  19
ATOM     19  C   LIG    1        2.615   9.347   0.452  0.00  0.00    +0.200 A 
ATOM     20  C   LIG    1        1.538  10.222   0.483  0.00  0.00    -0.030 A 
ATOM     21  C   LIG    1        1.756  11.581   0.607  0.00  0.00    -0.010 A 
ATOM     22  C   LIG    1        3.050  12.071   0.689  0.00  0.00    +0.040 A 
ATOM     23  C   LIG    1        4.127  11.197   0.652  0.00  0.00    +0.070 A 
ATOM     24  C   LIG    1        3.911   9.839   0.534  0.00  0.00    -0.010 A 
BRANCH  22  25
ATOM     25  O   LIG    1        3.264  13.409   0.804  0.00  0.00    -0.310 OA
BRANCH  25  26
ATOM     26  C   LIG    1        2.110  14.250   0.835  0.00  0.00    +0.600 C 
ATOM     27  F   LIG    1        1.381  14.087  -0.348  0.00  0.00    -0.170 F 
ATOM     28  F   LIG    1        2.509  15.586   0.957  0.00  0.00    -0.130 F 
ATOM     29  F   LIG    1        1.308  13.902   1.928  0.00  0.00    -0.170 F 
ENDBRANCH  25  26
ENDBRANCH  22  25
ENDBRANCH  17  19
ENDBRANCH  16  17
ENDBRANCH   3  16
TORSDOF 8
