REMARK  Name = ZINCvU00000008Xd.0
REMARK                            x       y       z     vdW  Elec       q    Type
REMARK                         _______ _______ _______ _____ _____    ______ ____
ROOT
ATOM      1  C   LIG    1        1.181   1.668  -0.041  0.00  0.00    +0.170 A 
ATOM      2  C   LIG    1        1.293   2.851  -0.760  0.00  0.00    +0.060 A 
ATOM      3  C   LIG    1        2.483   3.553  -0.756  0.00  0.00    -0.020 A 
ATOM      4  C   LIG    1        3.572   3.069  -0.041  0.00  0.00    +0.140 A 
ATOM      5  C   LIG    1        3.462   1.882   0.674  0.00  0.00    +0.000 A 
ATOM      6 CL   LIG    1        4.822   1.277   1.567  0.00  0.00    -0.020 Cl
ATOM      7 CL   LIG    1        2.620   5.035  -1.649  0.00  0.00    -0.040 Cl
ATOM      8  C   LIG    1        2.269   1.185   0.674  0.00  0.00    +0.030 A 
ENDROOT
BRANCH   1  10
ATOM      9  C   LIG    1       -1.198   1.627  -0.057  0.00  0.00    +0.560 C 
ATOM     10  N   LIG    1       -0.026   0.961  -0.041  0.00  0.00    -0.670 N 
ATOM     11  H   LIG    1       -0.020  -0.009  -0.034  0.00  0.00    +0.420 HD
ATOM     12  O   LIG    1       -1.207   2.839  -0.153  0.00  0.00    -0.510 OA
BRANCH   9  17
ATOM     13  C   LIG    1       -6.158  -1.265   0.331  0.00  0.00    +0.100 C 
ATOM     14  C   LIG    1       -4.859  -0.508   0.230  0.00  0.00    -0.050 A 
ATOM     15  C   LIG    1       -4.872   0.872   0.121  0.00  0.00    +0.000 A 
ATOM     16  C   LIG    1       -3.687   1.571   0.028  0.00  0.00    +0.090 A 
ATOM     17  C   LIG    1       -2.472   0.884   0.043  0.00  0.00    -0.150 A 
ATOM     18  C   LIG    1       -2.466  -0.508   0.148  0.00  0.00    +0.050 A 
ATOM     19  C   LIG    1       -3.658  -1.195   0.246  0.00  0.00    +0.000 A 
ENDBRANCH   9  17
ENDBRANCH   1  10
BRANCH   4  20
ATOM     20  N   LIG    1        4.781   3.777  -0.042  0.00  0.00    -0.670 N 
ATOM     21  H   LIG    1        4.791   4.720   0.185  0.00  0.00    +0.410 HD
ATOM     22  C   LIG    1        5.931   3.147  -0.357  0.00  0.00    +0.550 C 
ATOM     23  O   LIG    1        5.934   1.946  -0.542  0.00  0.00    -0.490 OA
BRANCH  22  24
ATOM     24  C   LIG    1        7.186   3.918  -0.478  0.00  0.00    -0.080 A 
ATOM     25  C   LIG    1        7.184   5.298  -0.272  0.00  0.00    +0.030 A 
ATOM     26  C   LIG    1        8.360   6.011  -0.381  0.00  0.00    +0.120 A 
ATOM     27  C   LIG    1        9.538   5.362  -0.705  0.00  0.00    -0.640 A 
ATOM     28  C   LIG    1        9.546   3.994  -0.916  0.00  0.00    +0.120 A 
ATOM     29  C   LIG    1        8.378   3.269  -0.804  0.00  0.00    +0.070 A 
BRANCH  27  30
ATOM     30  S   LIG    1       11.035   6.280  -0.850  0.00  0.00    +2.500 S 
ATOM     31  O   LIG    1       12.056   5.333  -0.566  0.00  0.00    -0.930 OA
ATOM     32  O   LIG    1       10.833   7.412  -0.014  0.00  0.00    -0.930 OA
ATOM     33  C   LIG    1       11.094   6.778  -2.593  0.00  0.00    -0.250 C 
ENDBRANCH  27  30
ENDBRANCH  22  24
ENDBRANCH   4  20
TORSDOF 5
