REMARK  Name = ZINCvU0000000Iba.0
REMARK                            x       y       z     vdW  Elec       q    Type
REMARK                         _______ _______ _______ _____ _____    ______ ____
ROOT
ATOM      1  C   LIG    1        0.604   3.326   1.047  0.00  0.00    +0.230 A 
ATOM      2  N   LIG    1        0.221   4.566   0.849  0.00  0.00    -0.270 NA
ATOM      3  N   LIG    1       -0.058   4.746  -0.393  0.00  0.00    -0.290 NA
ATOM      4  C   LIG    1        0.135   3.634  -1.064  0.00  0.00    +0.140 A 
ATOM      5  N   LIG    1        0.565   2.692  -0.173  0.00  0.00    -0.450 N 
ENDROOT
BRANCH   1   9
ATOM      6  C   LIG    1        1.753   1.601   4.756  0.00  0.00    +0.150 A 
ATOM      7  C   LIG    1        1.198   0.804   3.764  0.00  0.00    -0.010 A 
ATOM      8  C   LIG    1        0.823   1.360   2.559  0.00  0.00    +0.060 A 
ATOM      9  C   LIG    1        1.003   2.726   2.337  0.00  0.00    -0.060 A 
ATOM     10  C   LIG    1        1.567   3.523   3.335  0.00  0.00    +0.110 A 
ATOM     11  C   LIG    1        1.934   2.961   4.539  0.00  0.00    -0.070 A 
BRANCH   6  13
ATOM     12  C   LIG    1        2.685   1.926   6.918  0.00  0.00    +0.240 C 
ATOM     13  O   LIG    1        2.121   1.049   5.942  0.00  0.00    -0.310 OA
ENDBRANCH   6  13
ENDBRANCH   1   9
BRANCH   5  14
ATOM     14  C   LIG    1        0.909   1.296  -0.456  0.00  0.00    +0.240 C 
ATOM     15  C   LIG    1       -0.338   0.553  -0.942  0.00  0.00    +0.010 C 
ATOM     16  C   LIG    1        0.021  -0.905  -1.238  0.00  0.00    +0.040 C 
ATOM     17  C   LIG    1        1.099  -0.955  -2.322  0.00  0.00    +0.010 C 
ATOM     18  C   LIG    1        2.346  -0.211  -1.836  0.00  0.00    +0.040 C 
ATOM     19  C   LIG    1        1.987   1.246  -1.540  0.00  0.00    +0.020 C 
ENDBRANCH   5  14
BRANCH   4  20
ATOM     20  S   LIG    1       -0.115   3.400  -2.793  0.00  0.00    +0.090 S 
BRANCH  20  21
ATOM     21  C   LIG    1       -0.671   5.058  -3.258  0.00  0.00    +0.080 C 
BRANCH  21  22
ATOM     22  C   LIG    1       -0.953   5.097  -4.737  0.00  0.00    +0.540 C 
ATOM     23  N   LIG    1       -1.279   6.263  -5.331  0.00  0.00    -0.600 N 
ATOM     24  C   LIG    1       -1.450   6.338  -6.788  0.00  0.00    +0.210 C 
ATOM     25  C   LIG    1       -2.829   6.948  -7.087  0.00  0.00    +0.020 C 
ATOM     26  C   LIG    1       -2.952   8.294  -6.369  0.00  0.00    +0.020 C 
ATOM     27  C   LIG    1       -2.837   8.080  -4.858  0.00  0.00    +0.020 C 
ATOM     28  C   LIG    1       -1.367   4.933  -7.388  0.00  0.00    +0.050 C 
ATOM     29  C   LIG    1       -1.465   7.482  -4.533  0.00  0.00    +0.230 C 
ATOM     30  C   LIG    1       -0.368   8.492  -4.878  0.00  0.00    +0.020 C 
ATOM     31  O   LIG    1       -0.886   4.080  -5.395  0.00  0.00    -0.520 OA
ENDBRANCH  21  22
ENDBRANCH  20  21
ENDBRANCH   4  20
TORSDOF 6
