REMARK  Name = ZINCtV00000L6kuP.0
REMARK                            x       y       z     vdW  Elec       q    Type
REMARK                         _______ _______ _______ _____ _____    ______ ____
ROOT
ATOM      1  N   LIG    1        2.501  -0.270  -0.021  0.00  0.00    -0.660 N 
ATOM      2  H   LIG    1        1.673  -0.770   0.052  0.00  0.00    +0.420 HD
ATOM      3  C   LIG    1        2.477   1.078  -0.008  0.00  0.00    +0.560 C 
ATOM      4  O   LIG    1        3.520   1.704  -0.018  0.00  0.00    -0.490 OA
ENDROOT
BRANCH   1   7
ATOM      5  C   LIG    1        6.072  -1.099   0.322  0.00  0.00    +0.130 A 
ATOM      6  C   LIG    1        4.866  -0.426   0.441  0.00  0.00    +0.000 A 
ATOM      7  C   LIG    1        3.721  -0.948  -0.141  0.00  0.00    +0.160 A 
ATOM      8  C   LIG    1        3.784  -2.150  -0.841  0.00  0.00    +0.080 A 
ATOM      9  C   LIG    1        4.993  -2.817  -0.963  0.00  0.00    +0.010 A 
ATOM     10  C   LIG    1        6.133  -2.294  -0.381  0.00  0.00    -0.050 A 
ATOM     11 CL   LIG    1        7.645  -3.135  -0.530  0.00  0.00    -0.050 Cl
BRANCH   5  13
ATOM     12  C   LIG    1        7.059   0.647   1.600  0.00  0.00    +0.240 C 
ATOM     13  O   LIG    1        7.195  -0.587   0.892  0.00  0.00    -0.300 OA
ENDBRANCH   5  13
BRANCH   8  14
ATOM     14  O   LIG    1        2.661  -2.668  -1.409  0.00  0.00    -0.310 OA
ATOM     15  C   LIG    1        2.800  -3.904  -2.112  0.00  0.00    +0.250 C 
ENDBRANCH   8  14
ENDBRANCH   1   7
BRANCH   3  16
ATOM     16  C   LIG    1        1.188   1.792   0.019  0.00  0.00    -0.130 A 
ATOM     17  C   LIG    1       -0.012   1.077   0.030  0.00  0.00    +0.070 A 
ATOM     18  C   LIG    1       -1.213   1.750   0.051  0.00  0.00    -0.010 A 
ATOM     19  C   LIG    1       -1.240   3.136   0.070  0.00  0.00    +0.070 A 
ATOM     20  C   LIG    1       -0.064   3.858   0.059  0.00  0.00    -0.020 A 
ATOM     21  C   LIG    1        1.159   3.196   0.034  0.00  0.00    -0.040 A 
BRANCH  21  22
ATOM     22  S   LIG    1        2.663   4.114   0.020  0.00  0.00    +0.020 S 
BRANCH  22  23
ATOM     23  C   LIG    1        2.090   5.835   0.046  0.00  0.00    +0.080 C 
BRANCH  23  24
ATOM     24  C   LIG    1        3.280   6.761   0.037  0.00  0.00    -0.110 A 
ATOM     25  C   LIG    1        3.807   7.197  -1.163  0.00  0.00    +0.060 A 
ATOM     26  C   LIG    1        4.899   8.046  -1.171  0.00  0.00    +0.000 A 
ATOM     27  C   LIG    1        5.464   8.458   0.021  0.00  0.00    +0.060 A 
ATOM     28  C   LIG    1        4.938   8.023   1.223  0.00  0.00    -0.010 A 
ATOM     29  C   LIG    1        3.841   7.178   1.233  0.00  0.00    +0.110 A 
ATOM     30  F   LIG    1        3.323   6.757   2.407  0.00  0.00    -0.130 F 
ENDBRANCH  23  24
ENDBRANCH  22  23
ENDBRANCH  21  22
ENDBRANCH   3  16
TORSDOF 7
