REMARK  Name = ZINCpe00000bMAvx.0
REMARK                            x       y       z     vdW  Elec       q    Type
REMARK                         _______ _______ _______ _____ _____    ______ ____
ROOT
ATOM      1  C   LIG    1       -2.213   1.584  -1.190  0.00  0.00    +0.560 C 
ATOM      2  N   LIG    1       -3.005   1.866  -2.243  0.00  0.00    -0.650 N 
ATOM      3  C   LIG    1       -2.815   2.414  -3.594  0.00  0.00    +0.310 C 
ATOM      4  C   LIG    1       -4.065   1.630  -4.027  0.00  0.00    +0.170 C 
ATOM      5  F   LIG    1       -3.809   0.317  -4.437  0.00  0.00    -0.160 F 
ATOM      6  C   LIG    1       -4.441   1.765  -2.545  0.00  0.00    +0.320 C 
ATOM      7  O   LIG    1       -2.677   1.040  -0.210  0.00  0.00    -0.510 OA
ENDROOT
BRANCH   4   8
ATOM      8  C   LIG    1       -4.973   2.381  -4.966  0.00  0.00    -0.040 A 
ATOM      9  C   LIG    1       -4.933   2.362  -6.319  0.00  0.00    +0.210 A 
ATOM     10  N   LIG    1       -5.935   3.183  -6.737  0.00  0.00    -0.220 N 
ATOM     11  N   LIG    1       -6.526   3.655  -5.695  0.00  0.00    -0.050 NA
ATOM     12  N   LIG    1       -5.981   3.192  -4.626  0.00  0.00    -0.230 NA
BRANCH  10  13
ATOM     13  C   LIG    1       -6.266   3.466  -8.071  0.00  0.00    +0.280 A 
ATOM     14  N   LIG    1       -5.665   2.985  -9.133  0.00  0.00    -0.280 NA
ATOM     15  N   LIG    1       -6.296   3.510 -10.268  0.00  0.00    -0.350 N 
ATOM     16  C   LIG    1       -7.293   4.320  -9.855  0.00  0.00    +0.270 A 
ATOM     17  C   LIG    1       -5.936   3.229 -11.661  0.00  0.00    +0.380 C 
ATOM     18  C   LIG    1       -7.302   4.309  -8.503  0.00  0.00    -0.070 A 
ENDBRANCH  10  13
ENDBRANCH   4   8
BRANCH   1  20
ATOM     19  C   LIG    1        0.056   0.893  -0.466  0.00  0.00    +0.060 C 
ATOM     20  C   LIG    1       -0.750   1.946  -1.229  0.00  0.00    -0.010 C 
BRANCH  20  21
ATOM     21  C   LIG    1       -0.546   3.315  -0.579  0.00  0.00    +0.170 C 
ATOM     22  C   LIG    1        0.931   3.745  -0.717  0.00  0.00    +0.020 C 
ATOM     23  C   LIG    1        1.210   4.413   0.657  0.00  0.00    +0.010 C 
ATOM     24  C   LIG    1        0.328   3.545   1.590  0.00  0.00    +0.200 C 
ATOM     25  O   LIG    1       -0.845   3.238   0.820  0.00  0.00    -0.360 OA
ENDBRANCH  20  21
ENDBRANCH   1  20
TORSDOF 4
