REMARK  Name = ZINCkj00000GeSEe.0
REMARK                            x       y       z     vdW  Elec       q    Type
REMARK                         _______ _______ _______ _____ _____    ______ ____
ROOT
ATOM      1  N   LIG    1        1.722  -3.111  -1.871  0.00  0.00    -0.620 N 
ATOM      2  C   LIG    1        2.355  -1.959  -1.571  0.00  0.00    +0.720 C 
ATOM      3  N   LIG    1        3.125  -1.353  -2.497  0.00  0.00    -0.630 N 
ATOM      4  C   LIG    1        3.352  -1.832  -3.872  0.00  0.00    +0.260 C 
ATOM      5  C   LIG    1        4.707  -1.209  -4.290  0.00  0.00    +0.060 C 
ATOM      6  C   LIG    1        4.629   0.187  -3.617  0.00  0.00    +0.020 C 
ATOM      7  C   LIG    1        3.878  -0.105  -2.301  0.00  0.00    +0.230 C 
ATOM      8  O   LIG    1        2.233  -1.468  -0.466  0.00  0.00    -0.580 OA
ENDROOT
BRANCH   1  10
ATOM      9  C   LIG    1        2.869  -4.636  -3.400  0.00  0.00    +0.030 C 
ATOM     10  C   LIG    1        1.736  -3.619  -3.245  0.00  0.00    +0.250 C 
ENDBRANCH   1  10
BRANCH   1  11
ATOM     11  C   LIG    1        1.018  -3.854  -0.822  0.00  0.00    +0.300 C 
ATOM     12  C   LIG    1       -0.461  -3.462  -0.825  0.00  0.00    +0.020 C 
ENDBRANCH   1  11
BRANCH   7  13
ATOM     13  C   LIG    1        2.913   1.040  -1.987  0.00  0.00    +0.260 C 
BRANCH  13  14
ATOM     14  N   LIG    1        3.675   2.280  -1.785  0.00  0.00    -0.380 N 
ATOM     15  C   LIG    1        4.510   2.159  -0.571  0.00  0.00    +0.260 C 
ATOM     16  C   LIG    1        4.492   3.572   0.063  0.00  0.00    +0.080 C 
ATOM     17  C   LIG    1        3.036   4.024  -0.220  0.00  0.00    +0.090 C 
ATOM     18  C   LIG    1        2.743   3.408  -1.604  0.00  0.00    +0.180 C 
ATOM     19  H   LIG    1        4.264   2.452  -2.587  0.00  0.00    +0.420 HD
BRANCH  18  20
ATOM     20  C   LIG    1        1.299   2.903  -1.653  0.00  0.00    +0.210 C 
BRANCH  20  21
ATOM     21  O   LIG    1        1.058   2.039  -0.541  0.00  0.00    -0.560 OA
ATOM     22  H   LIG    1        0.160   1.681  -0.508  0.00  0.00    +0.400 HD
ENDBRANCH  20  21
ENDBRANCH  18  20
ENDBRANCH  13  14
ENDBRANCH   7  13
TORSDOF 6
