REMARK  Name = ZINCkj00000GeSEe.1
REMARK                            x       y       z     vdW  Elec       q    Type
REMARK                         _______ _______ _______ _____ _____    ______ ____
ROOT
ATOM      1  N   LIG    1       -5.064  -1.356   1.119  0.00  0.00    -0.620 N 
ATOM      2  C   LIG    1       -4.542  -0.128   0.926  0.00  0.00    +0.730 C 
ATOM      3  N   LIG    1       -5.055   0.932   1.581  0.00  0.00    -0.630 N 
ATOM      4  C   LIG    1       -6.158   0.887   2.559  0.00  0.00    +0.260 C 
ATOM      5  C   LIG    1       -6.766   2.311   2.537  0.00  0.00    +0.060 C 
ATOM      6  C   LIG    1       -5.499   3.188   2.357  0.00  0.00    +0.040 C 
ATOM      7  C   LIG    1       -4.609   2.325   1.438  0.00  0.00    +0.230 C 
ATOM      8  O   LIG    1       -3.609   0.023   0.162  0.00  0.00    -0.590 OA
ENDROOT
BRANCH   1  10
ATOM      9  C   LIG    1       -3.421  -3.162   0.965  0.00  0.00    +0.020 C 
ATOM     10  C   LIG    1       -4.615  -2.480   0.294  0.00  0.00    +0.290 C 
ENDBRANCH   1  10
BRANCH   1  11
ATOM     11  C   LIG    1       -6.079  -1.567   2.155  0.00  0.00    +0.260 C 
ATOM     12  C   LIG    1       -7.472  -1.473   1.529  0.00  0.00    +0.030 C 
ENDBRANCH   1  11
BRANCH   7  13
ATOM     13  C   LIG    1       -3.145   2.449   1.867  0.00  0.00    +0.250 C 
BRANCH  13  14
ATOM     14  N   LIG    1       -2.650   3.792   1.536  0.00  0.00    -0.390 N 
ATOM     15  C   LIG    1       -3.334   4.807   2.367  0.00  0.00    +0.240 C 
ATOM     16  C   LIG    1       -2.300   5.903   2.683  0.00  0.00    +0.070 C 
ATOM     17  C   LIG    1       -0.991   5.430   2.010  0.00  0.00    +0.080 C 
ATOM     18  C   LIG    1       -1.202   3.902   1.869  0.00  0.00    +0.190 C 
ATOM     19  H   LIG    1       -2.798   3.987   0.557  0.00  0.00    +0.430 HD
BRANCH  18  20
ATOM     20  C   LIG    1       -0.339   3.340   0.737  0.00  0.00    +0.220 C 
BRANCH  20  21
ATOM     21  O   LIG    1       -0.589   4.074  -0.463  0.00  0.00    -0.580 OA
ATOM     22  H   LIG    1       -0.075   3.771  -1.224  0.00  0.00    +0.410 HD
ENDBRANCH  20  21
ENDBRANCH  18  20
ENDBRANCH  13  14
ENDBRANCH   7  13
TORSDOF 6
