REMARK  Name = ZINCrH000004j3cV.2
REMARK                            x       y       z     vdW  Elec       q    Type
REMARK                         _______ _______ _______ _____ _____    ______ ____
ROOT
ATOM      1  C   LIG    1       -5.139   0.328   3.878  0.00  0.00    -0.130 A 
ATOM      2  C   LIG    1       -4.447   1.228   3.122  0.00  0.00    +0.090 A 
ATOM      3  C   LIG    1       -3.971   2.407   3.708  0.00  0.00    -0.150 A 
ATOM      4  C   LIG    1       -4.197   2.656   5.075  0.00  0.00    +0.160 A 
ATOM      5  O   LIG    1       -3.731   3.791   5.637  0.00  0.00    -0.270 OA
ATOM      6  C   LIG    1       -3.046   4.698   4.922  0.00  0.00    +0.510 A 
ATOM      7  C   LIG    1       -2.780   4.511   3.550  0.00  0.00    -0.060 A 
ATOM      8  O   LIG    1       -2.645   5.707   5.473  0.00  0.00    -0.460 OA
ATOM      9  C   LIG    1       -4.902   1.729   5.828  0.00  0.00    -0.010 A 
ATOM     10  C   LIG    1       -3.220   3.389   2.923  0.00  0.00    +0.040 A 
ATOM     11  C   LIG    1       -5.371   0.571   5.231  0.00  0.00    +0.170 A 
ENDROOT
BRANCH   1  13
ATOM     12  C   LIG    1       -4.713  -2.097   3.579  0.00  0.00    +0.020 C 
ATOM     13  C   LIG    1       -5.656  -0.939   3.246  0.00  0.00    +0.070 C 
ENDBRANCH   1  13
BRANCH  11  14
ATOM     14  O   LIG    1       -6.061  -0.335   5.969  0.00  0.00    -0.490 OA
ATOM     15  H   LIG    1       -7.017  -0.188   5.980  0.00  0.00    +0.400 HD
ENDBRANCH  11  14
BRANCH  10  16
ATOM     16  C   LIG    1       -2.950   3.165   1.458  0.00  0.00    +0.230 C 
BRANCH  16  17
ATOM     17  N   LIG    1       -1.709   2.394   1.301  0.00  0.00    -0.520 NA
BRANCH  17  18
ATOM     18  C   LIG    1       -1.119   2.610  -0.026  0.00  0.00    +0.240 C 
BRANCH  18  19
ATOM     19  C   LIG    1        0.292   2.079  -0.041  0.00  0.00    -0.070 A 
ATOM     20  C   LIG    1        1.353   2.929   0.212  0.00  0.00    +0.020 A 
ATOM     21  C   LIG    1        2.647   2.443   0.192  0.00  0.00    +0.000 A 
ATOM     22  C   LIG    1        2.880   1.108  -0.081  0.00  0.00    +0.000 A 
ATOM     23  C   LIG    1        1.819   0.259  -0.333  0.00  0.00    -0.010 A 
ATOM     24  C   LIG    1        0.525   0.744  -0.314  0.00  0.00    +0.020 A 
ENDBRANCH  18  19
ENDBRANCH  17  18
BRANCH  17  25
ATOM     25  C   LIG    1       -1.944   0.965   1.547  0.00  0.00    +0.240 C 
BRANCH  25  26
ATOM     26  C   LIG    1       -2.983   0.440   0.554  0.00  0.00    +0.130 C 
BRANCH  26  27
ATOM     27  O   LIG    1       -2.419   0.418  -0.759  0.00  0.00    -0.370 OA
ATOM     28  C   LIG    1       -3.312  -0.059  -1.767  0.00  0.00    +0.190 C 
ENDBRANCH  26  27
ENDBRANCH  25  26
ENDBRANCH  17  25
ENDBRANCH  16  17
ENDBRANCH  10  16
TORSDOF 9
