REMARK  Name = ZINCrD0000072iI8.1
REMARK                            x       y       z     vdW  Elec       q    Type
REMARK                         _______ _______ _______ _____ _____    ______ ____
ROOT
ATOM      1  C   LIG    1       -0.602   2.774   0.856  0.00  0.00    +0.160 A 
ATOM      2  C   LIG    1       -1.133   1.826   0.004  0.00  0.00    -0.280 A 
ATOM      3  C   LIG    1       -0.107   1.449  -0.891  0.00  0.00    +0.290 A 
ATOM      4  N   LIG    1        0.962   2.136  -0.595  0.00  0.00    -0.280 NA
ATOM      5  N   LIG    1        0.678   2.970   0.492  0.00  0.00    -0.310 N 
ENDROOT
BRANCH   2   6
ATOM      6  C   LIG    1       -2.511   1.303   0.027  0.00  0.00    +0.600 C 
ATOM      7  N   LIG    1       -2.727  -0.027   0.024  0.00  0.00    -0.610 N 
ATOM      8  C   LIG    1       -1.605  -0.967  -0.104  0.00  0.00    +0.260 C 
ATOM      9  C   LIG    1       -1.669  -1.965   1.062  0.00  0.00    +0.020 C 
ATOM     10  C   LIG    1       -3.047  -2.631   1.081  0.00  0.00    +0.070 C 
ATOM     11  C   LIG    1       -4.126  -1.567   1.298  0.00  0.00    +0.040 C 
ATOM     12  C   LIG    1       -4.089  -0.565   0.141  0.00  0.00    +0.280 C 
ATOM     13  O   LIG    1       -3.453   2.072   0.050  0.00  0.00    -0.530 OA
BRANCH  10  14
ATOM     14  C   LIG    1       -3.103  -3.638   2.201  0.00  0.00    -0.020 A 
ATOM     15  C   LIG    1       -3.399  -3.389   3.491  0.00  0.00    +0.150 A 
ATOM     16  N   LIG    1       -3.343  -4.549   4.161  0.00  0.00    -0.490 NA
ATOM     17  C   LIG    1       -3.016  -5.507   3.337  0.00  0.00    +0.390 A 
ATOM     18  N   LIG    1       -2.857  -4.981   2.103  0.00  0.00    -0.570 N 
ATOM     19  H   LIG    1       -2.613  -5.464   1.298  0.00  0.00    +0.420 HD
ENDBRANCH  10  14
ENDBRANCH   2   6
BRANCH   5  20
ATOM     20  C   LIG    1        1.576   3.860   1.099  0.00  0.00    +0.130 A 
ATOM     21  C   LIG    1        1.174   5.153   1.404  0.00  0.00    +0.050 A 
ATOM     22  C   LIG    1        2.058   6.026   2.006  0.00  0.00    +0.020 A 
ATOM     23  C   LIG    1        3.349   5.616   2.296  0.00  0.00    +0.110 A 
ATOM     24  C   LIG    1        3.754   4.328   1.987  0.00  0.00    +0.010 A 
ATOM     25  F   LIG    1        4.215   6.473   2.880  0.00  0.00    -0.130 F 
ATOM     26  C   LIG    1        2.870   3.450   1.389  0.00  0.00    +0.070 A 
ENDBRANCH   5  20
BRANCH   1  28
ATOM     27  C   LIG    1       -1.043   2.732   3.296  0.00  0.00    +0.040 C 
ATOM     28  C   LIG    1       -1.325   3.466   1.984  0.00  0.00    +0.120 C 
ENDBRANCH   1  28
TORSDOF 4
