REMARK  Name = ZINCrg00000SjSHr.0
REMARK                            x       y       z     vdW  Elec       q    Type
REMARK                         _______ _______ _______ _____ _____    ______ ____
ROOT
ATOM      1  C   LIG    1        0.696   5.108  -1.648  0.00  0.00    +0.580 C 
ATOM      2  N   LIG    1        0.131   4.631  -0.521  0.00  0.00    -0.600 N 
ATOM      3  C   LIG    1        0.839   4.699   0.766  0.00  0.00    +0.290 C 
ATOM      4  C   LIG    1        0.825   3.305   1.403  0.00  0.00    +0.190 C 
ATOM      5  N   LIG    1       -0.559   2.820   1.481  0.00  0.00    -0.520 NA
ATOM      6  C   LIG    1       -1.145   2.663   0.143  0.00  0.00    +0.180 C 
ATOM      7  C   LIG    1       -1.211   4.030  -0.546  0.00  0.00    +0.310 C 
ATOM      8  O   LIG    1        0.057   5.143  -2.680  0.00  0.00    -0.500 OA
ENDROOT
BRANCH   1  15
ATOM      9  C   LIG    1        8.016   7.138   0.395  0.00  0.00    +0.100 C 
ATOM     10  C   LIG    1        6.670   6.556   0.048  0.00  0.00    -0.110 A 
ATOM     11  C   LIG    1        6.202   5.442   0.732  0.00  0.00    +0.090 A 
ATOM     12  C   LIG    1        4.975   4.892   0.428  0.00  0.00    +0.020 A 
ATOM     13  C   LIG    1        4.191   5.452  -0.575  0.00  0.00    +0.130 A 
ATOM     14  O   LIG    1        2.994   4.922  -0.886  0.00  0.00    -0.220 OA
ATOM     15  C   LIG    1        2.098   5.588  -1.627  0.00  0.00    +0.090 A 
ATOM     16  C   LIG    1        2.419   6.686  -2.355  0.00  0.00    -0.060 A 
ATOM     17  C   LIG    1        3.811   7.167  -2.314  0.00  0.00    +0.420 A 
ATOM     18  O   LIG    1        4.230   7.997  -3.101  0.00  0.00    -0.440 OA
ATOM     19  C   LIG    1        4.666   6.584  -1.261  0.00  0.00    -0.220 A 
ATOM     20  C   LIG    1        5.909   7.130  -0.946  0.00  0.00    +0.110 A 
ENDBRANCH   1  15
BRANCH   5  21
ATOM     21  C   LIG    1       -0.635   1.564   2.239  0.00  0.00    +0.160 C 
ATOM     22  C   LIG    1       -2.104   1.138   2.407  0.00  0.00    +0.080 C 
ATOM     23  C   LIG    1       -2.178   0.031   3.478  0.00  0.00    -0.310 C 
ATOM     24  S   LIG    1       -0.752   0.338   4.581  0.00  0.00    +2.390 S 
ATOM     25  O   LIG    1       -1.223   0.770   5.850  0.00  0.00    -0.930 OA
ATOM     26  O   LIG    1        0.154  -0.753   4.494  0.00  0.00    -0.930 OA
ATOM     27  C   LIG    1       -0.067   1.771   3.667  0.00  0.00    -0.300 C 
ENDBRANCH   5  21
TORSDOF 2
