REMARK  Name = ZINCkj00000y7AwM.1
REMARK                            x       y       z     vdW  Elec       q    Type
REMARK                         _______ _______ _______ _____ _____    ______ ____
ROOT
ATOM      1  C   LIG    1        1.247   1.554  -0.016  0.00  0.00    +0.130 C 
ATOM      2  C   LIG    1        2.064   1.113   1.202  0.00  0.00    +0.020 C 
ATOM      3  C   LIG    1        1.373   1.609   2.476  0.00  0.00    +0.060 C 
ATOM      4  C   LIG    1        1.230   3.131   2.413  0.00  0.00    +0.220 C 
ATOM      5  N   LIG    1        0.441   3.502   1.232  0.00  0.00    -0.450 NA
ATOM      6  C   LIG    1        1.107   3.078  -0.006  0.00  0.00    +0.250 C 
ENDROOT
BRANCH   5   7
ATOM      7  C   LIG    1        0.180   4.869   1.215  0.00  0.00    +0.240 C 
ATOM      8  C   LIG    1        0.736   5.692   0.236  0.00  0.00    +0.000 C 
ATOM      9  C   LIG    1        0.448   7.041   0.251  0.00  0.00    +0.390 C 
ATOM     10  N   LIG    1       -0.333   7.556   1.182  0.00  0.00    -0.460 NA
ATOM     11  C   LIG    1       -0.875   6.812   2.129  0.00  0.00    +0.380 C 
ATOM     12  H   LIG    1       -0.514   8.509   1.170  0.00  0.00    +0.460 HD
ATOM     13  C   LIG    1       -0.641   5.454   2.181  0.00  0.00    -0.090 C 
ATOM     14 CL   LIG    1       -1.358   4.485   3.430  0.00  0.00    +0.040 Cl
ENDBRANCH   5   7
BRANCH   1  15
ATOM     15  O   LIG    1       -0.050   0.956   0.037  0.00  0.00    -0.540 OA
ATOM     16  H   LIG    1       -0.037  -0.011   0.037  0.00  0.00    +0.380 HD
ENDBRANCH   1  15
BRANCH   1  17
ATOM     17  C   LIG    1        1.960   1.114  -1.296  0.00  0.00    +0.320 C 
BRANCH  17  18
ATOM     18  N   LIG    1        2.095  -0.345  -1.303  0.00  0.00    -0.300 N 
ATOM     19  C   LIG    1        1.667  -1.176  -2.280  0.00  0.00    +0.150 A 
ATOM     20  C   LIG    1        1.993  -2.428  -1.881  0.00  0.00    +0.160 A 
ATOM     21  N   LIG    1        2.597  -2.302  -0.694  0.00  0.00    -0.260 NA
ATOM     22  N   LIG    1        2.647  -1.056  -0.382  0.00  0.00    -0.090 NA
ENDBRANCH  17  18
ENDBRANCH   1  17
TORSDOF 4
