REMARK  Name = ZINCtV000002OjoT.0
REMARK                            x       y       z     vdW  Elec       q    Type
REMARK                         _______ _______ _______ _____ _____    ______ ____
ROOT
ATOM      1  O   LIG    1       -0.071   4.512   2.815  0.00  0.00    -0.490 OA
ATOM      2  C   LIG    1       -0.063   5.700   2.546  0.00  0.00    +0.590 C 
ATOM      3  N   LIG    1       -0.052   6.615   3.535  0.00  0.00    -0.680 N 
ATOM      4  H   LIG    1        0.019   7.558   3.322  0.00  0.00    +0.410 HD
ENDROOT
BRANCH   2   5
ATOM      5  C   LIG    1       -0.066   6.133   1.148  0.00  0.00    -0.040 A 
ATOM      6  C   LIG    1       -0.078   5.307   0.029  0.00  0.00    -0.030 A 
ATOM      7  C   LIG    1       -0.071   6.152  -1.099  0.00  0.00    -0.030 A 
ATOM      8  C   LIG    1       -0.065   7.430  -0.659  0.00  0.00    +0.220 A 
ATOM      9  N   LIG    1       -0.058   7.434   0.698  0.00  0.00    -0.540 N 
ATOM     10  H   LIG    1       -0.050   8.226   1.259  0.00  0.00    +0.420 HD
BRANCH   6  11
ATOM     11  C   LIG    1       -0.089   3.826   0.023  0.00  0.00    +0.010 A 
ATOM     12  C   LIG    1        1.113   3.116   0.015  0.00  0.00    -0.010 A 
ATOM     13  C   LIG    1        1.095   1.735   0.010  0.00  0.00    +0.030 A 
ATOM     14  C   LIG    1       -0.110   1.056   0.014  0.00  0.00    +0.050 A 
ATOM     15  C   LIG    1       -1.304   1.753   0.017  0.00  0.00    +0.030 A 
ATOM     16 CL   LIG    1        2.626   3.967   0.011  0.00  0.00    -0.050 Cl
ATOM     17  C   LIG    1       -1.301   3.134   0.027  0.00  0.00    -0.000 A 
ATOM     18 CL   LIG    1       -2.801   4.008   0.037  0.00  0.00    -0.050 Cl
ENDBRANCH   6  11
ENDBRANCH   2   5
BRANCH   3  19
ATOM     19  C   LIG    1       -0.141   6.203   4.870  0.00  0.00    +0.150 A 
ATOM     20  C   LIG    1       -0.825   6.983   5.793  0.00  0.00    +0.010 A 
ATOM     21  C   LIG    1       -0.917   6.574   7.109  0.00  0.00    +0.040 A 
ATOM     22  C   LIG    1       -0.318   5.389   7.511  0.00  0.00    +0.060 A 
ATOM     23  C   LIG    1        0.370   4.612   6.590  0.00  0.00    +0.030 A 
ATOM     24  C   LIG    1        0.459   5.017   5.273  0.00  0.00    +0.050 A 
BRANCH  22  25
ATOM     25  O   LIG    1       -0.404   4.990   8.808  0.00  0.00    -0.250 OA
BRANCH  25  26
ATOM     26  C   LIG    1        0.694   5.134   9.595  0.00  0.00    +0.070 A 
ATOM     27  C   LIG    1        0.633   4.836  10.952  0.00  0.00    +0.050 A 
ATOM     28  C   LIG    1        1.779   4.999  11.714  0.00  0.00    +0.020 A 
ATOM     29  C   LIG    1        2.936   5.449  11.106  0.00  0.00    +0.220 A 
ATOM     30  N   LIG    1        2.960   5.723   9.816  0.00  0.00    -0.450 NA
ATOM     31  C   LIG    1        1.894   5.576   9.055  0.00  0.00    +0.190 A 
ENDBRANCH  25  26
ENDBRANCH  22  25
ENDBRANCH   3  19
TORSDOF 5
