REMARK  Name = ZINCpk000000nhX5.0
REMARK                            x       y       z     vdW  Elec       q    Type
REMARK                         _______ _______ _______ _____ _____    ______ ____
ROOT
ATOM      1  C   LIG    1       -0.013   1.086   0.008  0.00  0.00    +0.290 C 
ENDROOT
BRANCH   1   6
ATOM      2  C   LIG    1       -0.159   0.897   2.431  0.00  0.00    +0.160 C 
ATOM      3  C   LIG    1       -0.551   1.835   3.593  0.00  0.00    +0.060 C 
ATOM      4  C   LIG    1       -0.738   3.222   2.943  0.00  0.00    +0.040 C 
ATOM      5  C   LIG    1       -0.443   3.005   1.444  0.00  0.00    +0.170 C 
ATOM      6  N   LIG    1       -0.700   1.560   1.217  0.00  0.00    -0.480 NA
BRANCH   2   7
ATOM      7  C   LIG    1       -0.790  -0.459   2.615  0.00  0.00    +0.470 C 
ATOM      8  O   LIG    1       -1.612  -0.856   1.824  0.00  0.00    -0.470 OA
BRANCH   7   9
ATOM      9  O   LIG    1       -0.438  -1.227   3.658  0.00  0.00    -0.350 OA
BRANCH   9  11
ATOM     10  C   LIG    1       -0.781  -3.356   2.527  0.00  0.00    +0.030 C 
ATOM     11  C   LIG    1       -1.085  -2.522   3.772  0.00  0.00    +0.120 C 
ATOM     12  C   LIG    1       -2.598  -2.326   3.898  0.00  0.00    +0.030 C 
ATOM     13  C   LIG    1       -0.560  -3.247   5.013  0.00  0.00    +0.080 C 
ENDBRANCH   9  11
ENDBRANCH   7   9
ENDBRANCH   2   7
ENDBRANCH   1   6
BRANCH   1  14
ATOM     14  C   LIG    1       -0.742   1.585  -1.213  0.00  0.00    -0.000 A 
ATOM     15  C   LIG    1       -0.459   2.700  -1.925  0.00  0.00    +0.150 A 
ATOM     16  N   LIG    1       -1.367   2.749  -2.927  0.00  0.00    -0.290 N 
ATOM     17  N   LIG    1       -2.142   1.727  -2.818  0.00  0.00    -0.080 NA
ATOM     18  N   LIG    1       -1.792   1.010  -1.809  0.00  0.00    -0.240 NA
BRANCH  16  19
ATOM     19  C   LIG    1       -1.454   3.785  -3.958  0.00  0.00    +0.340 C 
BRANCH  19  20
ATOM     20  C   LIG    1       -1.407   3.134  -5.342  0.00  0.00    +0.330 C 
BRANCH  20  21
ATOM     21  N   LIG    1       -1.493   4.170  -6.373  0.00  0.00    -0.380 N 
ATOM     22  C   LIG    1       -0.615   4.364  -7.380  0.00  0.00    +0.240 A 
ATOM     23  C   LIG    1       -1.051   5.416  -8.111  0.00  0.00    -0.120 A 
ATOM     24  C   LIG    1       -2.236   5.881  -7.531  0.00  0.00    +0.240 A 
ATOM     25  N   LIG    1       -2.504   5.132  -6.492  0.00  0.00    -0.300 NA
ENDBRANCH  20  21
ENDBRANCH  19  20
ENDBRANCH  16  19
ENDBRANCH   1  14
TORSDOF 8
