REMARK  Name = ZINCpk00000ebfgC.0
REMARK                            x       y       z     vdW  Elec       q    Type
REMARK                         _______ _______ _______ _____ _____    ______ ____
ROOT
ATOM      1  N   LIG    1        0.002  -0.004   0.002  0.00  0.00    -0.560 NA
ATOM      2  C   LIG    1        0.607  -0.651   1.165  0.00  0.00    +0.190 C 
ATOM      3  C   LIG    1        2.097  -0.783   0.939  0.00  0.00    +0.040 C 
ATOM      4  C   LIG    1        2.819   0.440   1.529  0.00  0.00    +0.250 C 
ATOM      5  N   LIG    1        2.066   1.683   1.271  0.00  0.00    -0.600 N 
ATOM      6  C   LIG    1        1.430   1.959  -0.001  0.00  0.00    +0.300 C 
ATOM      7  C   LIG    1        1.967   2.597   2.257  0.00  0.00    +0.510 C 
ATOM      8  O   LIG    1        1.353   3.627   2.070  0.00  0.00    -0.510 OA
ATOM      9  C   LIG    1       -0.017   1.410   0.010  0.00  0.00    +0.180 C 
ENDROOT
BRANCH   7  10
ATOM     10  C   LIG    1        2.618   2.340   3.591  0.00  0.00    +0.170 C 
ATOM     11  C   LIG    1        4.159   2.347   3.460  0.00  0.00    +0.100 C 
ATOM     12  C   LIG    1        4.582   2.993   4.765  0.00  0.00    -0.180 A 
ATOM     13  C   LIG    1        5.795   3.059   5.413  0.00  0.00    +0.060 A 
ATOM     14  C   LIG    1        5.897   3.723   6.623  0.00  0.00    -0.020 A 
ATOM     15  C   LIG    1        4.779   4.318   7.176  0.00  0.00    +0.050 A 
ATOM     16  C   LIG    1        3.563   4.256   6.526  0.00  0.00    +0.000 A 
ATOM     17  C   LIG    1        3.453   3.593   5.307  0.00  0.00    +0.100 A 
ATOM     18  O   LIG    1        2.367   3.426   4.499  0.00  0.00    -0.270 OA
ENDBRANCH   7  10
BRANCH   1  19
ATOM     19  C   LIG    1       -1.336  -0.547  -0.266  0.00  0.00    +0.260 C 
BRANCH  19  23
ATOM     20  C   LIG    1       -3.285   1.885  -4.191  0.00  0.00    +0.360 C 
ATOM     21  N   LIG    1       -2.604   0.877  -3.374  0.00  0.00    -0.370 N 
ATOM     22  C   LIG    1       -2.428   0.927  -2.037  0.00  0.00    +0.230 A 
ATOM     23  C   LIG    1       -1.753  -0.187  -1.668  0.00  0.00    -0.230 A 
ATOM     24  C   LIG    1       -1.516  -0.947  -2.818  0.00  0.00    +0.250 A 
ATOM     25  N   LIG    1       -2.026  -0.310  -3.841  0.00  0.00    -0.300 NA
ENDBRANCH  19  23
ENDBRANCH   1  19
TORSDOF 3
