REMARK  Name = ZINCvU00000006vh.2
REMARK                            x       y       z     vdW  Elec       q    Type
REMARK                         _______ _______ _______ _____ _____    ______ ____
ROOT
ATOM      1  C   LIG    1        0.213  -3.299   3.963  0.00  0.00    +0.590 C 
ATOM      2  N   LIG    1       -0.672  -2.513   3.319  0.00  0.00    -0.730 N 
ATOM      3  H   LIG    1       -1.460  -2.189   3.783  0.00  0.00    +0.390 HD
ATOM      4  O   LIG    1        1.201  -3.706   3.381  0.00  0.00    -0.510 OA
ENDROOT
BRANCH   1   9
ATOM      5  C   LIG    1        0.157  -4.510   7.412  0.00  0.00    +0.080 A 
ATOM      6  N   LIG    1       -0.944  -3.792   7.327  0.00  0.00    -0.250 NA
ATOM      7  N   LIG    1       -1.067  -3.284   6.155  0.00  0.00    -0.380 N 
ATOM      8  H   LIG    1       -1.799  -2.716   5.867  0.00  0.00    +0.440 HD
ATOM      9  C   LIG    1       -0.015  -3.665   5.370  0.00  0.00    -0.040 A 
ATOM     10  C   LIG    1        0.796  -4.457   6.160  0.00  0.00    +0.030 A 
BRANCH   5  15
ATOM     11  C   LIG    1        2.014  -7.354  12.065  0.00  0.00    +0.090 C 
ATOM     12  C   LIG    1        1.528  -6.609  10.848  0.00  0.00    -0.070 A 
ATOM     13  C   LIG    1        2.264  -6.647   9.678  0.00  0.00    +0.000 A 
ATOM     14  C   LIG    1        1.824  -5.967   8.560  0.00  0.00    +0.040 A 
ATOM     15  C   LIG    1        0.635  -5.243   8.611  0.00  0.00    -0.020 A 
ATOM     16  C   LIG    1       -0.100  -5.204   9.794  0.00  0.00    -0.050 A 
ATOM     17  C   LIG    1       -1.383  -4.417   9.860  0.00  0.00    +0.100 C 
ATOM     18  C   LIG    1        0.347  -5.891  10.904  0.00  0.00    +0.000 A 
ENDBRANCH   5  15
ENDBRANCH   1   9
BRANCH   2  19
ATOM     19  C   LIG    1       -0.446  -2.149   1.918  0.00  0.00    +0.290 C 
BRANCH  19  20
ATOM     20  C   LIG    1       -1.590  -1.258   1.431  0.00  0.00    -0.010 C 
ATOM     21  C   LIG    1       -2.896  -2.058   1.431  0.00  0.00    +0.020 C 
ATOM     22  C   LIG    1       -2.768  -3.228   0.452  0.00  0.00    +0.030 C 
ATOM     23  C   LIG    1       -2.436  -2.688  -0.941  0.00  0.00    +0.180 C 
ATOM     24  N   LIG    1       -1.179  -1.932  -0.887  0.00  0.00    -0.530 NA
ATOM     25  C   LIG    1       -0.757  -1.516  -2.232  0.00  0.00    +0.190 C 
ATOM     26  C   LIG    1       -1.293  -0.775   0.010  0.00  0.00    +0.200 C 
BRANCH  26  27
ATOM     27  C   LIG    1        0.002  -0.004   0.002  0.00  0.00    -0.080 A 
ATOM     28  C   LIG    1       -0.017   1.378   0.010  0.00  0.00    +0.020 A 
ATOM     29  C   LIG    1        1.171   2.086   0.002  0.00  0.00    +0.020 A 
ATOM     30  C   LIG    1        2.377   1.412  -0.013  0.00  0.00    +0.020 A 
ATOM     31  C   LIG    1        2.397   0.029  -0.021  0.00  0.00    -0.040 A 
ATOM     32 CL   LIG    1        3.912  -0.818  -0.039  0.00  0.00    -0.060 Cl
ATOM     33  C   LIG    1        1.208  -0.679  -0.013  0.00  0.00    +0.060 A 
ENDBRANCH  26  27
ENDBRANCH  19  20
ENDBRANCH   2  19
TORSDOF 5
