REMARK  Name = ZINCrD00000fNAm2.0
REMARK                            x       y       z     vdW  Elec       q    Type
REMARK                         _______ _______ _______ _____ _____    ______ ____
ROOT
ATOM      1  N   LIG    1       -0.139   1.023  -2.434  0.00  0.00    -0.700 N 
ATOM      2  H   LIG    1        0.620   0.424  -2.353  0.00  0.00    +0.420 HD
ENDROOT
BRANCH   1   3
ATOM      3  C   LIG    1       -0.641   1.341  -3.685  0.00  0.00    +0.450 A 
ATOM      4  N   LIG    1       -1.677   2.150  -3.800  0.00  0.00    -0.540 NA
ATOM      5  C   LIG    1       -2.172   2.473  -4.999  0.00  0.00    +0.260 A 
ATOM      6  C   LIG    1       -1.645   1.977  -6.135  0.00  0.00    +0.160 A 
ATOM      7  N   LIG    1       -0.572   1.125  -6.076  0.00  0.00    -0.240 N 
ATOM      8  N   LIG    1        0.184   0.460  -7.046  0.00  0.00    -0.290 NA
ATOM      9  C   LIG    1        1.119  -0.245  -6.445  0.00  0.00    +0.100 A 
ATOM     10  C   LIG    1        1.009  -0.066  -5.075  0.00  0.00    -0.080 A 
ATOM     11  C   LIG    1       -0.053   0.794  -4.849  0.00  0.00    +0.020 A 
BRANCH   9  12
ATOM     12  C   LIG    1        2.144  -1.107  -7.136  0.00  0.00    +0.070 C 
ATOM     13  C   LIG    1        2.879  -2.070  -6.188  0.00  0.00    +0.030 C 
ATOM     14  C   LIG    1        4.159  -1.743  -6.978  0.00  0.00    +0.010 C 
ATOM     15  C   LIG    1        3.496  -0.406  -7.348  0.00  0.00    +0.020 C 
ENDBRANCH   9  12
ENDBRANCH   1   3
BRANCH   1  16
ATOM     16  C   LIG    1       -0.753   1.593  -1.232  0.00  0.00    +0.310 C 
BRANCH  16  17
ATOM     17  C   LIG    1       -0.013   1.086   0.008  0.00  0.00    +0.150 C 
BRANCH  17  21
ATOM     18  C   LIG    1       -2.012   2.463   3.523  0.00  0.00    +0.020 A 
ATOM     19  C   LIG    1       -1.870   1.107   3.295  0.00  0.00    +0.020 A 
ATOM     20  C   LIG    1       -1.222   0.662   2.158  0.00  0.00    +0.030 A 
ATOM     21  C   LIG    1       -0.718   1.572   1.248  0.00  0.00    -0.090 A 
ATOM     22  C   LIG    1       -0.856   2.928   1.478  0.00  0.00    -0.010 A 
ATOM     23  C   LIG    1       -1.506   3.374   2.614  0.00  0.00    +0.020 A 
ENDBRANCH  17  21
BRANCH  17  24
ATOM     24  C   LIG    1        1.401   1.607  -0.003  0.00  0.00    +0.180 A 
ATOM     25  N   LIG    1        2.452   0.984  -0.461  0.00  0.00    -0.290 NA
ATOM     26  N   LIG    1        3.494   1.723  -0.311  0.00  0.00    -0.290 NA
ATOM     27  C   LIG    1        3.154   2.852   0.249  0.00  0.00    +0.380 A 
ATOM     28  N   LIG    1        1.816   2.813   0.456  0.00  0.00    -0.580 N 
ATOM     29  H   LIG    1        1.266   3.506   0.854  0.00  0.00    +0.430 HD
ENDBRANCH  17  24
ENDBRANCH  16  17
ENDBRANCH   1  16
TORSDOF 6
