REMARK  Name = ZINCrg000000nqlG.0
REMARK                            x       y       z     vdW  Elec       q    Type
REMARK                         _______ _______ _______ _____ _____    ______ ____
ROOT
ATOM      1  N   LIG    1       -1.411   1.930   1.553  0.00  0.00    -1.090 NA
ATOM      2  H   LIG    1       -2.301   1.545   1.555  0.00  0.00    +0.430 HD
ENDROOT
BRANCH   1   3
ATOM      3  S   LIG    1       -0.277   1.386   0.476  0.00  0.00    +2.700 S 
ATOM      4  O   LIG    1       -0.888   0.329  -0.251  0.00  0.00    -0.950 OA
ATOM      5  O   LIG    1        0.272   2.540  -0.146  0.00  0.00    -0.940 OA
BRANCH   3   6
ATOM      6  C   LIG    1        1.026   0.658   1.412  0.00  0.00    -0.680 A 
ATOM      7  C   LIG    1        2.095   1.432   1.825  0.00  0.00    +0.130 A 
ATOM      8  C   LIG    1        3.122   0.863   2.554  0.00  0.00    +0.020 A 
ATOM      9  C   LIG    1        3.083  -0.486   2.873  0.00  0.00    +0.110 A 
ATOM     10  O   LIG    1        4.104  -1.033   3.588  0.00  0.00    -0.300 OA
ATOM     11  C   LIG    1        3.849  -2.298   4.208  0.00  0.00    +0.230 C 
ATOM     12  C   LIG    1        3.169  -3.210   3.178  0.00  0.00    +0.230 C 
ATOM     13  O   LIG    1        1.947  -2.588   2.767  0.00  0.00    -0.300 OA
ATOM     14  C   LIG    1        2.007  -1.264   2.460  0.00  0.00    +0.030 A 
ATOM     15  C   LIG    1        0.980  -0.687   1.729  0.00  0.00    +0.140 A 
ENDBRANCH   3   6
ENDBRANCH   1   3
BRANCH   1  16
ATOM     16  C   LIG    1       -1.069   2.991   2.503  0.00  0.00    +0.250 C 
BRANCH  16  17
ATOM     17  C   LIG    1       -1.162   2.456   3.909  0.00  0.00    +0.500 C 
ATOM     18  N   LIG    1       -0.521   3.085   4.914  0.00  0.00    -0.720 N 
ATOM     19  H   LIG    1       -0.063   3.923   4.747  0.00  0.00    +0.410 HD
ATOM     20  O   LIG    1       -1.814   1.458   4.136  0.00  0.00    -0.520 OA
BRANCH  18  21
ATOM     21  C   LIG    1       -0.516   2.503   6.258  0.00  0.00    +0.270 C 
BRANCH  21  22
ATOM     22  C   LIG    1        0.275   3.409   7.204  0.00  0.00    +0.140 C 
ATOM     23  C   LIG    1        0.286   2.805   8.621  0.00  0.00    +0.010 C 
ATOM     24  C   LIG    1        1.789   2.618   8.943  0.00  0.00    +0.000 C 
ATOM     25  C   LIG    1        2.457   3.605   7.952  0.00  0.00    +0.200 C 
ATOM     26  O   LIG    1        1.641   3.497   6.766  0.00  0.00    -0.370 OA
ENDBRANCH  21  22
ENDBRANCH  18  21
ENDBRANCH  16  17
BRANCH  16  28
ATOM     27  C   LIG    1       -1.848   4.793   0.958  0.00  0.00    +0.040 C 
ATOM     28  C   LIG    1       -2.044   4.158   2.337  0.00  0.00    +0.000 C 
ATOM     29  C   LIG    1       -3.480   3.646   2.463  0.00  0.00    +0.030 C 
ENDBRANCH  16  28
ENDBRANCH   1  16
TORSDOF 7
