REMARK  Name = ZINCpe000000U8ll.0
REMARK                            x       y       z     vdW  Elec       q    Type
REMARK                         _______ _______ _______ _____ _____    ______ ____
ROOT
ATOM      1  N   LIG    1        1.346   1.674   2.558  0.00  0.00    -0.760 N 
ATOM      2  H   LIG    1        1.496   2.477   3.082  0.00  0.00    +0.400 HD
ATOM      3  C   LIG    1        2.365   1.113   1.879  0.00  0.00    +0.710 C 
ATOM      4  N   LIG    1        3.593   1.667   1.927  0.00  0.00    -0.740 N 
ATOM      5  H   LIG    1        3.743   2.470   2.451  0.00  0.00    +0.400 HD
ATOM      6  O   LIG    1        2.178   0.107   1.223  0.00  0.00    -0.580 OA
ENDROOT
BRANCH   1   7
ATOM      7  C   LIG    1        0.011   1.072   2.506  0.00  0.00    +0.280 C 
BRANCH   7   9
ATOM      8  C   LIG    1       -0.013   1.086   0.008  0.00  0.00    +0.020 C 
ATOM      9  C   LIG    1       -0.729   1.579   1.267  0.00  0.00    +0.020 C 
ENDBRANCH   7   9
BRANCH   7  10
ATOM     10  C   LIG    1       -0.772   1.460   3.762  0.00  0.00    -0.330 C 
BRANCH  10  11
ATOM     11  S   LIG    1        0.105   0.859   5.232  0.00  0.00    +2.500 S 
ATOM     12  O   LIG    1        1.322   1.570   5.411  0.00  0.00    -0.930 OA
ATOM     13  O   LIG    1        0.070  -0.561   5.287  0.00  0.00    -0.930 OA
BRANCH  11  14
ATOM     14  C   LIG    1       -0.901   1.371   6.584  0.00  0.00    -0.660 A 
ATOM     15  C   LIG    1       -0.687   2.600   7.179  0.00  0.00    +0.110 A 
ATOM     16  C   LIG    1       -1.479   3.005   8.237  0.00  0.00    -0.010 A 
ATOM     17  C   LIG    1       -2.479   2.175   8.708  0.00  0.00    +0.070 A 
ATOM     18  C   LIG    1       -2.691   0.943   8.117  0.00  0.00    +0.000 A 
ATOM     19  C   LIG    1       -1.901   0.541   7.055  0.00  0.00    +0.110 A 
ENDBRANCH  11  14
ENDBRANCH  10  11
ENDBRANCH   7  10
ENDBRANCH   1   7
BRANCH   4  20
ATOM     20  C   LIG    1        4.701   1.056   1.189  0.00  0.00    +0.290 C 
BRANCH  20  21
ATOM     21  C   LIG    1        5.974   1.875   1.411  0.00  0.00    +0.160 C 
BRANCH  21  22
ATOM     22  N   LIG    1        7.086   1.263   0.670  0.00  0.00    -0.530 NA
ATOM     23  C   LIG    1        7.425  -0.055   1.224  0.00  0.00    +0.150 C 
ATOM     24  C   LIG    1        8.545  -0.681   0.388  0.00  0.00    +0.220 C 
ATOM     25  O   LIG    1        9.669   0.203   0.367  0.00  0.00    -0.390 OA
ATOM     26  C   LIG    1        9.374   1.496  -0.167  0.00  0.00    +0.220 C 
ATOM     27  C   LIG    1        8.263   2.144   0.664  0.00  0.00    +0.160 C 
ENDBRANCH  21  22
ENDBRANCH  20  21
ENDBRANCH   4  20
TORSDOF 8
