REMARK  Name = ZINCrH000004tPUq.0
REMARK                            x       y       z     vdW  Elec       q    Type
REMARK                         _______ _______ _______ _____ _____    ______ ____
ROOT
ATOM      1  O   LIG    1        2.159   5.335   0.112  0.00  0.00    -0.480 OA
ATOM      2  C   LIG    1        1.104   5.932   0.126  0.00  0.00    +0.510 C 
ATOM      3  N   LIG    1       -0.056   5.252   0.031  0.00  0.00    -0.670 N 
ATOM      4  H   LIG    1       -0.896   5.732  -0.036  0.00  0.00    +0.420 HD
ENDROOT
BRANCH   3   5
ATOM      5  C   LIG    1       -0.048   3.852   0.029  0.00  0.00    +0.140 A 
ATOM      6  C   LIG    1       -0.993   3.153  -0.713  0.00  0.00    +0.010 A 
ATOM      7  C   LIG    1       -0.990   1.771  -0.719  0.00  0.00    +0.040 A 
ATOM      8  C   LIG    1       -0.048   1.076   0.011  0.00  0.00    +0.030 A 
ATOM      9  C   LIG    1        0.903   1.768   0.764  0.00  0.00    -0.120 A 
ATOM     10  C   LIG    1        0.902   3.163   0.765  0.00  0.00    +0.090 A 
BRANCH   9  11
ATOM     11  C   LIG    1        1.910   1.026   1.552  0.00  0.00    +0.560 C 
ATOM     12  N   LIG    1        1.912  -0.322   1.544  0.00  0.00    -0.700 N 
ATOM     13  H   LIG    1        1.252  -0.805   1.022  0.00  0.00    +0.400 HD
ATOM     14  O   LIG    1        2.736   1.631   2.206  0.00  0.00    -0.520 OA
BRANCH  12  15
ATOM     15  C   LIG    1        2.909  -1.058   2.325  0.00  0.00    +0.220 C 
ATOM     16  C   LIG    1        3.585  -2.257   1.657  0.00  0.00    +0.010 C 
ATOM     17  C   LIG    1        2.554  -2.479   2.765  0.00  0.00    +0.020 C 
ENDBRANCH  12  15
ENDBRANCH   9  11
ENDBRANCH   3   5
BRANCH   2  18
ATOM     18  C   LIG    1        1.089   7.434   0.248  0.00  0.00    +0.240 C 
BRANCH  18  19
ATOM     19  O   LIG    1        2.430   7.918   0.333  0.00  0.00    -0.290 OA
BRANCH  19  20
ATOM     20  C   LIG    1        2.595   9.262   0.448  0.00  0.00    +0.130 A 
ATOM     21  C   LIG    1        3.854   9.781   0.539  0.00  0.00    -0.010 A 
ATOM     22  C   LIG    1        4.026  11.171   0.652  0.00  0.00    -0.010 A 
ATOM     23  C   LIG    1        5.307  11.742   0.743  0.00  0.00    +0.020 A 
ATOM     24  C   LIG    1        5.436  13.092   0.859  0.00  0.00    +0.030 A 
ATOM     25  C   LIG    1        4.315  13.920   0.889  0.00  0.00    -0.010 A 
ATOM     26  C   LIG    1        3.059  13.402   0.803  0.00  0.00    +0.030 A 
ATOM     27  C   LIG    1        2.886  12.013   0.683  0.00  0.00    -0.080 A 
ATOM     28  C   LIG    1        1.604  11.443   0.593  0.00  0.00    +0.070 A 
ATOM     29  C   LIG    1        1.471  10.095   0.478  0.00  0.00    -0.060 A 
ENDBRANCH  19  20
ENDBRANCH  18  19
ENDBRANCH   2  18
TORSDOF 6
