REMARK  Name = ZINCqH00000098Md.0
REMARK                            x       y       z     vdW  Elec       q    Type
REMARK                         _______ _______ _______ _____ _____    ______ ____
ROOT
ATOM      1  C   LIG    1        1.334  -4.763  -0.151  0.00  0.00    +0.220 C 
ENDROOT
BRANCH   1   4
ATOM      2  N   LIG    1        2.232  -7.065  -0.250  0.00  0.00    -0.720 N 
ATOM      3  H   LIG    1        3.119  -6.682  -0.335  0.00  0.00    +0.400 HD
ATOM      4  C   LIG    1        1.157  -6.260  -0.141  0.00  0.00    +0.520 C 
ATOM      5  O   LIG    1        0.048  -6.739  -0.036  0.00  0.00    -0.510 OA
BRANCH   2   7
ATOM      6  C   LIG    1        1.737  -9.005  -1.656  0.00  0.00    +0.040 C 
ATOM      7  C   LIG    1        2.061  -8.520  -0.241  0.00  0.00    +0.290 C 
BRANCH   7   8
ATOM      8  C   LIG    1        3.333  -9.173   0.235  0.00  0.00    -0.080 A 
ATOM      9  C   LIG    1        3.275 -10.263   1.082  0.00  0.00    +0.030 A 
ATOM     10  C   LIG    1        4.441 -10.863   1.519  0.00  0.00    +0.040 A 
ATOM     11  C   LIG    1        5.666 -10.373   1.108  0.00  0.00    +0.030 A 
ATOM     12  C   LIG    1        5.725  -9.281   0.260  0.00  0.00    -0.030 A 
ATOM     13 CL   LIG    1        7.264  -8.665  -0.257  0.00  0.00    -0.060 Cl
ATOM     14  C   LIG    1        4.557  -8.685  -0.181  0.00  0.00    +0.020 A 
ENDBRANCH   7   8
ENDBRANCH   2   7
ENDBRANCH   1   4
BRANCH   1  15
ATOM     15  O   LIG    1        0.058  -4.132  -0.024  0.00  0.00    -0.290 OA
BRANCH  15  16
ATOM     16  C   LIG    1        0.040  -2.772  -0.015  0.00  0.00    +0.100 A 
ATOM     17  C   LIG    1       -1.166  -2.096   0.106  0.00  0.00    +0.020 A 
ATOM     18  C   LIG    1       -1.185  -0.715   0.114  0.00  0.00    +0.010 A 
ATOM     19  C   LIG    1        0.002  -0.004   0.002  0.00  0.00    +0.130 A 
ATOM     20  C   LIG    1        1.207  -0.682  -0.124  0.00  0.00    +0.050 A 
ATOM     21  C   LIG    1        1.226  -2.062  -0.127  0.00  0.00    -0.050 A 
BRANCH  19  22
ATOM     22  N   LIG    1       -0.017   1.397   0.010  0.00  0.00    -0.560 N 
ATOM     23  C   LIG    1       -1.240   2.208   0.009  0.00  0.00    +0.260 C 
ATOM     24  C   LIG    1       -0.794   3.625  -0.417  0.00  0.00    +0.060 C 
ATOM     25  C   LIG    1        0.691   3.631   0.015  0.00  0.00    +0.070 C 
ATOM     26  C   LIG    1        1.082   2.170   0.025  0.00  0.00    +0.510 C 
ATOM     27  O   LIG    1        2.223   1.757   0.041  0.00  0.00    -0.510 OA
ENDBRANCH  19  22
ENDBRANCH  15  16
ENDBRANCH   1  15
TORSDOF 6
