REMARK  Name = ZINCrD00000F5LCb.0
REMARK                            x       y       z     vdW  Elec       q    Type
REMARK                         _______ _______ _______ _____ _____    ______ ____
ROOT
ATOM      1  N   LIG    1       -0.650   1.360   1.417  0.00  0.00    -0.590 N 
ENDROOT
BRANCH   1   5
ATOM      2  C   LIG    1       -2.787  -3.009   2.030  0.00  0.00    +0.110 C 
ATOM      3  C   LIG    1       -2.534  -1.586   2.455  0.00  0.00    +0.050 A 
ATOM      4  C   LIG    1       -1.704  -0.775   1.730  0.00  0.00    -0.100 A 
ATOM      5  C   LIG    1       -1.491   0.537   2.149  0.00  0.00    +0.430 A 
ATOM      6  N   LIG    1       -2.077   1.006   3.242  0.00  0.00    -0.550 NA
ATOM      7  C   LIG    1       -2.887   0.262   3.966  0.00  0.00    +0.380 A 
ATOM      8  C   LIG    1       -3.145  -1.062   3.605  0.00  0.00    -0.150 A 
BRANCH   8   9
ATOM      9  C   LIG    1       -4.022  -1.872   4.395  0.00  0.00    +0.260 C 
ATOM     10  N   LIG    1       -4.718  -2.515   5.022  0.00  0.00    -0.420 NA
ENDBRANCH   8   9
ENDBRANCH   1   5
BRANCH   1  11
ATOM     11  C   LIG    1       -0.080   0.887   0.153  0.00  0.00    +0.300 C 
BRANCH  11  12
ATOM     12  C   LIG    1       -1.089   1.105  -0.975  0.00  0.00    -0.050 C 
ATOM     13  C   LIG    1       -1.342   2.613  -1.193  0.00  0.00    +0.010 C 
ATOM     14  C   LIG    1       -0.882   2.865  -2.646  0.00  0.00    +0.190 C 
ATOM     15  O   LIG    1       -0.986   1.579  -3.294  0.00  0.00    -0.370 OA
ATOM     16  C   LIG    1       -0.507   0.624  -2.323  0.00  0.00    +0.150 C 
ATOM     17  C   LIG    1       -1.022  -0.778  -2.656  0.00  0.00    +0.060 C 
ENDBRANCH  11  12
ENDBRANCH   1  11
BRANCH   1  18
ATOM     18  C   LIG    1       -0.332   2.704   1.907  0.00  0.00    +0.390 C 
BRANCH  18  19
ATOM     19  C   LIG    1        0.976   2.670   2.653  0.00  0.00    -0.030 A 
ATOM     20  C   LIG    1        2.194   2.951   2.123  0.00  0.00    +0.010 A 
ATOM     21  C   LIG    1        3.148   2.809   3.133  0.00  0.00    -0.020 A 
ATOM     22  C   LIG    1        2.471   2.429   4.278  0.00  0.00    -0.020 A 
ATOM     23  C   LIG    1        2.882   2.138   5.592  0.00  0.00    +0.360 A 
ATOM     24  N   LIG    1        1.990   1.795   6.491  0.00  0.00    -0.480 NA
ATOM     25  C   LIG    1        0.689   1.716   6.186  0.00  0.00    +0.200 A 
ATOM     26  C   LIG    1        0.240   1.984   4.946  0.00  0.00    +0.180 A 
ATOM     27  N   LIG    1        1.128   2.348   3.961  0.00  0.00    -0.320 N 
ENDBRANCH  18  19
ENDBRANCH   1  18
TORSDOF 6
