REMARK  Name = ZINCvU0000000AVn.0
REMARK                            x       y       z     vdW  Elec       q    Type
REMARK                         _______ _______ _______ _____ _____    ______ ____
ROOT
ATOM      1  C   LIG    1       -0.787   8.430   0.054  0.00  0.00    +0.280 C 
ATOM      2  C   LIG    1       -1.328   6.987   0.046  0.00  0.00    +0.100 C 
ATOM      3  C   LIG    1       -0.081   6.131   0.035  0.00  0.00    +0.140 C 
ATOM      4  N   LIG    1        0.961   6.888   0.029  0.00  0.00    -0.200 NA
ATOM      5  N   LIG    1        0.673   8.252   0.038  0.00  0.00    -0.850 N 
ENDROOT
BRANCH   3   6
ATOM      6  C   LIG    1       -0.061   4.656   0.028  0.00  0.00    -0.020 A 
ATOM      7  C   LIG    1        1.156   3.971   0.012  0.00  0.00    +0.060 A 
ATOM      8  C   LIG    1        1.168   2.592   0.005  0.00  0.00    +0.050 A 
ATOM      9  C   LIG    1       -0.024   1.887   0.012  0.00  0.00    -0.080 A 
ATOM     10  C   LIG    1       -1.234   2.559   0.022  0.00  0.00    +0.050 A 
ATOM     11 BR   LIG    1        0.002  -0.004   0.002  0.00  0.00    -0.040 Br
ATOM     12  C   LIG    1       -1.259   3.938   0.035  0.00  0.00    +0.060 A 
ENDBRANCH   3   6
BRANCH   1  17
ATOM     13  C   LIG    1       -2.859  10.435   2.507  0.00  0.00    +0.120 A 
ATOM     14  C   LIG    1       -2.008  10.490   3.599  0.00  0.00    -0.050 A 
ATOM     15  C   LIG    1       -0.768   9.880   3.541  0.00  0.00    +0.060 A 
ATOM     16  C   LIG    1       -0.377   9.211   2.397  0.00  0.00    -0.020 A 
ATOM     17  C   LIG    1       -1.219   9.157   1.302  0.00  0.00    -0.090 A 
ATOM     18  C   LIG    1       -2.463   9.766   1.353  0.00  0.00    +0.090 A 
BRANCH  13  20
ATOM     19  C   LIG    1       -4.418  11.704   3.779  0.00  0.00    +0.240 C 
ATOM     20  O   LIG    1       -4.078  11.035   2.562  0.00  0.00    -0.300 OA
ENDBRANCH  13  20
BRANCH  18  21
ATOM     21  O   LIG    1       -3.294   9.709   0.279  0.00  0.00    -0.320 OA
ATOM     22  C   LIG    1       -4.200   8.605   0.217  0.00  0.00    +0.230 C 
ENDBRANCH  18  21
ENDBRANCH   1  17
BRANCH   5  23
ATOM     23  S   LIG    1        1.793   9.472   0.033  0.00  0.00    +2.710 S 
ATOM     24  O   LIG    1        1.107  10.643  -0.388  0.00  0.00    -0.930 OA
ATOM     25  O   LIG    1        2.940   8.961  -0.633  0.00  0.00    -0.930 OA
BRANCH  23  26
ATOM     26  C   LIG    1        2.271   9.749   1.706  0.00  0.00    -0.690 A 
ATOM     27  C   LIG    1        1.584  10.668   2.477  0.00  0.00    +0.140 A 
ATOM     28  C   LIG    1        1.956  10.883   3.791  0.00  0.00    -0.020 A 
ATOM     29  C   LIG    1        3.021  10.185   4.331  0.00  0.00    +0.080 A 
ATOM     30  C   LIG    1        3.711   9.270   3.558  0.00  0.00    -0.020 A 
ATOM     31  C   LIG    1        3.336   9.052   2.245  0.00  0.00    +0.130 A 
ENDBRANCH  23  26
ENDBRANCH   5  23
TORSDOF 6
