REMARK  Name = ZINCpk00000y6wiF.0
REMARK                            x       y       z     vdW  Elec       q    Type
REMARK                         _______ _______ _______ _____ _____    ______ ____
ROOT
ATOM      1  C   LIG    1       -2.720  -3.904   0.618  0.00  0.00    +0.210 C 
ATOM      2  C   LIG    1       -1.335  -4.262   0.018  0.00  0.00    +0.090 C 
ATOM      3  C   LIG    1       -0.608  -2.901  -0.014  0.00  0.00    +0.260 C 
ATOM      4  N   LIG    1       -1.640  -1.854   0.008  0.00  0.00    -0.610 N 
ATOM      5  C   LIG    1       -1.412  -0.526   0.013  0.00  0.00    +0.540 C 
ATOM      6  O   LIG    1       -2.344   0.250   0.026  0.00  0.00    -0.510 OA
ATOM      7  C   LIG    1       -2.966  -2.498   0.017  0.00  0.00    +0.260 C 
ENDROOT
BRANCH   1  10
ATOM      8  N   LIG    1       -5.658  -5.883  -0.197  0.00  0.00    -0.280 N 
ATOM      9  C   LIG    1       -5.106  -4.799   0.396  0.00  0.00    +0.160 A 
ATOM     10  C   LIG    1       -3.775  -4.879   0.163  0.00  0.00    -0.040 A 
ATOM     11  N   LIG    1       -3.581  -5.990  -0.556  0.00  0.00    -0.250 NA
ATOM     12  N   LIG    1       -4.716  -6.565  -0.748  0.00  0.00    -0.080 NA
BRANCH   8  14
ATOM     13  C   LIG    1       -7.438  -6.986   1.068  0.00  0.00    +0.060 C 
ATOM     14  C   LIG    1       -7.083  -6.222  -0.210  0.00  0.00    +0.250 C 
ATOM     15  C   LIG    1       -7.912  -4.938  -0.283  0.00  0.00    +0.060 C 
ENDBRANCH   8  14
ENDBRANCH   1  10
BRANCH   1  16
ATOM     16  O   LIG    1       -2.660  -3.848   2.045  0.00  0.00    -0.530 OA
ATOM     17  H   LIG    1       -3.475  -3.534   2.461  0.00  0.00    +0.380 HD
ENDBRANCH   1  16
BRANCH   5  18
ATOM     18  C   LIG    1        0.002  -0.004   0.002  0.00  0.00    +0.250 C 
BRANCH  18  19
ATOM     19  O   LIG    1       -0.017   1.425   0.010  0.00  0.00    -0.280 OA
BRANCH  19  20
ATOM     20  C   LIG    1        1.185   2.058   0.002  0.00  0.00    +0.090 A 
ATOM     21  C   LIG    1        2.359   1.321  -0.013  0.00  0.00    -0.040 A 
ATOM     22  C   LIG    1        3.581   1.967  -0.021  0.00  0.00    +0.040 A 
ATOM     23  C   LIG    1        3.635   3.348  -0.015  0.00  0.00    +0.010 A 
ATOM     24  C   LIG    1        2.466   4.088   0.001  0.00  0.00    +0.020 A 
ATOM     25  C   LIG    1        1.241   3.447   0.003  0.00  0.00    +0.070 A 
ATOM     26  F   LIG    1        0.099   4.169   0.012  0.00  0.00    -0.130 F 
ENDBRANCH  19  20
ENDBRANCH  18  19
ENDBRANCH   5  18
TORSDOF 6
