REMARK  Name = ZINCpe000000ZgyH.0
REMARK                            x       y       z     vdW  Elec       q    Type
REMARK                         _______ _______ _______ _____ _____    ______ ____
ROOT
ATOM      1  O   LIG    1       -1.475   1.167   2.046  0.00  0.00    -0.510 OA
ATOM      2  C   LIG    1       -0.842   1.932   1.349  0.00  0.00    +0.530 C 
ATOM      3  N   LIG    1       -0.953   3.262   1.536  0.00  0.00    -0.730 N 
ATOM      4  H   LIG    1       -0.446   3.874   0.979  0.00  0.00    +0.400 HD
ENDROOT
BRANCH   2   5
ATOM      5  C   LIG    1        0.070   1.395   0.276  0.00  0.00    +0.110 C 
ATOM      6  C   LIG    1        1.506   1.846   0.551  0.00  0.00    +0.240 C 
ATOM      7  O   LIG    1        2.377   1.273  -0.427  0.00  0.00    -0.380 OA
ATOM      8  C   LIG    1        2.349  -0.157  -0.456  0.00  0.00    +0.240 C 
ATOM      9  C   LIG    1        0.921  -0.629  -0.742  0.00  0.00    +0.160 C 
ATOM     10  N   LIG    1        0.015  -0.074   0.275  0.00  0.00    -0.510 NA
BRANCH  10  11
ATOM     11  C   LIG    1       -1.360  -0.549   0.069  0.00  0.00    +0.190 C 
BRANCH  11  12
ATOM     12  C   LIG    1       -1.336  -2.031  -0.313  0.00  0.00    +0.380 C 
ATOM     13  F   LIG    1       -0.604  -2.746   0.640  0.00  0.00    -0.190 F 
ATOM     14  F   LIG    1       -0.738  -2.179  -1.569  0.00  0.00    -0.210 F 
ENDBRANCH  11  12
ENDBRANCH  10  11
ENDBRANCH   2   5
BRANCH   3  15
ATOM     15  C   LIG    1       -1.838   3.784   2.580  0.00  0.00    +0.410 C 
BRANCH  15  16
ATOM     16  C   LIG    1       -1.781   5.290   2.580  0.00  0.00    +0.160 A 
ATOM     17  N   LIG    1       -0.962   6.034   3.273  0.00  0.00    -0.260 NA
ATOM     18  N   LIG    1       -1.188   7.276   3.031  0.00  0.00    -0.290 NA
ATOM     19  C   LIG    1       -2.169   7.390   2.177  0.00  0.00    +0.400 A 
ATOM     20  N   LIG    1       -2.579   6.129   1.862  0.00  0.00    -0.420 N 
BRANCH  20  21
ATOM     21  C   LIG    1       -3.609   5.770   0.980  0.00  0.00    +0.100 A 
ATOM     22  C   LIG    1       -3.377   4.828  -0.013  0.00  0.00    +0.020 A 
ATOM     23  C   LIG    1       -4.395   4.472  -0.876  0.00  0.00    +0.040 A 
ATOM     24  C   LIG    1       -5.640   5.061  -0.759  0.00  0.00    +0.030 A 
ATOM     25  C   LIG    1       -5.872   6.004   0.225  0.00  0.00    +0.040 A 
ATOM     26  C   LIG    1       -4.860   6.360   1.095  0.00  0.00    +0.020 A 
ENDBRANCH  20  21
ENDBRANCH  15  16
ENDBRANCH   3  15
TORSDOF 6
