REMARK  Name = ZINCpk00000y6zbR.0
REMARK                            x       y       z     vdW  Elec       q    Type
REMARK                         _______ _______ _______ _____ _____    ______ ____
ROOT
ATOM      1  C   LIG    1       -0.618   1.949   1.331  0.00  0.00    -0.010 C 
ATOM      2  C   LIG    1        0.568   2.236   2.269  0.00  0.00    +0.050 C 
ATOM      3  C   LIG    1        1.847   1.876   1.486  0.00  0.00    +0.110 C 
ATOM      4  C   LIG    1        1.426   1.987  -0.001  0.00  0.00    +0.020 C 
ATOM      5  C   LIG    1       -0.017   1.425   0.010  0.00  0.00    +0.170 C 
ENDROOT
BRANCH   3   6
ATOM      6  C   LIG    1        2.949   2.856   1.796  0.00  0.00    +0.320 A 
ATOM      7  N   LIG    1        3.921   2.671   2.652  0.00  0.00    -0.560 NA
ATOM      8  C   LIG    1        4.718   3.744   2.671  0.00  0.00    +0.480 A 
ATOM      9  N   LIG    1        4.250   4.631   1.825  0.00  0.00    -0.370 NA
ATOM     10  N   LIG    1        3.100   4.072   1.246  0.00  0.00    -0.480 N 
ATOM     11  H   LIG    1        2.527   4.483   0.580  0.00  0.00    +0.440 HD
BRANCH   8  12
ATOM     12  N   LIG    1        5.857   3.898   3.463  0.00  0.00    -0.600 N 
ATOM     13  C   LIG    1        6.269   2.823   4.370  0.00  0.00    +0.300 C 
ATOM     14  C   LIG    1        6.639   5.134   3.389  0.00  0.00    +0.310 C 
ENDBRANCH   8  12
ENDBRANCH   3   6
BRANCH   5  15
ATOM     15  O   LIG    1        0.002  -0.004   0.002  0.00  0.00    -0.550 OA
ATOM     16  H   LIG    1        0.422  -0.387  -0.780  0.00  0.00    +0.380 HD
ENDBRANCH   5  15
BRANCH   1  17
ATOM     17  C   LIG    1       -1.531   0.889   1.949  0.00  0.00    +0.290 C 
BRANCH  17  19
ATOM     18  C   LIG    1       -3.646  -0.206   1.435  0.00  0.00    +0.560 C 
ATOM     19  N   LIG    1       -2.699   0.688   1.088  0.00  0.00    -0.720 N 
ATOM     20  H   LIG    1       -2.790   1.198   0.268  0.00  0.00    +0.400 HD
ATOM     21  O   LIG    1       -3.531  -0.846   2.462  0.00  0.00    -0.540 OA
BRANCH  18  27
ATOM     22  C   LIG    1       -7.967  -2.516   0.489  0.00  0.00    +0.090 C 
ATOM     23  C   LIG    1       -6.905  -1.518   0.106  0.00  0.00    -0.090 A 
ATOM     24  C   LIG    1       -7.033  -0.787  -1.062  0.00  0.00    +0.030 A 
ATOM     25  C   LIG    1       -6.062   0.131  -1.421  0.00  0.00    +0.010 A 
ATOM     26  C   LIG    1       -4.963   0.328  -0.612  0.00  0.00    +0.030 A 
ATOM     27  C   LIG    1       -4.825  -0.409   0.565  0.00  0.00    -0.130 A 
ATOM     28  C   LIG    1       -5.807  -1.334   0.922  0.00  0.00    +0.080 A 
ENDBRANCH  18  27
ENDBRANCH  17  19
ENDBRANCH   1  17
TORSDOF 6
