REMARK  Name = ZINCrg000000nBpq.0
REMARK                            x       y       z     vdW  Elec       q    Type
REMARK                         _______ _______ _______ _____ _____    ______ ____
ROOT
ATOM      1  C   LIG    1       -0.868   2.928  -1.295  0.00  0.00    +0.510 C 
ATOM      2  N   LIG    1       -0.751   1.592  -1.163  0.00  0.00    -0.590 N 
ATOM      3  O   LIG    1       -0.457   3.662  -0.421  0.00  0.00    -0.510 OA
ENDROOT
BRANCH   2   4
ATOM      4  C   LIG    1       -0.033   1.029  -0.017  0.00  0.00    +0.280 C 
ATOM      5  C   LIG    1        1.420   1.535  -0.004  0.00  0.00    +0.060 C 
ATOM      6  C   LIG    1        2.044   1.213   1.368  0.00  0.00    -0.310 C 
ATOM      7  S   LIG    1        0.638   1.191   2.537  0.00  0.00    +2.390 S 
ATOM      8  O   LIG    1        0.742   2.301   3.419  0.00  0.00    -0.930 OA
ATOM      9  O   LIG    1        0.483  -0.119   3.064  0.00  0.00    -0.930 OA
ATOM     10  C   LIG    1       -0.682   1.511   1.306  0.00  0.00    -0.310 C 
ENDBRANCH   2   4
BRANCH   2  11
ATOM     11  C   LIG    1       -1.343   0.703  -2.166  0.00  0.00    +0.230 C 
ATOM     12  C   LIG    1       -2.423  -0.185  -1.514  0.00  0.00    +0.020 C 
ATOM     13  C   LIG    1       -2.269  -1.553  -2.224  0.00  0.00    +0.020 C 
ATOM     14  C   LIG    1       -0.735  -1.681  -2.393  0.00  0.00    +0.010 C 
ATOM     15  C   LIG    1       -0.270  -0.248  -2.725  0.00  0.00    +0.020 C 
ENDBRANCH   2  11
BRANCH   1  16
ATOM     16  C   LIG    1       -1.509   3.510  -2.528  0.00  0.00    +0.360 C 
BRANCH  16  21
ATOM     17  C   LIG    1       -1.815   7.190  -2.123  0.00  0.00    +0.120 C 
ATOM     18  N   LIG    1       -0.536   6.996  -2.828  0.00  0.00    -0.710 N 
ATOM     19  H   LIG    1        0.077   7.689  -3.116  0.00  0.00    +0.440 HD
ATOM     20  C   LIG    1       -0.386   5.669  -2.995  0.00  0.00    +0.710 C 
ATOM     21  N   LIG    1       -1.409   4.971  -2.487  0.00  0.00    -0.560 N 
ATOM     22  O   LIG    1        0.571   5.162  -3.546  0.00  0.00    -0.540 OA
ATOM     23  C   LIG    1       -2.337   5.779  -1.938  0.00  0.00    +0.540 C 
ATOM     24  O   LIG    1       -3.374   5.446  -1.405  0.00  0.00    -0.460 OA
BRANCH  17  26
ATOM     25  C   LIG    1       -0.564   7.063   0.035  0.00  0.00    +0.030 C 
ATOM     26  C   LIG    1       -1.587   7.866  -0.770  0.00  0.00    +0.060 C 
ENDBRANCH  17  26
BRANCH  17  27
ATOM     27  C   LIG    1       -2.782   8.012  -2.978  0.00  0.00    +0.060 C 
ATOM     28  C   LIG    1       -3.034   7.288  -4.302  0.00  0.00    +0.020 C 
ENDBRANCH  17  27
ENDBRANCH  16  21
ENDBRANCH   1  16
TORSDOF 6
