REMARK  Name = ZINCnE000001TDn6.0
REMARK                            x       y       z     vdW  Elec       q    Type
REMARK                         _______ _______ _______ _____ _____    ______ ____
ROOT
ATOM      1  C   LIG    1        1.109  -2.163  -0.020  0.00  0.00    +0.590 C 
ATOM      2  N   LIG    1       -0.072  -2.814  -0.012  0.00  0.00    -0.710 N 
ATOM      3  H   LIG    1       -0.902  -2.312  -0.002  0.00  0.00    +0.420 HD
ATOM      4  O   LIG    1        2.149  -2.792  -0.034  0.00  0.00    -0.540 OA
ENDROOT
BRANCH   1   9
ATOM      5  CA  LIG    1       -0.016   1.320   0.009  0.00  0.00    +0.080 A 
ATOM      6  C   LIG    1        1.175   2.049   0.002  0.00  0.00    +0.040 A 
ATOM      7  C   LIG    1        2.384   1.371  -0.014  0.00  0.00    +0.040 A 
ATOM      8  C   LIG    1        2.366  -0.014  -0.021  0.00  0.00    +0.020 A 
ATOM      9  C   LIG    1        1.138  -0.681  -0.013  0.00  0.00    +0.050 A 
ATOM     10  N   LIG    1        0.002  -0.004   0.002  0.00  0.00    -0.420 NA
BRANCH   5  12
ATOM     11  O   LIG    1       -2.358   1.403   0.021  0.00  0.00    -0.660 OA
ATOM     12  C   LIG    1       -1.312   2.035   0.019  0.00  0.00    +0.530 C 
ATOM     13  OXT LIG    1       -1.336   3.257   0.026  0.00  0.00    -0.680 OA
ENDBRANCH   5  12
ENDBRANCH   1   9
BRANCH   2  14
ATOM     14  C   LIG    1       -0.101  -4.278  -0.020  0.00  0.00    +0.410 C 
BRANCH  14  15
ATOM     15  C   LIG    1       -0.001  -4.776  -1.439  0.00  0.00    -0.190 A 
ATOM     16  C   LIG    1        0.716  -5.828  -1.836  0.00  0.00    +0.020 A 
ATOM     17  C   LIG    1        0.653  -6.098  -3.192  0.00  0.00    +0.000 A 
ATOM     18  C   LIG    1       -0.107  -5.259  -3.898  0.00  0.00    -0.060 A 
ATOM     19  S   LIG    1       -0.804  -4.052  -2.826  0.00  0.00    +0.130 S 
ENDBRANCH  14  15
BRANCH  14  20
ATOM     20  C   LIG    1       -1.393  -4.758   0.590  0.00  0.00    -0.200 A 
ATOM     21  C   LIG    1       -1.515  -5.807   1.405  0.00  0.00    +0.020 A 
ATOM     22  C   LIG    1       -2.804  -6.056   1.845  0.00  0.00    +0.000 A 
ATOM     23  C   LIG    1       -3.729  -5.216   1.380  0.00  0.00    -0.040 A 
ATOM     24  S   LIG    1       -2.970  -4.026   0.331  0.00  0.00    +0.140 S 
ENDBRANCH  14  20
ENDBRANCH   2  14
TORSDOF 5
