REMARK  Name = ZINCtV000002xVuM.0
REMARK                            x       y       z     vdW  Elec       q    Type
REMARK                         _______ _______ _______ _____ _____    ______ ____
ROOT
ATOM      1  C   LIG    1        1.169   3.570   0.010  0.00  0.00    +0.130 A 
ATOM      2  C   LIG    1        2.299   4.299   0.003  0.00  0.00    -0.110 A 
ATOM      3  S   LIG    1        1.854   6.004   0.015  0.00  0.00    +0.210 S 
ATOM      4  C   LIG    1        0.150   5.560   0.028  0.00  0.00    +0.270 A 
ATOM      5  N   LIG    1        0.042   4.268   0.018  0.00  0.00    -0.490 NA
ENDROOT
BRANCH   1   9
ATOM      6  C   LIG    1        1.208  -0.682  -0.013  0.00  0.00    -0.070 A 
ATOM      7  C   LIG    1        0.002  -0.004   0.002  0.00  0.00    +0.000 A 
ATOM      8  C   LIG    1       -0.017   1.376   0.010  0.00  0.00    +0.050 A 
ATOM      9  C   LIG    1        1.183   2.086   0.002  0.00  0.00    -0.030 A 
ATOM     10  C   LIG    1        2.394   1.398  -0.013  0.00  0.00    +0.020 A 
ATOM     11  C   LIG    1        2.401   0.018  -0.021  0.00  0.00    +0.010 A 
BRANCH   6  12
ATOM     12  C   LIG    1        1.222  -2.189  -0.021  0.00  0.00    +0.020 C 
ATOM     13  C   LIG    1        1.935  -2.686  -1.280  0.00  0.00    +0.030 C 
BRANCH  12  15
ATOM     14  C   LIG    1        1.866  -4.225   1.275  0.00  0.00    +0.000 C 
ATOM     15  C   LIG    1        1.959  -2.699   1.218  0.00  0.00    +0.000 C 
ENDBRANCH  12  15
ENDBRANCH   6  12
ENDBRANCH   1   9
BRANCH   4  16
ATOM     16  N   LIG    1       -0.912   6.454   0.043  0.00  0.00    -0.610 N 
ATOM     17  H   LIG    1       -1.824   6.124   0.050  0.00  0.00    +0.430 HD
ATOM     18  C   LIG    1       -0.675   7.781   0.047  0.00  0.00    +0.610 C 
ATOM     19  O   LIG    1        0.469   8.195   0.038  0.00  0.00    -0.470 OA
BRANCH  18  20
ATOM     20  C   LIG    1       -1.799   8.727   0.062  0.00  0.00    -0.040 A 
ATOM     21  C   LIG    1       -1.682  10.080   0.067  0.00  0.00    -0.050 A 
ATOM     22  C   LIG    1       -3.047  10.605   0.083  0.00  0.00    -0.120 A 
ATOM     23  C   LIG    1       -3.596  11.890   0.095  0.00  0.00    +0.080 A 
ATOM     24  C   LIG    1       -4.953  12.048   0.108  0.00  0.00    +0.040 A 
ATOM     25  C   LIG    1       -5.790  10.941   0.111  0.00  0.00    +0.040 A 
ATOM     26  C   LIG    1       -5.268   9.663   0.100  0.00  0.00    +0.110 A 
ATOM     27  F   LIG    1       -6.095   8.594   0.102  0.00  0.00    -0.130 F 
ATOM     28  C   LIG    1       -3.889   9.478   0.085  0.00  0.00    +0.050 A 
ATOM     29  C   LIG    1       -0.404  10.879   0.059  0.00  0.00    +0.170 C 
ATOM     30  O   LIG    1       -3.104   8.383   0.067  0.00  0.00    -0.180 OA
ENDBRANCH  18  20
ENDBRANCH   4  16
TORSDOF 5
