REMARK  Name = ZINCtV000002I1N2.0
REMARK                            x       y       z     vdW  Elec       q    Type
REMARK                         _______ _______ _______ _____ _____    ______ ____
ROOT
ATOM      1  S   LIG    1        6.864   7.277   1.581  0.00  0.00    +0.090 S 
ENDROOT
BRANCH   1   5
ATOM      2  C   LIG    1        3.609   5.889  -0.002  0.00  0.00    +0.160 A 
ATOM      3  N   LIG    1        4.306   6.194  -1.057  0.00  0.00    -0.240 NA
ATOM      4  N   LIG    1        5.440   6.685  -0.697  0.00  0.00    -0.280 NA
ATOM      5  C   LIG    1        5.509   6.702   0.613  0.00  0.00    +0.140 A 
ATOM      6  O   LIG    1        4.351   6.199   1.080  0.00  0.00    -0.200 OA
BRANCH   2   7
ATOM      7  C   LIG    1        2.225   5.292   0.009  0.00  0.00    +0.380 C 
BRANCH   7   8
ATOM      8  O   LIG    1        2.322   3.866   0.000  0.00  0.00    -0.310 OA
BRANCH   8  13
ATOM      9  C   LIG    1       -2.513   0.977   0.019  0.00  0.00    +0.100 C 
ATOM     10  C   LIG    1       -1.220   1.750   0.017  0.00  0.00    -0.120 A 
ATOM     11  C   LIG    1       -0.013   1.076   0.008  0.00  0.00    +0.050 A 
ATOM     12  C   LIG    1        1.175   1.782   0.000  0.00  0.00    -0.010 A 
ATOM     13  C   LIG    1        1.155   3.169   0.008  0.00  0.00    +0.120 A 
ATOM     14  C   LIG    1       -0.057   3.844   0.023  0.00  0.00    -0.070 A 
ATOM     15  C   LIG    1       -1.242   3.133   0.031  0.00  0.00    +0.050 A 
ENDBRANCH   8  13
ENDBRANCH   7   8
ENDBRANCH   2   7
ENDBRANCH   1   5
BRANCH   1  16
ATOM     16  C   LIG    1        8.000   7.780   0.264  0.00  0.00    +0.130 C 
BRANCH  16  17
ATOM     17  C   LIG    1        9.313   8.206   0.868  0.00  0.00    -0.070 A 
ATOM     18  C   LIG    1        9.358   8.664   2.171  0.00  0.00    +0.020 A 
ATOM     19  C   LIG    1       10.563   9.055   2.725  0.00  0.00    +0.010 A 
ATOM     20  C   LIG    1       11.723   8.986   1.976  0.00  0.00    +0.020 A 
ATOM     21  C   LIG    1       11.678   8.526   0.673  0.00  0.00    +0.020 A 
ATOM     22  C   LIG    1       10.474   8.131   0.121  0.00  0.00    -0.060 A 
ATOM     23  C   LIG    1       10.426   7.625  -1.298  0.00  0.00    +0.100 C 
ENDBRANCH  16  17
BRANCH  16  24
ATOM     24  C   LIG    1        7.402   8.933  -0.502  0.00  0.00    -0.090 A 
ATOM     25  C   LIG    1        7.098  10.112   0.151  0.00  0.00    +0.020 A 
ATOM     26  C   LIG    1        6.553  11.171  -0.552  0.00  0.00    +0.000 A 
ATOM     27  C   LIG    1        6.305  11.046  -1.906  0.00  0.00    +0.010 A 
ATOM     28  C   LIG    1        6.606   9.865  -2.558  0.00  0.00    +0.000 A 
ATOM     29  C   LIG    1        7.154   8.808  -1.856  0.00  0.00    +0.050 A 
ENDBRANCH  16  24
ENDBRANCH   1  16
TORSDOF 7
