REMARK  Name = ZINCrH000004vBPu.0
REMARK                            x       y       z     vdW  Elec       q    Type
REMARK                         _______ _______ _______ _____ _____    ______ ____
ROOT
ATOM      1  O   LIG    1        3.517   1.697  -0.130  0.00  0.00    -0.520 OA
ATOM      2  C   LIG    1        2.478   1.075  -0.016  0.00  0.00    +0.560 C 
ATOM      3  N   LIG    1        2.505  -0.270   0.079  0.00  0.00    -0.600 N 
ATOM      4  C   LIG    1        1.256  -1.044   0.088  0.00  0.00    +0.270 C 
ATOM      5  C   LIG    1        1.331  -2.113  -1.007  0.00  0.00    +0.030 C 
ATOM      6  C   LIG    1        2.594  -2.954  -0.807  0.00  0.00    +0.040 C 
ATOM      7  C   LIG    1        3.829  -2.058  -0.922  0.00  0.00    +0.090 C 
ATOM      8  C   LIG    1        3.783  -0.989   0.168  0.00  0.00    +0.310 C 
ENDROOT
BRANCH   7   9
ATOM      9  C   LIG    1        5.074  -2.893  -0.758  0.00  0.00    +0.140 A 
ATOM     10  N   LIG    1        5.396  -3.602   0.293  0.00  0.00    -0.240 NA
ATOM     11  N   LIG    1        6.522  -4.195   0.103  0.00  0.00    -0.290 NA
ATOM     12  C   LIG    1        6.988  -3.883  -1.095  0.00  0.00    +0.190 A 
ATOM     13  C   LIG    1        8.153  -4.236  -1.804  0.00  0.00    +0.080 A 
ATOM     14  C   LIG    1        8.348  -3.734  -3.053  0.00  0.00    +0.060 A 
ATOM     15  C   LIG    1        7.389  -2.875  -3.617  0.00  0.00    +0.030 A 
ATOM     16  C   LIG    1        6.278  -2.546  -2.926  0.00  0.00    +0.230 A 
ATOM     17  N   LIG    1        6.069  -3.041  -1.673  0.00  0.00    -0.390 N 
ENDBRANCH   7   9
BRANCH   2  18
ATOM     18  C   LIG    1        1.187   1.793   0.019  0.00  0.00    -0.130 A 
ATOM     19  C   LIG    1        0.192   1.402   0.917  0.00  0.00    +0.080 A 
ATOM     20  C   LIG    1       -1.014   2.073   0.940  0.00  0.00    +0.030 A 
ATOM     21  C   LIG    1       -1.233   3.137   0.084  0.00  0.00    +0.090 A 
ATOM     22  C   LIG    1       -0.251   3.530  -0.808  0.00  0.00    -0.190 A 
ATOM     23  C   LIG    1        0.956   2.864  -0.846  0.00  0.00    +0.130 A 
BRANCH  22  24
ATOM     24  C   LIG    1       -0.502   4.686  -1.741  0.00  0.00    +0.510 C 
ATOM     25  F   LIG    1        0.709   5.329  -2.023  0.00  0.00    -0.170 F 
ATOM     26  F   LIG    1       -1.381   5.591  -1.137  0.00  0.00    -0.170 F 
ATOM     27  F   LIG    1       -1.065   4.212  -2.931  0.00  0.00    -0.170 F 
ENDBRANCH  22  24
ENDBRANCH   2  18
TORSDOF 3
