REMARK  Name = ZINCtV000002soRZ.0
REMARK                            x       y       z     vdW  Elec       q    Type
REMARK                         _______ _______ _______ _____ _____    ______ ____
ROOT
ATOM      1  C   LIG    1       -2.506   0.786  -0.066  0.00  0.00    +0.240 C 
ENDROOT
BRANCH   1   2
ATOM      2  C   LIG    1       -1.198   1.498   0.167  0.00  0.00    +0.520 C 
ATOM      3  N   LIG    1       -0.200   0.874   0.824  0.00  0.00    -0.720 N 
ATOM      4  H   LIG    1       -0.346  -0.004   1.208  0.00  0.00    +0.400 HD
ATOM      5  O   LIG    1       -1.044   2.631  -0.235  0.00  0.00    -0.520 OA
BRANCH   3   6
ATOM      6  C   LIG    1        1.108   1.522   0.953  0.00  0.00    +0.300 C 
BRANCH   6   7
ATOM      7  C   LIG    1        2.056   0.606   1.730  0.00  0.00    +0.060 C 
BRANCH   7   8
ATOM      8  S   LIG    1        3.675   1.407   1.890  0.00  0.00    -0.070 S 
BRANCH   8   9
ATOM      9  C   LIG    1        4.615   0.225   2.797  0.00  0.00    -0.070 A 
ATOM     10  C   LIG    1        4.032  -0.972   3.194  0.00  0.00    +0.000 A 
ATOM     11  C   LIG    1        4.772  -1.900   3.899  0.00  0.00    +0.070 A 
ATOM     12  C   LIG    1        6.092  -1.633   4.220  0.00  0.00    -0.100 A 
ATOM     13  C   LIG    1        6.675  -0.440   3.831  0.00  0.00    +0.070 A 
ATOM     14 BR   LIG    1        7.101  -2.903   5.194  0.00  0.00    -0.040 Br
ATOM     15  C   LIG    1        5.941   0.489   3.121  0.00  0.00    +0.050 A 
ENDBRANCH   8   9
ENDBRANCH   7   8
ENDBRANCH   6   7
ENDBRANCH   3   6
ENDBRANCH   1   2
BRANCH   1  17
ATOM     16  C   LIG    1       -1.981   0.844  -2.509  0.00  0.00    +0.030 C 
ATOM     17  C   LIG    1       -2.410  -0.051  -1.344  0.00  0.00    -0.020 C 
ATOM     18  C   LIG    1       -1.378  -1.163  -1.149  0.00  0.00    +0.030 C 
ENDBRANCH   1  17
BRANCH   1  19
ATOM     19  N   LIG    1       -3.580   1.772  -0.208  0.00  0.00    -0.720 N 
ATOM     20  H   LIG    1       -3.376   2.672  -0.506  0.00  0.00    +0.420 HD
BRANCH  19  21
ATOM     21  C   LIG    1       -4.899   1.415   0.086  0.00  0.00    +0.260 A 
ATOM     22  C   LIG    1       -5.193   0.127   0.513  0.00  0.00    -0.050 A 
ATOM     23  C   LIG    1       -6.498  -0.222   0.804  0.00  0.00    +0.130 A 
ATOM     24  C   LIG    1       -7.510   0.710   0.671  0.00  0.00    -0.230 A 
ATOM     25  C   LIG    1       -7.222   1.994   0.246  0.00  0.00    +0.140 A 
ATOM     26  C   LIG    1       -5.919   2.352  -0.042  0.00  0.00    -0.120 A 
ATOM     27 CL   LIG    1       -5.556   3.966  -0.568  0.00  0.00    -0.050 Cl
BRANCH  24  28
ATOM     28  C   LIG    1       -8.932   0.325   0.989  0.00  0.00    +0.520 C 
ATOM     29  F   LIG    1       -9.117  -1.037   0.727  0.00  0.00    -0.180 F 
ATOM     30  F   LIG    1       -9.807   1.075   0.196  0.00  0.00    -0.180 F 
ATOM     31  F   LIG    1       -9.193   0.579   2.340  0.00  0.00    -0.180 F 
ENDBRANCH  24  28
ENDBRANCH  19  21
ENDBRANCH   1  19
TORSDOF 9
