REMARK  Name = ZINCrD0000074gAB.0
REMARK                            x       y       z     vdW  Elec       q    Type
REMARK                         _______ _______ _______ _____ _____    ______ ____
ROOT
ATOM      1  N   LIG    1        0.739   6.113  -2.109  0.00  0.00    -0.690 N 
ATOM      2  H   LIG    1        0.662   6.963  -1.649  0.00  0.00    +0.400 HD
ATOM      3  C   LIG    1       -0.215   5.173  -1.954  0.00  0.00    +0.700 C 
ATOM      4  N   LIG    1       -1.331   5.456  -1.253  0.00  0.00    -0.620 N 
ATOM      5  C   LIG    1       -1.573   6.814  -0.746  0.00  0.00    +0.250 C 
ATOM      6  C   LIG    1       -1.845   6.737   0.759  0.00  0.00    +0.010 C 
ATOM      7  C   LIG    1       -2.991   5.756   1.017  0.00  0.00    +0.020 C 
ATOM      8  C   LIG    1       -2.592   4.362   0.527  0.00  0.00    +0.020 C 
ATOM      9  C   LIG    1       -2.329   4.412  -0.982  0.00  0.00    +0.320 C 
ATOM     10  O   LIG    1       -0.069   4.071  -2.446  0.00  0.00    -0.540 OA
ENDROOT
BRANCH   1  14
ATOM     11  C   LIG    1        4.023   5.362  -4.570  0.00  0.00    +0.090 A 
ATOM     12  C   LIG    1        3.491   6.643  -4.493  0.00  0.00    +0.010 A 
ATOM     13  C   LIG    1        2.404   6.891  -3.678  0.00  0.00    +0.010 A 
ATOM     14  C   LIG    1        1.843   5.860  -2.936  0.00  0.00    +0.140 A 
ATOM     15  C   LIG    1        2.378   4.581  -3.009  0.00  0.00    +0.050 A 
ATOM     16  C   LIG    1        3.462   4.332  -3.827  0.00  0.00    -0.020 A 
BRANCH  11  20
ATOM     17  C   LIG    1        7.161   2.003  -6.161  0.00  0.00    +0.050 C 
ATOM     18  C   LIG    1        6.690   3.454  -6.286  0.00  0.00    +0.160 C 
ATOM     19  C   LIG    1        5.523   3.697  -5.326  0.00  0.00    +0.170 C 
ATOM     20  N   LIG    1        5.125   5.111  -5.395  0.00  0.00    -0.490 N 
ATOM     21  C   LIG    1        6.253   5.987  -5.048  0.00  0.00    +0.160 C 
ATOM     22  C   LIG    1        7.413   5.721  -6.011  0.00  0.00    +0.220 C 
ATOM     23  O   LIG    1        7.766   4.336  -5.954  0.00  0.00    -0.380 OA
ENDBRANCH  11  20
ENDBRANCH   1  14
BRANCH   9  24
ATOM     24  C   LIG    1       -1.804   3.079  -1.447  0.00  0.00    -0.210 A 
ATOM     25  C   LIG    1       -2.387   2.269  -2.362  0.00  0.00    +0.230 A 
ATOM     26  N   LIG    1       -1.610   1.174  -2.497  0.00  0.00    -0.480 N 
ATOM     27  H   LIG    1       -1.782   0.421  -3.084  0.00  0.00    +0.440 HD
ATOM     28  N   LIG    1       -0.509   1.319  -1.643  0.00  0.00    -0.300 NA
ATOM     29  C   LIG    1       -0.626   2.461  -1.015  0.00  0.00    +0.280 A 
ENDBRANCH   9  24
TORSDOF 3
