REMARK  Name = ZINCvU0000000Jhx.0
REMARK                            x       y       z     vdW  Elec       q    Type
REMARK                         _______ _______ _______ _____ _____    ______ ____
ROOT
ATOM      1  C   LIG    1       -2.506   1.002   0.019  0.00  0.00    +0.220 A 
ATOM      2  N   LIG    1       -3.709   1.515   0.027  0.00  0.00    -0.370 NA
ATOM      3  O   LIG    1       -4.543   0.634   0.027  0.00  0.00    +0.090 OA
ATOM      4  C   LIG    1       -3.941  -0.566   0.018  0.00  0.00    +0.230 A 
ATOM      5  N   LIG    1       -2.640  -0.341   0.007  0.00  0.00    -0.460 NA
ENDROOT
BRANCH   1  10
ATOM      6  C   LIG    1       -0.048   3.848   0.023  0.00  0.00    -0.100 A 
ATOM      7  C   LIG    1        1.155   3.167   0.008  0.00  0.00    +0.060 A 
ATOM      8  C   LIG    1        1.172   1.783   0.000  0.00  0.00    +0.020 A 
ATOM      9  C   LIG    1       -0.013   1.076   0.008  0.00  0.00    +0.080 A 
ATOM     10  C   LIG    1       -1.228   1.757   0.017  0.00  0.00    -0.030 A 
ATOM     11  C   LIG    1       -1.240   3.150   0.031  0.00  0.00    +0.070 A 
BRANCH   6  12
ATOM     12  C   LIG    1       -0.059   5.355   0.032  0.00  0.00    +0.260 C 
BRANCH  12  13
ATOM     13  O   LIG    1       -0.076   5.838  -1.313  0.00  0.00    -0.300 OA
BRANCH  13  19
ATOM     14  F   LIG    1       -0.133   9.623  -4.177  0.00  0.00    -0.130 F 
ATOM     15  C   LIG    1       -0.117   9.098  -2.933  0.00  0.00    +0.140 A 
ATOM     16  C   LIG    1       -0.112   9.933  -1.828  0.00  0.00    -0.050 A 
ATOM     17  C   LIG    1       -0.096   9.397  -0.554  0.00  0.00    +0.090 A 
ATOM     18  C   LIG    1       -0.089   8.027  -0.379  0.00  0.00    -0.080 A 
ATOM     19  C   LIG    1       -0.088   7.187  -1.484  0.00  0.00    +0.160 A 
ATOM     20  C   LIG    1       -0.105   7.724  -2.762  0.00  0.00    -0.050 A 
ENDBRANCH  13  19
ENDBRANCH  12  13
ENDBRANCH   6  12
ENDBRANCH   1  10
BRANCH   4  21
ATOM     21  C   LIG    1       -4.606  -1.885   0.014  0.00  0.00    -0.030 A 
ATOM     22  C   LIG    1       -3.841  -3.053  -0.001  0.00  0.00    +0.090 A 
ATOM     23  C   LIG    1       -4.463  -4.282   0.001  0.00  0.00    +0.040 A 
ATOM     24  C   LIG    1       -5.855  -4.360   0.006  0.00  0.00    +0.010 A 
ATOM     25  C   LIG    1       -6.620  -3.194   0.015  0.00  0.00    +0.050 A 
ATOM     26  C   LIG    1       -6.001  -1.964   0.019  0.00  0.00    +0.070 A 
BRANCH  24  27
ATOM     27  C   LIG    1       -6.523  -5.685   0.003  0.00  0.00    +0.040 A 
ATOM     28  N   LIG    1       -7.813  -5.916   0.007  0.00  0.00    -0.350 NA
ATOM     29  O   LIG    1       -8.049  -7.102   0.003  0.00  0.00    +0.110 OA
ATOM     30  C   LIG    1       -6.926  -7.834  -0.005  0.00  0.00    +0.170 A 
ATOM     31  C   LIG    1       -5.893  -6.961  -0.011  0.00  0.00    -0.040 A 
ENDBRANCH  24  27
ENDBRANCH   4  21
TORSDOF 6
