REMARK  Name = ZINCrH000004m14q.0
REMARK                            x       y       z     vdW  Elec       q    Type
REMARK                         _______ _______ _______ _____ _____    ______ ____
ROOT
ATOM      1  N   LIG    1       -1.857   3.053   3.779  0.00  0.00    -0.660 N 
ATOM      2  H   LIG    1       -1.137   3.192   4.415  0.00  0.00    +0.410 HD
ATOM      3  C   LIG    1       -1.597   3.056   2.456  0.00  0.00    +0.530 C 
ATOM      4  O   LIG    1       -2.475   2.783   1.665  0.00  0.00    -0.500 OA
ENDROOT
BRANCH   3   5
ATOM      5  C   LIG    1       -0.215   3.398   1.960  0.00  0.00    +0.220 C 
ATOM      6  C   LIG    1        0.275   2.303   1.008  0.00  0.00    +0.040 C 
ATOM      7  C   LIG    1        1.615   2.722   0.402  0.00  0.00    +0.030 C 
ATOM      8  C   LIG    1        1.433   4.012  -0.401  0.00  0.00    +0.010 C 
ATOM      9  C   LIG    1        0.955   5.127   0.535  0.00  0.00    +0.270 C 
ATOM     10  N   LIG    1       -0.256   4.674   1.232  0.00  0.00    -0.600 N 
ATOM     11  C   LIG    1       -1.382   5.413   1.204  0.00  0.00    +0.590 C 
ATOM     12  O   LIG    1       -2.392   5.004   1.746  0.00  0.00    -0.490 OA
BRANCH  11  13
ATOM     13  C   LIG    1       -1.391   6.710   0.521  0.00  0.00    -0.260 A 
ATOM     14  C   LIG    1       -1.825   7.888   1.061  0.00  0.00    +0.090 A 
ATOM     15  C   LIG    1       -1.721   8.953   0.198  0.00  0.00    +0.010 A 
ATOM     16  C   LIG    1       -1.219   8.660  -1.007  0.00  0.00    -0.070 A 
ATOM     17  S   LIG    1       -0.836   7.001  -1.122  0.00  0.00    +0.220 S 
ENDBRANCH  11  13
ENDBRANCH   3   5
BRANCH   1  21
ATOM     18  C   LIG    1       -5.752   2.441   5.143  0.00  0.00    +0.080 A 
ATOM     19  C   LIG    1       -4.676   2.175   5.974  0.00  0.00    -0.020 A 
ATOM     20  C   LIG    1       -3.386   2.378   5.522  0.00  0.00    -0.120 A 
ATOM     21  C   LIG    1       -3.165   2.848   4.235  0.00  0.00    +0.160 A 
ATOM     22  C   LIG    1       -4.242   3.121   3.401  0.00  0.00    +0.010 A 
ATOM     23  C   LIG    1       -2.217   2.087   6.428  0.00  0.00    +0.090 C 
ATOM     24  C   LIG    1       -5.535   2.913   3.852  0.00  0.00    +0.110 A 
BRANCH  18  26
ATOM     25  C   LIG    1       -7.172   1.754   6.924  0.00  0.00    +0.230 C 
ATOM     26  O   LIG    1       -7.022   2.240   5.589  0.00  0.00    -0.310 OA
ENDBRANCH  18  26
BRANCH  24  27
ATOM     27  O   LIG    1       -6.590   3.174   3.035  0.00  0.00    -0.310 OA
ATOM     28  C   LIG    1       -6.292   3.656   1.724  0.00  0.00    +0.250 C 
ENDBRANCH  24  27
ENDBRANCH   1  21
TORSDOF 5
