REMARK  Name = ZINCpe000000TzXk.0
REMARK                            x       y       z     vdW  Elec       q    Type
REMARK                         _______ _______ _______ _____ _____    ______ ____
ROOT
ATOM      1  N   LIG    1       -2.264   0.217   1.287  0.00  0.00    -0.720 N 
ATOM      2  H   LIG    1       -1.825  -0.310   0.601  0.00  0.00    +0.410 HD
ATOM      3  C   LIG    1       -2.914  -0.396   2.295  0.00  0.00    +0.500 C 
ATOM      4  O   LIG    1       -3.463   0.263   3.152  0.00  0.00    -0.520 OA
ENDROOT
BRANCH   1   5
ATOM      5  C   LIG    1       -2.220   1.680   1.226  0.00  0.00    +0.310 C 
BRANCH   5   6
ATOM      6  C   LIG    1       -1.321   2.115   0.067  0.00  0.00    -0.130 C 
ATOM      7  C   LIG    1       -1.896   1.783  -1.320  0.00  0.00    +0.070 C 
ATOM      8  C   LIG    1       -2.591   3.155  -1.274  0.00  0.00    +0.030 C 
ATOM      9  C   LIG    1       -1.477   3.598  -0.310  0.00  0.00    +0.050 C 
BRANCH   6  12
ATOM     10  N   LIG    1        0.853   2.206   1.243  0.00  0.00    -0.730 N 
ATOM     11  H   LIG    1        0.489   2.912   1.800  0.00  0.00    +0.400 HD
ATOM     12  C   LIG    1        0.113   1.686   0.244  0.00  0.00    +0.530 C 
ATOM     13  O   LIG    1        0.598   0.868  -0.508  0.00  0.00    -0.530 OA
BRANCH  10  15
ATOM     14  C   LIG    1        2.825   2.458   2.667  0.00  0.00    +0.030 C 
ATOM     15  C   LIG    1        2.208   1.705   1.487  0.00  0.00    +0.250 C 
ENDBRANCH  10  15
ENDBRANCH   6  12
ENDBRANCH   5   6
ENDBRANCH   1   5
BRANCH   3  16
ATOM     16  C   LIG    1       -2.960  -1.901   2.358  0.00  0.00    +0.340 C 
BRANCH  16  17
ATOM     17  N   LIG    1       -3.720  -2.318   3.538  0.00  0.00    -0.530 N 
ATOM     18  C   LIG    1       -3.076  -2.519   4.718  0.00  0.00    +0.580 A 
ATOM     19  N   LIG    1       -3.679  -2.883   5.808  0.00  0.00    -0.520 NA
ATOM     20  C   LIG    1       -5.018  -3.103   5.841  0.00  0.00    +0.150 A 
ATOM     21  C   LIG    1       -5.666  -3.500   7.012  0.00  0.00    +0.030 A 
ATOM     22  C   LIG    1       -7.027  -3.712   6.999  0.00  0.00    +0.070 A 
ATOM     23  C   LIG    1       -7.763  -3.537   5.836  0.00  0.00    -0.010 A 
ATOM     24  C   LIG    1       -7.146  -3.144   4.668  0.00  0.00    +0.100 A 
ATOM     25  C   LIG    1       -5.770  -2.924   4.659  0.00  0.00    -0.190 A 
ATOM     26  C   LIG    1       -5.057  -2.506   3.443  0.00  0.00    +0.550 A 
ATOM     27  O   LIG    1       -5.646  -2.334   2.392  0.00  0.00    -0.510 OA
ENDBRANCH  16  17
ENDBRANCH   3  16
TORSDOF 6
