REMARK  Name = ZINCrH000004n5KD.0
REMARK                            x       y       z     vdW  Elec       q    Type
REMARK                         _______ _______ _______ _____ _____    ______ ____
ROOT
ATOM      1  C   LIG    1       -0.699  -0.573  -2.308  0.00  0.00    +0.210 C 
ENDROOT
BRANCH   1   6
ATOM      2  C   LIG    1       -0.286   0.485  -0.161  0.00  0.00    +0.170 C 
ATOM      3  C   LIG    1       -0.771   0.201   1.272  0.00  0.00    +0.030 C 
ATOM      4  C   LIG    1       -2.112  -0.549   1.103  0.00  0.00    +0.020 C 
ATOM      5  C   LIG    1       -2.008  -1.126  -0.331  0.00  0.00    +0.180 C 
ATOM      6  N   LIG    1       -1.313  -0.049  -1.081  0.00  0.00    -0.490 NA
BRANCH   2  10
ATOM      7  C   LIG    1        0.144   4.697  -0.744  0.00  0.00    +0.130 A 
ATOM      8  C   LIG    1        1.262   3.910  -0.508  0.00  0.00    -0.020 A 
ATOM      9  C   LIG    1        1.121   2.549  -0.319  0.00  0.00    +0.050 A 
ATOM     10  C   LIG    1       -0.134   1.970  -0.366  0.00  0.00    -0.110 A 
ATOM     11  C   LIG    1       -1.249   2.751  -0.608  0.00  0.00    +0.090 A 
ATOM     12  C   LIG    1       -1.114   4.114  -0.791  0.00  0.00    -0.080 A 
BRANCH   7  14
ATOM     13  C   LIG    1       -0.914   6.783  -1.168  0.00  0.00    +0.250 C 
ATOM     14  O   LIG    1        0.281   6.036  -0.929  0.00  0.00    -0.320 OA
ENDBRANCH   7  14
ENDBRANCH   2  10
ENDBRANCH   1   6
BRANCH   1  15
ATOM     15  C   LIG    1       -1.734  -1.323  -3.107  0.00  0.00    +0.520 C 
ATOM     16  N   LIG    1       -1.396  -1.895  -4.279  0.00  0.00    -0.570 N 
ATOM     17  O   LIG    1       -2.871  -1.413  -2.693  0.00  0.00    -0.500 OA
BRANCH  16  18
ATOM     18  C   LIG    1       -2.328  -2.677  -4.971  0.00  0.00    +0.140 A 
ATOM     19  C   LIG    1       -2.741  -3.895  -4.446  0.00  0.00    +0.010 A 
ATOM     20  C   LIG    1       -3.664  -4.662  -5.129  0.00  0.00    +0.020 A 
ATOM     21  C   LIG    1       -4.170  -4.223  -6.339  0.00  0.00    +0.010 A 
ATOM     22  C   LIG    1       -3.758  -3.013  -6.866  0.00  0.00    +0.020 A 
ATOM     23  C   LIG    1       -2.838  -2.239  -6.186  0.00  0.00    +0.000 A 
ENDBRANCH  16  18
BRANCH  16  24
ATOM     24  C   LIG    1       -0.053  -1.698  -4.830  0.00  0.00    +0.310 C 
BRANCH  24  25
ATOM     25  C   LIG    1        0.875  -2.802  -4.318  0.00  0.00    +0.180 C 
BRANCH  25  26
ATOM     26  C   LIG    1        2.225  -2.604  -4.871  0.00  0.00    +0.200 C 
ATOM     27  N   LIG    1        3.266  -2.452  -5.298  0.00  0.00    -0.420 NA
ENDBRANCH  25  26
ENDBRANCH  24  25
ENDBRANCH  16  24
ENDBRANCH   1  15
TORSDOF 8
