REMARK  Name = ZINCrH000004v5Tq.0
REMARK                            x       y       z     vdW  Elec       q    Type
REMARK                         _______ _______ _______ _____ _____    ______ ____
ROOT
ATOM      1  C   LIG    1        1.185  -2.134  -0.234  0.00  0.00    -0.160 A 
ATOM      2  C   LIG    1       -0.015  -2.848  -0.220  0.00  0.00    +0.130 A 
ATOM      3  C   LIG    1        0.002  -4.222  -0.337  0.00  0.00    +0.030 A 
ATOM      4  C   LIG    1        1.206  -4.895  -0.457  0.00  0.00    +0.080 A 
ATOM      5  C   LIG    1        2.400  -4.192  -0.465  0.00  0.00    -0.680 A 
ATOM      6 CL   LIG    1        1.220  -6.625  -0.596  0.00  0.00    -0.020 Cl
ATOM      7  C   LIG    1        2.396  -2.818  -0.355  0.00  0.00    +0.230 A 
ENDROOT
BRANCH   1   9
ATOM      8  O   LIG    1        2.219  -0.043  -0.121  0.00  0.00    -0.500 OA
ATOM      9  C   LIG    1        1.173  -0.661  -0.114  0.00  0.00    +0.570 C 
ATOM     10  N   LIG    1        0.002  -0.004   0.002  0.00  0.00    -0.660 N 
ATOM     11  H   LIG    1       -0.827  -0.501   0.088  0.00  0.00    +0.420 HD
BRANCH  10  12
ATOM     12  C   LIG    1       -0.018   1.397  -0.002  0.00  0.00    +0.140 A 
ATOM     13  C   LIG    1        1.006   2.105  -0.616  0.00  0.00    +0.080 A 
ATOM     14  C   LIG    1        0.985   3.486  -0.619  0.00  0.00    +0.050 A 
ATOM     15  C   LIG    1       -0.055   4.167  -0.011  0.00  0.00    +0.080 A 
ATOM     16  C   LIG    1       -1.081   3.463   0.604  0.00  0.00    +0.060 A 
ATOM     17  F   LIG    1       -2.096   4.129   1.197  0.00  0.00    -0.110 F 
ATOM     18  F   LIG    1       -0.073   5.518  -0.016  0.00  0.00    -0.120 F 
ATOM     19  C   LIG    1       -1.067   2.079   0.605  0.00  0.00    +0.060 A 
ATOM     20  F   LIG    1       -2.067   1.393   1.199  0.00  0.00    -0.120 F 
ENDBRANCH  10  12
ENDBRANCH   1   9
BRANCH   5  21
ATOM     21  S   LIG    1        3.928  -5.057  -0.617  0.00  0.00    +2.710 S 
ATOM     22  O   LIG    1        4.953  -4.075  -0.559  0.00  0.00    -0.940 OA
ATOM     23  O   LIG    1        3.774  -5.956  -1.707  0.00  0.00    -0.930 OA
BRANCH  21  24
ATOM     24  N   LIG    1        4.099  -5.992   0.739  0.00  0.00    -1.010 NA
ATOM     25  C   LIG    1        4.756  -5.579   1.987  0.00  0.00    +0.270 C 
ATOM     26  C   LIG    1        4.698  -6.780   2.955  0.00  0.00    +0.030 C 
ATOM     27  C   LIG    1        4.521  -7.988   1.997  0.00  0.00    +0.040 C 
ATOM     28  C   LIG    1        3.622  -7.379   0.892  0.00  0.00    +0.270 C 
ENDBRANCH  21  24
ENDBRANCH   5  21
TORSDOF 4
