REMARK  Name = ZINCpk00000Fal6S.0
REMARK                            x       y       z     vdW  Elec       q    Type
REMARK                         _______ _______ _______ _____ _____    ______ ____
ROOT
ATOM      1  C   LIG    1       -1.629   3.164  -6.837  0.00  0.00    +0.260 C 
ATOM      2  C   LIG    1       -1.199   2.164  -7.927  0.00  0.00    +0.020 C 
ATOM      3  C   LIG    1       -0.974   0.811  -7.221  0.00  0.00    +0.020 C 
ATOM      4  C   LIG    1       -0.681   1.195  -5.749  0.00  0.00    +0.020 C 
ATOM      5  C   LIG    1       -1.645   2.382  -5.507  0.00  0.00    +0.000 C 
ENDROOT
BRANCH   1   8
ATOM      6  O   LIG    1       -1.757   5.415  -8.316  0.00  0.00    -0.510 OA
ATOM      7  C   LIG    1       -0.820   5.351  -7.544  0.00  0.00    +0.640 C 
ATOM      8  N   LIG    1       -0.666   4.266  -6.760  0.00  0.00    -0.720 N 
ATOM      9  H   LIG    1        0.081   4.214  -6.144  0.00  0.00    +0.400 HD
BRANCH   7  10
ATOM     10  C   LIG    1        0.121   6.428  -7.469  0.00  0.00    -0.230 C 
ATOM     11  C   LIG    1        0.892   7.311  -7.407  0.00  0.00    -0.040 C 
BRANCH  11  12
ATOM     12  C   LIG    1        1.860   8.418  -7.330  0.00  0.00    +0.070 C 
ATOM     13  C   LIG    1        1.370   9.743  -6.744  0.00  0.00    +0.050 C 
ATOM     14  C   LIG    1        1.631   9.621  -8.246  0.00  0.00    +0.050 C 
ENDBRANCH  11  12
ENDBRANCH   7  10
ENDBRANCH   1   8
BRANCH   5  15
ATOM     15  C   LIG    1       -1.135   3.261  -4.363  0.00  0.00    +0.330 C 
BRANCH  15  16
ATOM     16  N   LIG    1       -1.230   2.524  -3.100  0.00  0.00    -0.280 N 
ATOM     17  C   LIG    1       -0.215   2.300  -2.235  0.00  0.00    +0.140 A 
ATOM     18  C   LIG    1       -0.742   1.585  -1.213  0.00  0.00    -0.020 A 
ATOM     19  N   LIG    1       -2.035   1.404  -1.503  0.00  0.00    -0.270 NA
ATOM     20  N   LIG    1       -2.294   1.977  -2.625  0.00  0.00    -0.070 NA
BRANCH  18  21
ATOM     21  C   LIG    1       -0.013   1.086   0.008  0.00  0.00    +0.130 C 
BRANCH  21  22
ATOM     22  C   LIG    1       -0.729   1.579   1.267  0.00  0.00    +0.120 C 
ATOM     23  C   LIG    1       -0.477   3.064   1.577  0.00  0.00    -0.010 C 
ATOM     24  C   LIG    1       -0.388   2.657   3.059  0.00  0.00    +0.020 C 
ATOM     25  C   LIG    1        0.023   1.258   2.569  0.00  0.00    +0.040 C 
BRANCH  22  26
ATOM     26  O   LIG    1       -2.110   1.214   1.299  0.00  0.00    -0.540 OA
ATOM     27  H   LIG    1       -2.594   1.435   0.491  0.00  0.00    +0.390 HD
ENDBRANCH  22  26
ENDBRANCH  21  22
ENDBRANCH  18  21
ENDBRANCH  15  16
ENDBRANCH   5  15
TORSDOF 8
