REMARK  Name = ZINCpk00000KfKoO.0
REMARK                            x       y       z     vdW  Elec       q    Type
REMARK                         _______ _______ _______ _____ _____    ______ ____
ROOT
ATOM      1  C   LIG    1       -3.474   8.754   0.075  0.00  0.00    +0.050 C 
ATOM      2  C   LIG    1       -4.718   7.865   0.021  0.00  0.00    +0.240 C 
ATOM      3  O   LIG    1       -4.320   6.492  -0.027  0.00  0.00    -0.280 OA
ATOM      4  C   LIG    1       -3.805   6.046  -1.201  0.00  0.00    +0.140 A 
ATOM      5  C   LIG    1       -4.264   6.584  -2.402  0.00  0.00    +0.090 A 
ATOM      6  N   LIG    1       -5.255   7.577  -2.373  0.00  0.00    -0.660 N 
ATOM      7  H   LIG    1       -5.749   7.802  -3.176  0.00  0.00    +0.420 HD
ATOM      8  C   LIG    1       -3.748   6.134  -3.605  0.00  0.00    +0.040 A 
ATOM      9  C   LIG    1       -2.771   5.153  -3.620  0.00  0.00    +0.030 A 
ATOM     10  C   LIG    1       -2.303   4.616  -2.440  0.00  0.00    +0.060 A 
ATOM     11  C   LIG    1       -2.814   5.060  -1.216  0.00  0.00    -0.130 A 
ATOM     12  C   LIG    1       -5.522   8.202  -1.209  0.00  0.00    +0.500 C 
ATOM     13  O   LIG    1       -6.398   9.039  -1.153  0.00  0.00    -0.500 OA
ENDROOT
BRANCH  11  14
ATOM     14  C   LIG    1       -2.316   4.487   0.049  0.00  0.00    +0.570 C 
ATOM     15  N   LIG    1       -2.029   3.172   0.126  0.00  0.00    -0.610 N 
ATOM     16  C   LIG    1       -2.308   2.277  -1.006  0.00  0.00    +0.270 C 
ATOM     17  C   LIG    1       -3.159   1.104  -0.508  0.00  0.00    +0.040 C 
ATOM     18  C   LIG    1       -2.450   0.428   0.668  0.00  0.00    +0.030 C 
ATOM     19  C   LIG    1       -2.292   1.430   1.814  0.00  0.00    +0.260 C 
ATOM     20  C   LIG    1       -1.431   2.607   1.343  0.00  0.00    +0.300 C 
ATOM     21  O   LIG    1       -2.164   5.200   1.021  0.00  0.00    -0.510 OA
BRANCH  19  22
ATOM     22  N   LIG    1       -1.642   0.774   2.951  0.00  0.00    -0.370 N 
ATOM     23  C   LIG    1       -0.321   0.619   3.145  0.00  0.00    +0.470 A 
ATOM     24  N   LIG    1       -0.147  -0.016   4.275  0.00  0.00    -0.540 NA
ATOM     25  C   LIG    1       -1.329  -0.282   4.830  0.00  0.00    +0.420 A 
ATOM     26  N   LIG    1       -2.275   0.186   4.058  0.00  0.00    -0.320 NA
ENDBRANCH  19  22
ENDBRANCH  11  14
TORSDOF 2
