REMARK  Name = ZINCnE000001Fphm.0
REMARK                            x       y       z     vdW  Elec       q    Type
REMARK                         _______ _______ _______ _____ _____    ______ ____
ROOT
ATOM      1  C   LIG    1        3.642  -2.005   0.061  0.00  0.00    +0.540 C 
ATOM      2  N   LIG    1        3.622  -0.661  -0.035  0.00  0.00    -0.660 N 
ATOM      3  H   LIG    1        4.453  -0.169  -0.121  0.00  0.00    +0.420 HD
ATOM      4  O   LIG    1        2.601  -2.628   0.067  0.00  0.00    -0.500 OA
ENDROOT
BRANCH   2   5
ATOM      5  C   LIG    1        2.401   0.025  -0.009  0.00  0.00    +0.130 A 
ATOM      6  C   LIG    1        1.296  -0.545   0.605  0.00  0.00    +0.060 A 
ATOM      7  C   LIG    1        0.092   0.134   0.630  0.00  0.00    +0.000 A 
ATOM      8  C   LIG    1       -0.014   1.381   0.043  0.00  0.00    +0.020 A 
ATOM      9  C   LIG    1        1.083   1.956  -0.571  0.00  0.00    -0.060 A 
ATOM     10  C   LIG    1        2.293   1.282  -0.600  0.00  0.00    +0.100 A 
BRANCH  10  11
ATOM     11  O   LIG    1        3.373   1.846  -1.204  0.00  0.00    -0.320 OA
BRANCH  11  12
ATOM     12  C   LIG    1        3.189   3.137  -1.789  0.00  0.00    +0.180 C 
ATOM     13  C   LIG    1        4.504   3.605  -2.415  0.00  0.00    +0.070 C 
ENDBRANCH  11  12
ENDBRANCH  10  11
ENDBRANCH   2   5
BRANCH   1  14
ATOM     14  C   LIG    1        4.957  -2.734   0.159  0.00  0.00    +0.100 C 
BRANCH  14  15
ATOM     15  S   LIG    1        4.652  -4.519   0.273  0.00  0.00    +0.030 S 
BRANCH  15  20
ATOM     16  N   LIG    1        9.429  -7.479   0.653  0.00  0.00    -0.640 NA
ATOM     17  C   LIG    1        8.462  -6.598   0.556  0.00  0.00    +0.340 A 
ATOM     18  N   LIG    1        8.574  -5.241   0.465  0.00  0.00    -0.510 NA
ATOM     19  N   LIG    1        7.395  -4.537   0.373  0.00  0.00    -0.250 NA
ATOM     20  C   LIG    1        6.277  -5.192   0.379  0.00  0.00    -0.080 A 
ATOM     21  S   LIG    1        6.715  -6.904   0.522  0.00  0.00    -0.100 S 
BRANCH  16  22
ATOM     22  C   LIG    1       10.825  -7.034   0.672  0.00  0.00    +0.170 C 
BRANCH  22  24
ATOM     23  C   LIG    1       12.906  -6.903   2.049  0.00  0.00    +0.000 C 
ATOM     24  C   LIG    1       11.448  -7.367   2.029  0.00  0.00    -0.010 C 
ENDBRANCH  22  24
ENDBRANCH  16  22
ENDBRANCH  15  20
ENDBRANCH  14  15
ENDBRANCH   1  14
TORSDOF 8
