REMARK  Name = ZINCpk000000nkRh.0
REMARK                            x       y       z     vdW  Elec       q    Type
REMARK                         _______ _______ _______ _____ _____    ______ ____
ROOT
ATOM      1  C   LIG    1       -4.083  -4.213   1.794  0.00  0.00    +0.560 C 
ATOM      2  N   LIG    1       -2.936  -3.561   1.519  0.00  0.00    -0.720 N 
ATOM      3  H   LIG    1       -2.082  -3.983   1.705  0.00  0.00    +0.410 HD
ATOM      4  O   LIG    1       -5.153  -3.685   1.561  0.00  0.00    -0.540 OA
ENDROOT
BRANCH   1   8
ATOM      5  C   LIG    1       -3.961  -8.113   3.473  0.00  0.00    -0.040 A 
ATOM      6  C   LIG    1       -5.180  -7.514   3.209  0.00  0.00    +0.010 A 
ATOM      7  C   LIG    1       -5.227  -6.248   2.664  0.00  0.00    +0.090 A 
ATOM      8  C   LIG    1       -4.041  -5.570   2.378  0.00  0.00    -0.140 A 
ATOM      9  C   LIG    1       -2.814  -6.182   2.641  0.00  0.00    +0.050 A 
ATOM     10  C   LIG    1       -2.781  -7.446   3.192  0.00  0.00    +0.000 A 
BRANCH   5  12
ATOM     11  C   LIG    1       -4.618 -10.479   3.127  0.00  0.00    +0.040 C 
ATOM     12  C   LIG    1       -3.918  -9.496   4.068  0.00  0.00    -0.040 C 
ATOM     13  C   LIG    1       -4.630  -9.492   5.422  0.00  0.00    +0.040 C 
ATOM     14  C   LIG    1       -2.461  -9.924   4.260  0.00  0.00    +0.030 C 
ENDBRANCH   5  12
ENDBRANCH   1   8
BRANCH   2  15
ATOM     15  C   LIG    1       -2.978  -2.216   0.940  0.00  0.00    +0.300 C 
BRANCH  15  16
ATOM     16  C   LIG    1       -1.573  -1.715   0.731  0.00  0.00    +0.510 C 
ATOM     17  N   LIG    1       -1.365  -0.491   0.205  0.00  0.00    -0.720 N 
ATOM     18  H   LIG    1       -2.120   0.066  -0.039  0.00  0.00    +0.410 HD
ATOM     19  O   LIG    1       -0.628  -2.412   1.036  0.00  0.00    -0.530 OA
BRANCH  17  20
ATOM     20  C   LIG    1        0.002  -0.004   0.002  0.00  0.00    +0.230 C 
ATOM     21  C   LIG    1       -0.018   1.514   0.010  0.00  0.00    +0.020 C 
ATOM     22  C   LIG    1        1.403   2.078  -0.000  0.00  0.00    +0.290 C 
ATOM     23  N   LIG    1        1.859   2.179  -1.396  0.00  0.00    -0.730 N 
ATOM     24  H   LIG    1        1.941   3.051  -1.814  0.00  0.00    +0.400 HD
ATOM     25  C   LIG    1        2.161   1.081  -2.090  0.00  0.00    +0.520 C 
ATOM     26  C   LIG    1        2.029  -0.285  -1.449  0.00  0.00    +0.050 C 
ATOM     27  O   LIG    1        2.541   1.176  -3.237  0.00  0.00    -0.550 OA
ATOM     28  C   LIG    1        0.541  -0.603  -1.285  0.00  0.00    +0.030 C 
ENDBRANCH  17  20
ENDBRANCH  15  16
ENDBRANCH   2  15
TORSDOF 5
