REMARK  Name = ZINCrD000000fCsC.0
REMARK                            x       y       z     vdW  Elec       q    Type
REMARK                         _______ _______ _______ _____ _____    ______ ____
ROOT
ATOM      1  N   LIG    1        4.232  -2.580   0.396  0.00  0.00    -0.730 N 
ATOM      2  H   LIG    1        3.544  -3.247   0.547  0.00  0.00    +0.410 HD
ENDROOT
BRANCH   1  10
ATOM      3  C   LIG    1        2.822   5.252   0.831  0.00  0.00    +0.110 C 
ATOM      4  C   LIG    1        3.508   3.913   0.734  0.00  0.00    +0.520 C 
ATOM      5  N   LIG    1        2.795   2.779   0.879  0.00  0.00    -0.550 N 
ATOM      6  C   LIG    1        1.372   2.719   1.224  0.00  0.00    +0.260 C 
ATOM      7  C   LIG    1        1.031   1.220   1.270  0.00  0.00    +0.090 C 
ATOM      8  C   LIG    1        2.330   0.522   0.936  0.00  0.00    -0.080 A 
ATOM      9  C   LIG    1        2.633  -0.821   0.828  0.00  0.00    -0.020 A 
ATOM     10  C   LIG    1        3.923  -1.220   0.504  0.00  0.00    +0.200 A 
ATOM     11  C   LIG    1        4.905  -0.262   0.289  0.00  0.00    -0.050 A 
ATOM     12  C   LIG    1        4.601   1.078   0.397  0.00  0.00    +0.060 A 
ATOM     13  C   LIG    1        3.305   1.484   0.722  0.00  0.00    +0.080 A 
ATOM     14  O   LIG    1        4.701   3.857   0.525  0.00  0.00    -0.530 OA
ENDBRANCH   1  10
BRANCH   1  15
ATOM     15  C   LIG    1        5.594  -2.996   0.053  0.00  0.00    +0.240 C 
ATOM     16  C   LIG    1        5.764  -2.987  -1.467  0.00  0.00    +0.060 C 
BRANCH  15  17
ATOM     17  C   LIG    1        5.840  -4.388   0.578  0.00  0.00    +0.530 C 
ATOM     18  N   LIG    1        7.081  -4.913   0.537  0.00  0.00    -0.540 N 
ATOM     19  C   LIG    1        8.224  -4.238   0.097  0.00  0.00    +0.140 A 
ATOM     20  C   LIG    1        8.352  -2.933  -0.379  0.00  0.00    -0.030 A 
ATOM     21  C   LIG    1        9.584  -2.452  -0.768  0.00  0.00    +0.040 A 
ATOM     22  C   LIG    1       10.703  -3.260  -0.688  0.00  0.00    -0.010 A 
ATOM     23  C   LIG    1       10.584  -4.555  -0.218  0.00  0.00    +0.060 A 
ATOM     24  C   LIG    1        9.351  -5.041   0.173  0.00  0.00    -0.130 A 
ATOM     25  C   LIG    1        8.945  -6.392   0.716  0.00  0.00    +0.100 C 
ATOM     26  C   LIG    1        7.430  -6.274   0.954  0.00  0.00    +0.220 C 
ATOM     27  C   LIG    1        7.106  -6.476   2.435  0.00  0.00    +0.050 C 
ATOM     28  O   LIG    1        4.922  -5.035   1.036  0.00  0.00    -0.510 OA
ENDBRANCH  15  17
ENDBRANCH   1  15
TORSDOF 3
