REMARK  Name = ZINCpe000027pH6F.0
REMARK                            x       y       z     vdW  Elec       q    Type
REMARK                         _______ _______ _______ _____ _____    ______ ____
ROOT
ATOM      1  C   LIG    1        1.251  -2.155  -0.022  0.00  0.00    +0.560 C 
ATOM      2  N   LIG    1        0.097  -2.852  -0.015  0.00  0.00    -0.710 N 
ATOM      3  H   LIG    1       -0.752  -2.384  -0.004  0.00  0.00    +0.400 HD
ATOM      4  O   LIG    1        2.316  -2.742  -0.035  0.00  0.00    -0.520 OA
ENDROOT
BRANCH   1   9
ATOM      5  C   LIG    1       -0.017   1.388   0.010  0.00  0.00    -0.040 A 
ATOM      6  C   LIG    1        1.184   2.103   0.002  0.00  0.00    +0.110 A 
ATOM      7  C   LIG    1        2.390   1.436  -0.013  0.00  0.00    -0.080 A 
ATOM      8  C   LIG    1        2.420   0.048  -0.021  0.00  0.00    +0.200 A 
ATOM      9  C   LIG    1        1.222  -0.680  -0.013  0.00  0.00    -0.170 A 
ATOM     10  C   LIG    1        0.002  -0.004   0.002  0.00  0.00    +0.110 A 
BRANCH   5  12
ATOM     11  C   LIG    1       -2.291   2.660   0.027  0.00  0.00    +0.050 C 
ATOM     12  C   LIG    1       -1.267   2.087   0.019  0.00  0.00    -0.150 C 
ENDBRANCH   5  12
BRANCH   8  13
ATOM     13  O   LIG    1        3.610  -0.604  -0.035  0.00  0.00    -0.280 OA
ATOM     14  C   LIG    1        4.791   0.201  -0.042  0.00  0.00    +0.250 C 
ENDBRANCH   8  13
ENDBRANCH   1   9
BRANCH   2  15
ATOM     15  C   LIG    1        0.126  -4.317  -0.024  0.00  0.00    +0.280 C 
BRANCH  15  16
ATOM     16  C   LIG    1       -1.306  -4.855  -0.013  0.00  0.00    -0.010 C 
ATOM     17  C   LIG    1       -1.291  -6.394   0.087  0.00  0.00    +0.050 C 
ATOM     18  C   LIG    1       -2.469  -6.844  -0.814  0.00  0.00    +0.240 C 
ATOM     19  C   LIG    1       -2.398  -5.846  -1.996  0.00  0.00    -0.010 C 
ATOM     20  C   LIG    1       -2.010  -4.506  -1.337  0.00  0.00    +0.160 C 
BRANCH  18  21
ATOM     21  N   LIG    1       -3.743  -6.716  -0.102  0.00  0.00    -0.720 N 
ATOM     22  H   LIG    1       -3.810  -6.136   0.672  0.00  0.00    +0.400 HD
ATOM     23  C   LIG    1       -4.823  -7.404  -0.524  0.00  0.00    +0.540 C 
ATOM     24  O   LIG    1       -4.739  -8.131  -1.495  0.00  0.00    -0.540 OA
BRANCH  23  25
ATOM     25  C   LIG    1       -6.102  -7.276   0.191  0.00  0.00    -0.090 C 
ATOM     26  C   LIG    1       -7.167  -7.955  -0.226  0.00  0.00    +0.140 C 
ENDBRANCH  23  25
ENDBRANCH  18  21
BRANCH  20  27
ATOM     27  O   LIG    1       -1.120  -3.781  -2.188  0.00  0.00    -0.550 OA
ATOM     28  H   LIG    1       -1.506  -3.532  -3.039  0.00  0.00    +0.380 HD
ENDBRANCH  20  27
ENDBRANCH  15  16
ENDBRANCH   2  15
TORSDOF 8
