REMARK  Name = ZINCrg00001Jdv3T.0
REMARK                            x       y       z     vdW  Elec       q    Type
REMARK                         _______ _______ _______ _____ _____    ______ ____
ROOT
ATOM      1  C   LIG    1       -8.391   5.669   2.487  0.00  0.00    +0.600 C 
ATOM      2  N   LIG    1       -7.146   5.228   2.757  0.00  0.00    -0.600 N 
ATOM      3  C   LIG    1       -6.109   6.156   3.229  0.00  0.00    +0.280 C 
ATOM      4  C   LIG    1       -4.883   6.029   2.320  0.00  0.00    +0.020 C 
ATOM      5  C   LIG    1       -4.440   4.565   2.269  0.00  0.00    -0.010 C 
ATOM      6  C   LIG    1       -5.566   3.709   1.684  0.00  0.00    +0.020 C 
ATOM      7  C   LIG    1       -6.801   3.811   2.586  0.00  0.00    +0.280 C 
ATOM      8  O   LIG    1       -8.690   6.825   2.719  0.00  0.00    -0.520 OA
ENDROOT
BRANCH   1  14
ATOM      9  C   LIG    1      -10.743   5.091   1.449  0.00  0.00    -0.050 A 
ATOM     10  C   LIG    1      -11.261   3.904   1.004  0.00  0.00    +0.210 A 
ATOM     11  N   LIG    1      -10.315   2.963   1.183  0.00  0.00    -0.290 N 
ATOM     12  N   LIG    1       -9.248   3.457   1.696  0.00  0.00    -0.250 NA
ATOM     13  C   LIG    1      -10.481   1.551   0.831  0.00  0.00    +0.370 C 
ATOM     14  C   LIG    1       -9.390   4.750   1.909  0.00  0.00    +0.010 A 
BRANCH   9  16
ATOM     15  C   LIG    1      -11.896   7.428   1.472  0.00  0.00    +0.070 C 
ATOM     16  C   LIG    1      -11.377   6.375   1.461  0.00  0.00    -0.120 C 
ENDBRANCH   9  16
ENDBRANCH   1  14
BRANCH   5  17
ATOM     17  C   LIG    1       -3.195   4.439   1.390  0.00  0.00    +0.160 C 
BRANCH  17  18
ATOM     18  O   LIG    1       -2.713   3.094   1.436  0.00  0.00    -0.370 OA
BRANCH  18  19
ATOM     19  C   LIG    1       -1.546   2.867   0.644  0.00  0.00    +0.160 C 
ATOM     20  C   LIG    1       -0.746   1.642   1.167  0.00  0.00    +0.050 C 
ATOM     21  C   LIG    1       -0.011   1.148  -0.097  0.00  0.00    +0.250 C 
ATOM     22  N   LIG    1       -0.753   1.650  -1.262  0.00  0.00    -0.620 N 
ATOM     23  C   LIG    1       -0.417   1.453  -2.553  0.00  0.00    +0.560 C 
ATOM     24  O   LIG    1       -1.108   1.918  -3.439  0.00  0.00    -0.540 OA
ATOM     25  C   LIG    1       -1.925   2.407  -0.786  0.00  0.00    +0.240 C 
BRANCH  23  26
ATOM     26  C   LIG    1        0.785   0.675  -2.889  0.00  0.00    -0.090 C 
ATOM     27  C   LIG    1        1.117   0.480  -4.162  0.00  0.00    +0.150 C 
ENDBRANCH  23  26
ENDBRANCH  18  19
ENDBRANCH  17  18
ENDBRANCH   5  17
TORSDOF 6
