REMARK  Name = ZINCpk000005PUYY.0
REMARK                            x       y       z     vdW  Elec       q    Type
REMARK                         _______ _______ _______ _____ _____    ______ ____
ROOT
ATOM      1  C   LIG    1       -0.082   3.661  -1.204  0.00  0.00    +0.250 C 
ATOM      2  C   LIG    1       -1.507   3.540  -0.657  0.00  0.00    +0.040 C 
ATOM      3  C   LIG    1       -1.938   2.066  -0.712  0.00  0.00    +0.150 C 
ATOM      4  C   LIG    1       -0.790   1.215  -0.115  0.00  0.00    -0.010 C 
ATOM      5  C   LIG    1        0.130   0.902  -1.313  0.00  0.00    -0.010 C 
ATOM      6  C   LIG    1       -0.541   1.591  -2.522  0.00  0.00    +0.170 C 
ATOM      7  N   LIG    1       -1.978   1.672  -2.146  0.00  0.00    -0.500 NA
ATOM      8  C   LIG    1       -0.009   3.031  -2.599  0.00  0.00    +0.040 C 
ENDROOT
BRANCH   1  10
ATOM      9  C   LIG    1        1.588   5.435  -1.248  0.00  0.00    +0.570 C 
ATOM     10  N   LIG    1        0.289   5.075  -1.289  0.00  0.00    -0.720 N 
ATOM     11  H   LIG    1       -0.399   5.753  -1.374  0.00  0.00    +0.400 HD
ATOM     12  O   LIG    1        2.451   4.585  -1.141  0.00  0.00    -0.520 OA
BRANCH   9  19
ATOM     13  C   LIG    1        4.376   6.255  -0.908  0.00  0.00    +0.170 C 
ATOM     14  C   LIG    1        3.292   7.268  -1.172  0.00  0.00    +0.240 A 
ATOM     15  N   LIG    1        3.583   8.555  -1.256  0.00  0.00    -0.520 NA
ATOM     16  C   LIG    1        2.641   9.449  -1.487  0.00  0.00    +0.520 A 
ATOM     17  N   LIG    1        1.377   9.110  -1.646  0.00  0.00    -0.530 NA
ATOM     18  C   LIG    1        0.999   7.846  -1.583  0.00  0.00    +0.360 A 
ATOM     19  C   LIG    1        1.962   6.862  -1.333  0.00  0.00    -0.250 A 
ENDBRANCH   9  19
ENDBRANCH   1  10
BRANCH   7  20
ATOM     20  C   LIG    1       -2.641   0.372  -2.317  0.00  0.00    +0.300 C 
BRANCH  20  21
ATOM     21  C   LIG    1       -4.130   0.544  -2.165  0.00  0.00    +0.080 A 
ATOM     22  N   LIG    1       -4.957   0.809  -3.131  0.00  0.00    -0.250 NA
ATOM     23  O   LIG    1       -6.257   0.890  -2.568  0.00  0.00    +0.030 OA
ATOM     24  N   LIG    1       -6.106   0.645  -1.179  0.00  0.00    -0.270 NA
ATOM     25  C   LIG    1       -4.843   0.436  -0.955  0.00  0.00    +0.070 A 
ATOM     26  C   LIG    1       -4.236   0.131   0.390  0.00  0.00    +0.180 C 
ENDBRANCH  20  21
ENDBRANCH   7  20
TORSDOF 4
