REMARK  Name = ZINCqH0000008B7q.0
REMARK                            x       y       z     vdW  Elec       q    Type
REMARK                         _______ _______ _______ _____ _____    ______ ____
ROOT
ATOM      1  C   LIG    1        3.378   2.124  -1.308  0.00  0.00    +0.190 A 
ATOM      2  C   LIG    1        4.316   1.925  -0.298  0.00  0.00    -0.010 A 
ATOM      3  C   LIG    1        5.572   2.478  -0.406  0.00  0.00    +0.110 A 
ATOM      4  C   LIG    1        5.902   3.247  -1.526  0.00  0.00    -0.140 A 
ATOM      5  C   LIG    1        4.956   3.449  -2.535  0.00  0.00    +0.180 A 
ATOM      6  C   LIG    1        3.704   2.890  -2.424  0.00  0.00    -0.030 A 
ENDROOT
BRANCH   1  12
ATOM      7  C   LIG    1       -0.733   2.021   1.270  0.00  0.00    +0.020 C 
ATOM      8  C   LIG    1       -0.019   1.527   0.010  0.00  0.00    +0.000 C 
ATOM      9  C   LIG    1        0.002  -0.004   0.002  0.00  0.00    +0.010 C 
ATOM     10  C   LIG    1        0.771  -0.489  -1.230  0.00  0.00    +0.030 C 
ATOM     11  C   LIG    1        2.186   0.094  -1.205  0.00  0.00    +0.180 C 
ATOM     12  N   LIG    1        2.112   1.560  -1.198  0.00  0.00    -0.500 N 
ATOM     13  C   LIG    1        1.419   2.052  -0.001  0.00  0.00    +0.190 C 
ENDBRANCH   1  12
BRANCH   4  14
ATOM     14  C   LIG    1        7.246   3.845  -1.642  0.00  0.00    +0.560 C 
ATOM     15  N   LIG    1        8.157   3.650  -0.668  0.00  0.00    -0.720 N 
ATOM     16  H   LIG    1        7.929   3.116   0.110  0.00  0.00    +0.400 HD
ATOM     17  O   LIG    1        7.532   4.514  -2.616  0.00  0.00    -0.520 OA
BRANCH  15  18
ATOM     18  C   LIG    1        9.491   4.243  -0.783  0.00  0.00    +0.320 C 
BRANCH  18  19
ATOM     19  C   LIG    1       10.310   3.877   0.428  0.00  0.00    -0.120 A 
ATOM     20  C   LIG    1       10.301   4.695   1.542  0.00  0.00    +0.020 A 
ATOM     21  C   LIG    1       11.049   4.356   2.654  0.00  0.00    +0.010 A 
ATOM     22  C   LIG    1       11.813   3.204   2.649  0.00  0.00    +0.020 A 
ATOM     23  C   LIG    1       11.826   2.389   1.532  0.00  0.00    +0.010 A 
ATOM     24  C   LIG    1       11.075   2.725   0.422  0.00  0.00    +0.020 A 
ENDBRANCH  18  19
ENDBRANCH  15  18
ENDBRANCH   4  14
BRANCH   6  25
ATOM     25  N   LIG    1        2.701   3.103  -3.492  0.00  0.00    +0.030 N 
ATOM     26  O   LIG    1        1.593   2.609  -3.394  0.00  0.00    -0.090 OA
ATOM     27  O   LIG    1        2.986   3.773  -4.469  0.00  0.00    -0.190 OA
ENDBRANCH   6  25
TORSDOF 5
