REMARK  Name = ZINCpe00000MH8gs.0
REMARK                            x       y       z     vdW  Elec       q    Type
REMARK                         _______ _______ _______ _____ _____    ______ ____
ROOT
ATOM      1  C   LIG    1       -1.187   2.136   0.019  0.00  0.00    +0.520 C 
ATOM      2  N   LIG    1       -0.018   1.465   0.010  0.00  0.00    -0.610 N 
ATOM      3  C   LIG    1        0.002  -0.004   0.002  0.00  0.00    +0.270 C 
ATOM      4  C   LIG    1        0.880  -0.492   1.159  0.00  0.00    +0.040 C 
ATOM      5  C   LIG    1        2.263   0.156   1.052  0.00  0.00    +0.030 C 
ATOM      6  C   LIG    1        2.125   1.677   1.158  0.00  0.00    +0.090 C 
ATOM      7  C   LIG    1        1.261   2.189   0.002  0.00  0.00    +0.300 C 
ATOM      8  O   LIG    1       -1.190   3.349   0.026  0.00  0.00    -0.530 OA
ENDROOT
BRANCH   6   9
ATOM      9  C   LIG    1        3.490   2.312   1.086  0.00  0.00    +0.290 A 
ATOM     10  N   LIG    1        3.851   3.378   1.738  0.00  0.00    -0.480 NA
ATOM     11  C   LIG    1        5.143   3.677   1.445  0.00  0.00    +0.050 A 
ATOM     12  C   LIG    1        6.014   4.690   1.853  0.00  0.00    +0.070 A 
ATOM     13  C   LIG    1        7.291   4.725   1.369  0.00  0.00    +0.000 A 
ATOM     14  C   LIG    1        7.735   3.764   0.473  0.00  0.00    +0.030 A 
ATOM     15  C   LIG    1        6.893   2.755   0.056  0.00  0.00    +0.010 A 
ATOM     16  C   LIG    1        5.592   2.703   0.537  0.00  0.00    +0.050 A 
ATOM     17  N   LIG    1        4.525   1.850   0.334  0.00  0.00    -0.600 N 
ATOM     18  H   LIG    1        4.515   1.069  -0.240  0.00  0.00    +0.420 HD
ENDBRANCH   6   9
BRANCH   1  19
ATOM     19  C   LIG    1       -2.490   1.379   0.021  0.00  0.00    +0.090 C 
BRANCH  19  25
ATOM     20  O   LIG    1       -5.285   3.198   2.946  0.00  0.00    -0.540 OA
ATOM     21  C   LIG    1       -4.909   2.775   1.870  0.00  0.00    +0.700 C 
ATOM     22  N   LIG    1       -5.631   1.952   1.101  0.00  0.00    -0.680 N 
ATOM     23  H   LIG    1       -6.513   1.623   1.333  0.00  0.00    +0.440 HD
ATOM     24  C   LIG    1       -4.980   1.637  -0.036  0.00  0.00    +0.530 C 
ATOM     25  C   LIG    1       -3.655   2.370   0.032  0.00  0.00    +0.250 C 
ATOM     26  O   LIG    1       -5.373   0.916  -0.929  0.00  0.00    -0.460 OA
ATOM     27  N   LIG    1       -3.717   3.083   1.320  0.00  0.00    -0.710 N 
ATOM     28  H   LIG    1       -3.034   3.660   1.696  0.00  0.00    +0.450 HD
ENDBRANCH  19  25
ENDBRANCH   1  19
TORSDOF 3
