REMARK  Name = ZINCtV00000tRSRW.0
REMARK                            x       y       z     vdW  Elec       q    Type
REMARK                         _______ _______ _______ _____ _____    ______ ____
ROOT
ATOM      1  C   LIG    1       -0.971   2.622   4.711  0.00  0.00    +0.050 A 
ATOM      2  C   LIG    1       -1.937   3.149   5.519  0.00  0.00    +0.040 A 
ATOM      3  C   LIG    1       -1.350   3.359   6.775  0.00  0.00    -0.020 A 
ATOM      4  C   LIG    1       -0.052   2.952   6.681  0.00  0.00    +0.050 A 
ATOM      5  O   LIG    1        0.164   2.503   5.430  0.00  0.00    -0.170 OA
ENDROOT
BRANCH   1  10
ATOM      6  C   LIG    1       -0.051   0.943   0.048  0.00  0.00    +0.150 C 
ATOM      7  C   LIG    1       -0.735   1.510   1.265  0.00  0.00    +0.020 A 
ATOM      8  C   LIG    1       -2.030   1.918   1.350  0.00  0.00    +0.040 A 
ATOM      9  N   LIG    1       -2.250   2.356   2.602  0.00  0.00    -0.440 NA
ATOM     10  C   LIG    1       -1.139   2.244   3.301  0.00  0.00    +0.280 A 
ATOM     11  N   LIG    1       -0.170   1.717   2.494  0.00  0.00    -0.560 N 
ATOM     12  H   LIG    1        0.748   1.526   2.745  0.00  0.00    +0.430 HD
BRANCH   8  13
ATOM     13  C   LIG    1       -3.027   1.884   0.252  0.00  0.00    +0.000 A 
ATOM     14  C   LIG    1       -3.904   2.951   0.070  0.00  0.00    +0.060 A 
ATOM     15  C   LIG    1       -4.826   2.917  -0.956  0.00  0.00    +0.030 A 
ATOM     16  C   LIG    1       -4.888   1.819  -1.798  0.00  0.00    -0.030 A 
ATOM     17  C   LIG    1       -4.023   0.754  -1.617  0.00  0.00    +0.030 A 
ATOM     18 CL   LIG    1       -6.055   1.779  -3.082  0.00  0.00    -0.070 Cl
ATOM     19  C   LIG    1       -3.094   0.781  -0.598  0.00  0.00    +0.040 A 
ENDBRANCH   8  13
ENDBRANCH   1  10
BRANCH   4  20
ATOM     20  C   LIG    1        0.945   2.991   7.769  0.00  0.00    -0.040 A 
ATOM     21  C   LIG    1        0.590   3.482   9.028  0.00  0.00    +0.090 A 
ATOM     22  C   LIG    1        1.523   3.513  10.041  0.00  0.00    -0.040 A 
ATOM     23  C   LIG    1        2.818   3.066   9.810  0.00  0.00    +0.110 A 
ATOM     24  C   LIG    1        3.176   2.581   8.559  0.00  0.00    +0.030 A 
ATOM     25  C   LIG    1        2.248   2.542   7.541  0.00  0.00    +0.080 A 
BRANCH  23  26
ATOM     26  O   LIG    1        3.736   3.103  10.811  0.00  0.00    -0.310 OA
BRANCH  26  27
ATOM     27  C   LIG    1        3.301   3.613  12.073  0.00  0.00    +0.600 C 
ATOM     28  F   LIG    1        2.862   4.932  11.916  0.00  0.00    -0.160 F 
ATOM     29  F   LIG    1        4.364   3.580  12.981  0.00  0.00    -0.130 F 
ATOM     30  F   LIG    1        2.249   2.827  12.556  0.00  0.00    -0.160 F 
ENDBRANCH  26  27
ENDBRANCH  23  26
ENDBRANCH   4  20
TORSDOF 5
