REMARK  Name = ZINCtV00000tRSRW.1
REMARK                            x       y       z     vdW  Elec       q    Type
REMARK                         _______ _______ _______ _____ _____    ______ ____
ROOT
ATOM      1  C   LIG    1       -2.513   1.302   0.019  0.00  0.00    +0.050 A 
ATOM      2  C   LIG    1       -3.623   2.100   0.028  0.00  0.00    +0.040 A 
ATOM      3  C   LIG    1       -4.737   1.250   0.027  0.00  0.00    -0.020 A 
ATOM      4  C   LIG    1       -4.263  -0.029   0.018  0.00  0.00    +0.050 A 
ATOM      5  O   LIG    1       -2.917   0.015   0.008  0.00  0.00    -0.170 OA
ENDROOT
BRANCH   1  11
ATOM      6  C   LIG    1        1.437   4.334   0.011  0.00  0.00    +0.160 C 
ATOM      7  C   LIG    1        0.604   3.079   0.012  0.00  0.00    +0.040 A 
ATOM      8  C   LIG    1        1.085   1.803   0.001  0.00  0.00    +0.020 A 
ATOM      9  N   LIG    1       -0.011   0.966   0.007  0.00  0.00    -0.550 N 
ATOM     10  H   LIG    1        0.002  -0.004   0.002  0.00  0.00    +0.430 HD
ATOM     11  C   LIG    1       -1.121   1.766   0.016  0.00  0.00    +0.290 A 
ATOM     12  N   LIG    1       -0.728   3.026   0.024  0.00  0.00    -0.450 NA
BRANCH   8  13
ATOM     13  C   LIG    1        2.505   1.396  -0.013  0.00  0.00    -0.010 A 
ATOM     14  C   LIG    1        3.423   2.023   0.832  0.00  0.00    +0.060 A 
ATOM     15  C   LIG    1        4.746   1.635   0.817  0.00  0.00    +0.040 A 
ATOM     16  C   LIG    1        5.168   0.633  -0.042  0.00  0.00    -0.030 A 
ATOM     17  C   LIG    1        4.263   0.011  -0.885  0.00  0.00    +0.040 A 
ATOM     18 CL   LIG    1        6.837   0.156  -0.059  0.00  0.00    -0.060 Cl
ATOM     19  C   LIG    1        2.936   0.386  -0.876  0.00  0.00    +0.030 A 
ENDBRANCH   8  13
ENDBRANCH   1  11
BRANCH   4  20
ATOM     20  C   LIG    1       -5.086  -1.254   0.013  0.00  0.00    -0.040 A 
ATOM     21  C   LIG    1       -6.480  -1.162   0.025  0.00  0.00    +0.090 A 
ATOM     22  C   LIG    1       -7.244  -2.309   0.015  0.00  0.00    -0.050 A 
ATOM     23  C   LIG    1       -6.631  -3.555   0.006  0.00  0.00    +0.110 A 
ATOM     24  C   LIG    1       -5.245  -3.651  -0.000  0.00  0.00    +0.030 A 
ATOM     25  C   LIG    1       -4.473  -2.510   0.004  0.00  0.00    +0.080 A 
BRANCH  23  26
ATOM     26  O   LIG    1       -7.388  -4.683   0.003  0.00  0.00    -0.310 OA
BRANCH  26  27
ATOM     27  C   LIG    1       -8.807  -4.511   0.009  0.00  0.00    +0.600 C 
ATOM     28  F   LIG    1       -9.186  -3.807   1.157  0.00  0.00    -0.160 F 
ATOM     29  F   LIG    1       -9.428  -5.765   0.005  0.00  0.00    -0.130 F 
ATOM     30  F   LIG    1       -9.196  -3.794  -1.127  0.00  0.00    -0.160 F 
ENDBRANCH  26  27
ENDBRANCH  23  26
ENDBRANCH   4  20
TORSDOF 5
