REMARK  Name = ZINCvU0000000Hkm.0
REMARK                            x       y       z     vdW  Elec       q    Type
REMARK                         _______ _______ _______ _____ _____    ______ ____
ROOT
ATOM      1  N   LIG    1        8.198   1.933  -7.012  0.00  0.00    -0.450 N 
ATOM      2  C   LIG    1        8.259   0.495  -7.381  0.00  0.00    +0.210 C 
ATOM      3  C   LIG    1        7.771  -0.221  -6.097  0.00  0.00    +0.050 C 
ATOM      4  C   LIG    1        6.662   0.720  -5.575  0.00  0.00    +0.240 C 
ATOM      5  C   LIG    1        6.967   2.091  -6.207  0.00  0.00    +0.210 C 
ENDROOT
BRANCH   1  10
ATOM      6  C   LIG    1        6.993   4.113  -9.568  0.00  0.00    +0.360 A 
ATOM      7  N   LIG    1        8.051   4.298 -10.331  0.00  0.00    -0.520 NA
ATOM      8  C   LIG    1        9.209   3.717 -10.044  0.00  0.00    +0.230 A 
ATOM      9  C   LIG    1        9.301   2.913  -8.924  0.00  0.00    -0.170 A 
ATOM     10  C   LIG    1        8.159   2.734  -8.141  0.00  0.00    +0.360 A 
ATOM     11 CL   LIG    1       10.594   3.971 -11.060  0.00  0.00    -0.010 Cl
ATOM     12  N   LIG    1        7.034   3.350  -8.494  0.00  0.00    -0.540 NA
BRANCH   6  14
ATOM     13  C   LIG    1        5.636   6.165  -9.260  0.00  0.00    +0.050 C 
ATOM     14  C   LIG    1        5.699   4.793  -9.933  0.00  0.00    +0.120 C 
ENDBRANCH   6  14
BRANCH   9  15
ATOM     15  C   LIG    1       10.600   2.240  -8.560  0.00  0.00    +0.090 C 
ATOM     16  C   LIG    1       10.745   0.945  -9.360  0.00  0.00    +0.030 C 
ENDBRANCH   9  15
ENDBRANCH   1  10
BRANCH   4  17
ATOM     17  N   LIG    1        6.716   0.810  -4.114  0.00  0.00    -0.610 N 
ATOM     18  C   LIG    1        5.625   0.515  -3.380  0.00  0.00    +0.520 C 
ATOM     19  O   LIG    1        4.617   0.117  -3.924  0.00  0.00    -0.530 OA
ATOM     20  C   LIG    1        7.956   1.222  -3.451  0.00  0.00    +0.290 C 
BRANCH  18  21
ATOM     21  C   LIG    1        5.658   0.678  -1.882  0.00  0.00    -0.010 C 
BRANCH  21  22
ATOM     22  C   LIG    1        6.410  -0.498  -1.256  0.00  0.00    -0.010 C 
ATOM     23  C   LIG    1        5.751  -1.810  -1.685  0.00  0.00    +0.020 C 
ATOM     24  C   LIG    1        6.365  -0.379   0.268  0.00  0.00    +0.040 C 
ENDBRANCH  21  22
BRANCH  21  25
ATOM     25  C   LIG    1        4.227   0.715  -1.341  0.00  0.00    +0.040 C 
BRANCH  25  26
ATOM     26  C   LIG    1        4.212   1.423   0.015  0.00  0.00    -0.010 C 
ATOM     27  C   LIG    1        2.824   1.290   0.644  0.00  0.00    +0.010 C 
ATOM     28  C   LIG    1        2.809   1.999   2.000  0.00  0.00    +0.000 C 
ATOM     29  C   LIG    1        3.141   3.480   1.806  0.00  0.00    +0.000 C 
ATOM     30  C   LIG    1        4.529   3.613   1.176  0.00  0.00    +0.000 C 
ATOM     31  C   LIG    1        4.544   2.904  -0.180  0.00  0.00    +0.000 C 
ENDBRANCH  25  26
ENDBRANCH  21  25
ENDBRANCH  18  21
ENDBRANCH   4  17
TORSDOF 8
