REMARK  Name = ZINCtV00000L6jE8.0
REMARK                            x       y       z     vdW  Elec       q    Type
REMARK                         _______ _______ _______ _____ _____    ______ ____
ROOT
ATOM      1  O   LIG    1       -2.043   0.747   1.203  0.00  0.00    -0.490 OA
ATOM      2  C   LIG    1       -1.284   1.534   0.678  0.00  0.00    +0.520 C 
ATOM      3  N   LIG    1       -0.165   1.090   0.073  0.00  0.00    -0.660 N 
ATOM      4  H   LIG    1        0.482   1.723  -0.276  0.00  0.00    +0.420 HD
ENDROOT
BRANCH   3   5
ATOM      5  C   LIG    1        0.061  -0.286  -0.058  0.00  0.00    +0.160 A 
ATOM      6  C   LIG    1       -1.008  -1.170  -0.058  0.00  0.00    +0.050 A 
ATOM      7  C   LIG    1       -0.782  -2.528  -0.191  0.00  0.00    -0.010 A 
ATOM      8  C   LIG    1        0.509  -3.009  -0.316  0.00  0.00    +0.040 A 
ATOM      9  C   LIG    1        1.580  -2.134  -0.312  0.00  0.00    +0.060 A 
ATOM     10 CL   LIG    1       -2.122  -3.632  -0.196  0.00  0.00    -0.050 Cl
ATOM     11  C   LIG    1        1.361  -0.772  -0.183  0.00  0.00    +0.060 A 
BRANCH  11  12
ATOM     12  O   LIG    1        2.414   0.089  -0.179  0.00  0.00    -0.250 OA
BRANCH  12  13
ATOM     13  C   LIG    1        2.971   0.410   1.018  0.00  0.00    +0.110 A 
ATOM     14  C   LIG    1        2.399  -0.048   2.196  0.00  0.00    -0.060 A 
ATOM     15  C   LIG    1        2.971   0.274   3.411  0.00  0.00    +0.050 A 
ATOM     16  C   LIG    1        4.106   1.063   3.455  0.00  0.00    -0.020 A 
ATOM     17  C   LIG    1        4.675   1.526   2.283  0.00  0.00    +0.050 A 
ATOM     18  C   LIG    1        4.110   1.201   1.065  0.00  0.00    -0.010 A 
ENDBRANCH  12  13
ENDBRANCH  11  12
ENDBRANCH   3   5
BRANCH   2  19
ATOM     19  C   LIG    1       -1.593   3.009   0.703  0.00  0.00    +0.270 C 
BRANCH  19  20
ATOM     20  O   LIG    1       -2.842   3.231   1.407  0.00  0.00    -0.330 OA
BRANCH  20  21
ATOM     21  C   LIG    1       -3.264   4.505   1.519  0.00  0.00    +0.510 C 
ATOM     22  O   LIG    1       -2.606   5.407   1.040  0.00  0.00    -0.470 OA
BRANCH  21  23
ATOM     23  C   LIG    1       -4.527   4.806   2.223  0.00  0.00    -0.120 A 
ATOM     24  C   LIG    1       -5.289   3.772   2.769  0.00  0.00    +0.140 A 
ATOM     25  C   LIG    1       -6.465   4.061   3.431  0.00  0.00    -0.110 A 
ATOM     26  C   LIG    1       -6.896   5.372   3.543  0.00  0.00    +0.110 A 
ATOM     27  C   LIG    1       -6.149   6.402   3.000  0.00  0.00    +0.040 A 
ATOM     28 BR   LIG    1       -7.496   2.662   4.177  0.00  0.00    -0.020 Br
ATOM     29  C   LIG    1       -4.968   6.128   2.340  0.00  0.00    +0.030 A 
ATOM     30 CL   LIG    1       -4.032   7.421   1.658  0.00  0.00    -0.020 Cl
ENDBRANCH  21  23
ENDBRANCH  20  21
ENDBRANCH  19  20
ENDBRANCH   2  19
TORSDOF 7
