REMARK  Name = ZINCpk00000Y1BDw.0
REMARK                            x       y       z     vdW  Elec       q    Type
REMARK                         _______ _______ _______ _____ _____    ______ ____
ROOT
ATOM      1  C   LIG    1       -0.707   1.567   1.264  0.00  0.00    -0.090 C 
ATOM      2  C   LIG    1       -0.013   1.086   0.008  0.00  0.00    +0.030 C 
ATOM      3  C   LIG    1       -0.738   1.585  -1.242  0.00  0.00    +0.230 C 
ATOM      4  O   LIG    1       -0.794   3.015  -1.183  0.00  0.00    -0.370 OA
ATOM      5  C   LIG    1       -1.586   3.498  -0.101  0.00  0.00    +0.220 C 
ATOM      6  C   LIG    1       -2.099   0.945   1.438  0.00  0.00    +0.280 C 
ATOM      7  N   LIG    1       -2.947   1.976   2.062  0.00  0.00    -0.620 N 
ATOM      8  C   LIG    1       -4.252   1.839   2.372  0.00  0.00    +0.530 C 
ATOM      9  O   LIG    1       -4.825   0.797   2.136  0.00  0.00    -0.520 OA
ATOM     10  C   LIG    1       -2.127   3.182   2.294  0.00  0.00    +0.280 C 
ATOM     11  C   LIG    1       -0.983   3.084   1.243  0.00  0.00    +0.010 C 
ENDROOT
BRANCH   1  15
ATOM     12  N   LIG    1        0.447  -0.060   2.728  0.00  0.00    -0.850 N 
ATOM     13  H   LIG    1        0.987  -0.280   3.502  0.00  0.00    +0.410 HD
ATOM     14  H   LIG    1        0.131  -0.765   2.140  0.00  0.00    +0.400 HD
ATOM     15  C   LIG    1        0.134   1.225   2.467  0.00  0.00    +0.530 C 
ATOM     16  O   LIG    1        0.528   2.106   3.202  0.00  0.00    -0.530 OA
ENDBRANCH   1  15
BRANCH   8  17
ATOM     17  C   LIG    1       -4.998   2.982   3.011  0.00  0.00    +0.100 C 
BRANCH  17  18
ATOM     18  C   LIG    1       -6.429   2.575   3.253  0.00  0.00    -0.070 A 
ATOM     19  C   LIG    1       -7.388   2.803   2.285  0.00  0.00    +0.010 A 
ATOM     20  C   LIG    1       -8.695   2.425   2.513  0.00  0.00    +0.000 A 
ATOM     21  C   LIG    1       -9.058   1.828   3.713  0.00  0.00    -0.070 A 
ATOM     22  C   LIG    1      -10.506   1.458   3.903  0.00  0.00    +0.070 C 
ATOM     23  C   LIG    1      -10.657   0.447   5.038  0.00  0.00    +0.020 C 
ATOM     24  C   LIG    1       -9.922   0.988   6.269  0.00  0.00    +0.020 C 
ATOM     25  C   LIG    1       -8.421   0.941   5.994  0.00  0.00    +0.070 C 
ATOM     26  C   LIG    1       -8.102   1.600   4.678  0.00  0.00    -0.070 A 
ATOM     27  C   LIG    1       -6.787   1.979   4.445  0.00  0.00    +0.020 A 
ENDBRANCH  17  18
ENDBRANCH   8  17
TORSDOF 3
