REMARK  Name = ZINCrg000000naHA.0
REMARK                            x       y       z     vdW  Elec       q    Type
REMARK                         _______ _______ _______ _____ _____    ______ ____
ROOT
ATOM      1  N   LIG    1        2.972   0.884  -4.379  0.00  0.00    -0.520 NA
ATOM      2  C   LIG    1        3.268   2.169  -3.731  0.00  0.00    +0.190 C 
ATOM      3  C   LIG    1        4.010   1.913  -2.414  0.00  0.00    +0.300 C 
ATOM      4  N   LIG    1        3.216   0.976  -1.605  0.00  0.00    -0.990 NA
ATOM      5  C   LIG    1        2.769  -0.278  -2.231  0.00  0.00    +0.310 C 
ATOM      6  C   LIG    1        2.071   0.067  -3.556  0.00  0.00    +0.170 C 
ENDROOT
BRANCH   4   7
ATOM      7  S   LIG    1        2.840   1.321  -0.029  0.00  0.00    +2.690 S 
ATOM      8  O   LIG    1        2.590   0.074   0.605  0.00  0.00    -0.940 OA
ATOM      9  O   LIG    1        3.823   2.241   0.425  0.00  0.00    -0.940 OA
BRANCH   7  10
ATOM     10  C   LIG    1        1.309   2.192  -0.036  0.00  0.00    -0.680 A 
ATOM     11  C   LIG    1        1.299   3.571  -0.126  0.00  0.00    +0.190 A 
ATOM     12  C   LIG    1        0.097   4.255  -0.132  0.00  0.00    +0.030 A 
ATOM     13  C   LIG    1       -1.094   3.559  -0.049  0.00  0.00    +0.160 A 
ATOM     14  C   LIG    1       -1.084   2.179   0.036  0.00  0.00    -0.060 A 
ATOM     15  C   LIG    1        0.117   1.496   0.047  0.00  0.00    +0.210 A 
BRANCH  14  16
ATOM     16  N   LIG    1       -2.360   1.434   0.119  0.00  0.00    +0.030 N 
ATOM     17  O   LIG    1       -3.419   2.036   0.109  0.00  0.00    -0.150 OA
ATOM     18  O   LIG    1       -2.351   0.218   0.197  0.00  0.00    -0.150 OA
ENDBRANCH  14  16
ENDBRANCH   7  10
ENDBRANCH   4   7
BRANCH   1  19
ATOM     19  C   LIG    1        2.416   1.090  -5.723  0.00  0.00    +0.200 C 
BRANCH  19  20
ATOM     20  C   LIG    1        0.958   1.538  -5.609  0.00  0.00    +0.180 C 
BRANCH  20  21
ATOM     21  O   LIG    1        0.903   2.829  -5.000  0.00  0.00    -0.550 OA
ATOM     22  H   LIG    1        1.375   3.516  -5.491  0.00  0.00    +0.370 HD
ENDBRANCH  20  21
BRANCH  20  23
ATOM     23  C   LIG    1        0.334   1.605  -7.005  0.00  0.00    +0.140 C 
BRANCH  23  24
ATOM     24  O   LIG    1       -1.058   1.910  -6.890  0.00  0.00    -0.370 OA
BRANCH  24  26
ATOM     25  C   LIG    1       -1.629   0.659  -8.877  0.00  0.00    +0.020 C 
ATOM     26  C   LIG    1       -1.739   1.997  -8.143  0.00  0.00    +0.110 C 
ATOM     27  C   LIG    1       -1.103   3.098  -8.994  0.00  0.00    +0.010 C 
ATOM     28  C   LIG    1       -3.213   2.326  -7.901  0.00  0.00    +0.050 C 
ENDBRANCH  24  26
ENDBRANCH  23  24
ENDBRANCH  20  23
ENDBRANCH  19  20
ENDBRANCH   1  19
TORSDOF 9
