REMARK  Name = ZINCrH000004mJEg.0
REMARK                            x       y       z     vdW  Elec       q    Type
REMARK                         _______ _______ _______ _____ _____    ______ ____
ROOT
ATOM      1  C   LIG    1       -2.378   6.954   2.007  0.00  0.00    +0.570 C 
ATOM      2  N   LIG    1       -2.189   5.620   1.992  0.00  0.00    -0.610 N 
ATOM      3  C   LIG    1       -3.331   4.703   1.875  0.00  0.00    +0.280 C 
ATOM      4  C   LIG    1       -3.275   3.696   3.029  0.00  0.00    +0.050 C 
ATOM      5  C   LIG    1       -1.910   3.004   3.030  0.00  0.00    +0.010 C 
ATOM      6  C   LIG    1       -0.808   4.044   3.243  0.00  0.00    +0.030 C 
ATOM      7  C   LIG    1       -0.836   5.055   2.092  0.00  0.00    +0.300 C 
ATOM      8  O   LIG    1       -1.436   7.700   2.195  0.00  0.00    -0.510 OA
ENDROOT
BRANCH   1  15
ATOM      9  C   LIG    1       -4.223   8.505   2.648  0.00  0.00    +0.180 A 
ATOM     10  C   LIG    1       -5.493   9.021   2.440  0.00  0.00    -0.050 A 
ATOM     11  C   LIG    1       -6.266   8.556   1.395  0.00  0.00    +0.100 A 
ATOM     12  C   LIG    1       -5.781   7.572   0.548  0.00  0.00    -0.080 A 
ATOM     13  C   LIG    1       -4.518   7.052   0.738  0.00  0.00    +0.110 A 
ATOM     14 CL   LIG    1       -6.765   6.997  -0.762  0.00  0.00    -0.060 Cl
ATOM     15  C   LIG    1       -3.728   7.510   1.794  0.00  0.00    -0.160 A 
BRANCH   9  17
ATOM     16  C   LIG    1       -4.033   9.977   4.504  0.00  0.00    +0.250 C 
ATOM     17  O   LIG    1       -3.462   8.962   3.675  0.00  0.00    -0.290 OA
ENDBRANCH   9  17
ENDBRANCH   1  15
BRANCH   5  18
ATOM     18  C   LIG    1       -1.863   1.988   4.142  0.00  0.00    +0.510 C 
ATOM     19  N   LIG    1       -0.751   1.252   4.336  0.00  0.00    -0.630 N 
ATOM     20  H   LIG    1        0.018   1.372   3.757  0.00  0.00    +0.420 HD
ATOM     21  O   LIG    1       -2.826   1.834   4.863  0.00  0.00    -0.490 OA
BRANCH  19  22
ATOM     22  C   LIG    1       -0.708   0.316   5.361  0.00  0.00    +0.060 A 
ATOM     23  C   LIG    1        0.365  -0.489   5.636  0.00  0.00    -0.110 A 
ATOM     24  C   LIG    1        0.135  -1.366   6.762  0.00  0.00    +0.080 A 
ATOM     25  C   LIG    1       -1.070  -1.223   7.296  0.00  0.00    -0.110 A 
ATOM     26  S   LIG    1       -1.987   0.007   6.445  0.00  0.00    +0.320 S 
BRANCH  23  27
ATOM     27  C   LIG    1        1.587  -0.462   4.890  0.00  0.00    +0.260 C 
ATOM     28  N   LIG    1        2.557  -0.440   4.298  0.00  0.00    -0.420 NA
ENDBRANCH  23  27
ENDBRANCH  19  22
ENDBRANCH   5  18
TORSDOF 5
