REMARK  Name = ZINCrD000000fCL6.0
REMARK                            x       y       z     vdW  Elec       q    Type
REMARK                         _______ _______ _______ _____ _____    ______ ____
ROOT
ATOM      1  C   LIG    1        2.913  -4.620  -0.181  0.00  0.00    +0.530 C 
ATOM      2  N   LIG    1        3.988  -5.257  -0.688  0.00  0.00    -0.670 N 
ATOM      3  H   LIG    1        4.683  -4.753  -1.139  0.00  0.00    +0.410 HD
ATOM      4  O   LIG    1        2.093  -5.236   0.467  0.00  0.00    -0.480 OA
ENDROOT
BRANCH   1   9
ATOM      5  C   LIG    1        6.044  -0.583  -0.241  0.00  0.00    +0.110 C 
ATOM      6  C   LIG    1        4.620  -0.090  -0.250  0.00  0.00    +0.520 C 
ATOM      7  N   LIG    1        3.613  -0.932   0.056  0.00  0.00    -0.560 N 
ATOM      8  C   LIG    1        3.860  -2.368   0.275  0.00  0.00    +0.290 C 
ATOM      9  C   LIG    1        2.731  -3.143  -0.419  0.00  0.00    +0.180 C 
ATOM     10  O   LIG    1        1.479  -2.721   0.126  0.00  0.00    -0.280 OA
ATOM     11  C   LIG    1        1.241  -1.386   0.205  0.00  0.00    +0.090 A 
ATOM     12  C   LIG    1       -0.063  -0.927   0.320  0.00  0.00    +0.020 A 
ATOM     13  C   LIG    1       -0.314   0.430   0.410  0.00  0.00    +0.030 A 
ATOM     14  C   LIG    1        0.731   1.335   0.385  0.00  0.00    +0.010 A 
ATOM     15  C   LIG    1        2.034   0.887   0.269  0.00  0.00    +0.050 A 
ATOM     16  C   LIG    1        2.291  -0.471   0.178  0.00  0.00    +0.070 A 
ATOM     17  O   LIG    1        4.379   1.065  -0.533  0.00  0.00    -0.510 OA
ENDBRANCH   1   9
BRANCH   2  18
ATOM     18  C   LIG    1        4.101  -6.648  -0.563  0.00  0.00    +0.130 A 
ATOM     19  C   LIG    1        5.350  -7.231  -0.394  0.00  0.00    +0.040 A 
ATOM     20  C   LIG    1        5.460  -8.601  -0.266  0.00  0.00    -0.030 A 
ATOM     21  C   LIG    1        4.325  -9.397  -0.317  0.00  0.00    +0.090 A 
ATOM     22  C   LIG    1        3.077  -8.816  -0.491  0.00  0.00    +0.050 A 
ATOM     23  C   LIG    1        2.965  -7.445  -0.614  0.00  0.00    +0.070 A 
BRANCH  21  24
ATOM     24  O   LIG    1        4.435 -10.747  -0.197  0.00  0.00    -0.310 OA
BRANCH  24  25
ATOM     25  C   LIG    1        5.750 -11.277  -0.021  0.00  0.00    +0.600 C 
ATOM     26  F   LIG    1        6.543 -10.932  -1.120  0.00  0.00    -0.160 F 
ATOM     27  F   LIG    1        5.680 -12.671   0.085  0.00  0.00    -0.130 F 
ATOM     28  F   LIG    1        6.314 -10.749   1.146  0.00  0.00    -0.160 F 
ENDBRANCH  24  25
ENDBRANCH  21  24
ENDBRANCH   2  18
TORSDOF 4
