REMARK  Name = ZINCqH0000005Vjg.0
REMARK                            x       y       z     vdW  Elec       q    Type
REMARK                         _______ _______ _______ _____ _____    ______ ____
ROOT
ATOM      1  C   LIG    1        3.703  -0.741   0.137  0.00  0.00    -0.070 A 
ATOM      2  C   LIG    1        4.869   0.023   0.234  0.00  0.00    +0.050 A 
ATOM      3  C   LIG    1        4.797   1.398   0.249  0.00  0.00    +0.100 A 
ATOM      4  C   LIG    1        3.557   2.034   0.165  0.00  0.00    -0.130 A 
ATOM      5  C   LIG    1        2.384   1.271   0.066  0.00  0.00    +0.230 A 
ATOM      6  C   LIG    1        2.462  -0.114   0.058  0.00  0.00    +0.100 A 
ENDROOT
BRANCH   5   7
ATOM      7  N   LIG    1        1.145   1.902  -0.017  0.00  0.00    -0.670 N 
ATOM      8  H   LIG    1        1.058   2.737  -0.502  0.00  0.00    +0.420 HD
ATOM      9  C   LIG    1        0.067   1.351   0.575  0.00  0.00    +0.710 C 
ATOM     10  N   LIG    1       -1.113   2.002   0.567  0.00  0.00    -0.620 N 
ATOM     11  C   LIG    1       -1.223   3.311  -0.081  0.00  0.00    +0.290 C 
ATOM     12  O   LIG    1        0.158   0.264   1.113  0.00  0.00    -0.560 OA
BRANCH  10  13
ATOM     13  C   LIG    1       -2.286   1.400   1.205  0.00  0.00    +0.410 C 
BRANCH  13  14
ATOM     14  C   LIG    1       -2.347   1.828   2.649  0.00  0.00    -0.200 A 
ATOM     15  C   LIG    1       -2.972   2.916   3.102  0.00  0.00    +0.030 A 
ATOM     16  C   LIG    1       -2.896   3.104   4.472  0.00  0.00    +0.050 A 
ATOM     17  C   LIG    1       -2.200   2.174   5.129  0.00  0.00    -0.210 A 
ATOM     18 BR   LIG    1       -1.907   2.149   6.997  0.00  0.00    +0.010 Br
ATOM     19  S   LIG    1       -1.599   0.974   3.992  0.00  0.00    +0.200 S 
ENDBRANCH  13  14
ENDBRANCH  10  13
ENDBRANCH   5   7
BRANCH   1  20
ATOM     20  C   LIG    1        3.787  -2.218   0.122  0.00  0.00    +0.510 C 
ATOM     21  O   LIG    1        2.775  -2.883   0.037  0.00  0.00    -0.490 OA
BRANCH  20  23
ATOM     22  C   LIG    1        4.993  -4.277   0.183  0.00  0.00    +0.290 C 
ATOM     23  O   LIG    1        4.987  -2.825   0.203  0.00  0.00    -0.350 OA
ENDBRANCH  20  23
ENDBRANCH   1  20
BRANCH   4  24
ATOM     24  C   LIG    1        3.480   3.508   0.181  0.00  0.00    +0.520 C 
ATOM     25  O   LIG    1        2.398   4.060   0.209  0.00  0.00    -0.510 OA
BRANCH  24  26
ATOM     26  O   LIG    1        4.610   4.242   0.165  0.00  0.00    -0.350 OA
ATOM     27  C   LIG    1        4.459   5.686   0.183  0.00  0.00    +0.290 C 
ENDBRANCH  24  26
ENDBRANCH   4  24
TORSDOF 7
