REMARK  Name = ZINCkj000005jM42.0
REMARK                            x       y       z     vdW  Elec       q    Type
REMARK                         _______ _______ _______ _____ _____    ______ ____
ROOT
ATOM      1  N   LIG    1        0.225   0.017  -0.036  0.00  0.00    -0.380 N 
ATOM      2  C   LIG    1        0.673  -0.361  -1.383  0.00  0.00    +0.270 C 
ATOM      3  C   LIG    1        0.945  -1.867  -1.427  0.00  0.00    +0.210 C 
ATOM      4  N   LIG    1       -0.284  -2.593  -1.079  0.00  0.00    -0.530 NA
ATOM      5  C   LIG    1       -0.759  -2.207   0.257  0.00  0.00    +0.210 C 
ATOM      6  C   LIG    1       -1.016  -0.698   0.287  0.00  0.00    +0.280 C 
ATOM      7  H   LIG    1        0.938  -0.226   0.635  0.00  0.00    +0.420 HD
ENDROOT
BRANCH   1   8
ATOM      8  C   LIG    1       -0.018   1.465   0.010  0.00  0.00    +0.220 C 
BRANCH   8  10
ATOM      9  C   LIG    1       -0.607   3.388   1.492  0.00  0.00    +0.050 C 
ATOM     10  C   LIG    1       -0.337   1.883   1.447  0.00  0.00    +0.200 C 
BRANCH  10  11
ATOM     11  O   LIG    1        0.773   1.572   2.291  0.00  0.00    -0.560 OA
ATOM     12  H   LIG    1        1.594   2.017   2.041  0.00  0.00    +0.390 HD
ENDBRANCH  10  11
ENDBRANCH   8  10
ENDBRANCH   1   8
BRANCH   4  13
ATOM     13  C   LIG    1       -0.080  -4.045  -1.165  0.00  0.00    +0.190 C 
BRANCH  13  14
ATOM     14  C   LIG    1        0.644  -4.382  -2.470  0.00  0.00    +0.260 C 
BRANCH  14  15
ATOM     15  C   LIG    1        0.854  -5.872  -2.558  0.00  0.00    -0.120 A 
ATOM     16  C   LIG    1       -0.053  -6.658  -3.243  0.00  0.00    +0.030 A 
ATOM     17  C   LIG    1        0.140  -8.025  -3.324  0.00  0.00    +0.030 A 
ATOM     18  C   LIG    1        1.239  -8.606  -2.720  0.00  0.00    +0.040 A 
ATOM     19  C   LIG    1        2.146  -7.820  -2.034  0.00  0.00    +0.040 A 
ATOM     20  C   LIG    1        1.958  -6.452  -1.958  0.00  0.00    -0.030 A 
ATOM     21 CL   LIG    1        3.101  -5.463  -1.104  0.00  0.00    -0.070 Cl
ENDBRANCH  14  15
BRANCH  14  22
ATOM     22  O   LIG    1       -0.146  -3.946  -3.578  0.00  0.00    -0.540 OA
ATOM     23  H   LIG    1       -1.020  -4.356  -3.623  0.00  0.00    +0.380 HD
ENDBRANCH  14  22
ENDBRANCH  13  14
ENDBRANCH   4  13
TORSDOF 7
