REMARK  Name = ZINCrD0000073siH.0
REMARK                            x       y       z     vdW  Elec       q    Type
REMARK                         _______ _______ _______ _____ _____    ______ ____
ROOT
ATOM      1  N   LIG    1       -6.012   1.356   0.039  0.00  0.00    -0.520 N 
ATOM      2  H   LIG    1       -6.156   2.316   0.044  0.00  0.00    +0.440 HD
ATOM      3  C   LIG    1       -4.757   0.864   0.030  0.00  0.00    +0.520 C 
ATOM      4  O   LIG    1       -4.577  -0.336   0.023  0.00  0.00    -0.510 OA
ENDROOT
BRANCH   1   6
ATOM      5  C   LIG    1       -8.362   0.976   0.048  0.00  0.00    +0.570 C 
ATOM      6  N   LIG    1       -7.107   0.483   0.040  0.00  0.00    -0.520 N 
ATOM      7  H   LIG    1       -6.963  -0.476   0.034  0.00  0.00    +0.430 HD
ATOM      8  O   LIG    1       -8.543   2.178   0.055  0.00  0.00    -0.510 OA
BRANCH   5  15
ATOM      9  C   LIG    1      -10.822   0.565   0.058  0.00  0.00    +0.200 A 
ATOM     10  C   LIG    1      -11.899  -0.308   0.059  0.00  0.00    -0.060 A 
ATOM     11  C   LIG    1      -11.685  -1.672   0.050  0.00  0.00    +0.120 A 
ATOM     12  C   LIG    1      -10.395  -2.179   0.041  0.00  0.00    -0.080 A 
ATOM     13  C   LIG    1       -9.312  -1.325   0.035  0.00  0.00    +0.100 A 
ATOM     14 CL   LIG    1      -10.142  -3.897   0.029  0.00  0.00    -0.060 Cl
ATOM     15  C   LIG    1       -9.516   0.057   0.049  0.00  0.00    -0.160 A 
BRANCH   9  17
ATOM     16  C   LIG    1      -12.389   2.350   0.075  0.00  0.00    +0.250 C 
ATOM     17  O   LIG    1      -11.031   1.905   0.066  0.00  0.00    -0.280 OA
ENDBRANCH   9  17
ENDBRANCH   5  15
ENDBRANCH   1   6
BRANCH   3  18
ATOM     18  C   LIG    1       -3.579   1.803   0.029  0.00  0.00    +0.250 C 
BRANCH  18  19
ATOM     19  O   LIG    1       -2.367   1.046   0.019  0.00  0.00    -0.290 OA
BRANCH  19  20
ATOM     20  C   LIG    1       -1.202   1.746   0.017  0.00  0.00    +0.130 A 
ATOM     21  C   LIG    1       -0.013   1.076   0.008  0.00  0.00    +0.000 A 
ATOM     22  C   LIG    1        1.192   1.799   0.000  0.00  0.00    -0.010 A 
ATOM     23  C   LIG    1        2.435   1.143  -0.015  0.00  0.00    +0.020 A 
ATOM     24  C   LIG    1        3.582   1.876  -0.022  0.00  0.00    +0.020 A 
ATOM     25  C   LIG    1        3.544   3.269  -0.015  0.00  0.00    -0.010 A 
ATOM     26  C   LIG    1        2.359   3.937   0.000  0.00  0.00    +0.030 A 
ATOM     27  C   LIG    1        1.153   3.216   0.008  0.00  0.00    -0.080 A 
ATOM     28  C   LIG    1       -0.090   3.873   0.023  0.00  0.00    +0.070 A 
ATOM     29  C   LIG    1       -1.238   3.144   0.030  0.00  0.00    -0.060 A 
ENDBRANCH  19  20
ENDBRANCH  18  19
ENDBRANCH   3  18
TORSDOF 6
