REMARK  Name = ZINCrH000004nBEc.0
REMARK                            x       y       z     vdW  Elec       q    Type
REMARK                         _______ _______ _______ _____ _____    ______ ____
ROOT
ATOM      1  N   LIG    1        2.931   2.641   2.431  0.00  0.00    -0.480 N 
ATOM      2  C   LIG    1        2.878   1.228   2.032  0.00  0.00    +0.190 C 
ATOM      3  C   LIG    1        2.339   1.125   0.601  0.00  0.00    +0.300 C 
ATOM      4  N   LIG    1        1.055   1.839   0.533  0.00  0.00    -0.610 N 
ATOM      5  C   LIG    1        0.998   3.219   1.038  0.00  0.00    +0.280 C 
ATOM      6  C   LIG    1       -0.040   1.245   0.017  0.00  0.00    +0.570 C 
ATOM      7  O   LIG    1        0.040   0.128  -0.456  0.00  0.00    -0.540 OA
ATOM      8  C   LIG    1        1.589   3.237   2.457  0.00  0.00    +0.180 C 
ENDROOT
BRANCH   6   9
ATOM      9  C   LIG    1       -1.335   1.955   0.020  0.00  0.00    -0.160 A 
ATOM     10  C   LIG    1       -1.370   3.349  -0.127  0.00  0.00    +0.060 A 
ATOM     11  C   LIG    1       -2.558   4.017  -0.131  0.00  0.00    +0.000 A 
ATOM     12  C   LIG    1       -3.756   3.322   0.021  0.00  0.00    +0.120 A 
ATOM     13  N   LIG    1       -5.073   3.711   0.060  0.00  0.00    -0.590 N 
ATOM     14  H   LIG    1       -5.385   4.626  -0.021  0.00  0.00    +0.420 HD
ATOM     15  C   LIG    1       -5.879   2.619   0.232  0.00  0.00    +0.070 A 
ATOM     16  C   LIG    1       -5.133   1.506   0.308  0.00  0.00    -0.160 A 
ATOM     17  C   LIG    1       -5.637   0.099   0.497  0.00  0.00    +0.130 C 
ATOM     18  C   LIG    1       -7.383   2.659   0.322  0.00  0.00    +0.150 C 
ATOM     19  C   LIG    1       -3.733   1.921   0.175  0.00  0.00    -0.110 A 
ATOM     20  C   LIG    1       -2.519   1.240   0.174  0.00  0.00    +0.130 A 
ENDBRANCH   6   9
BRANCH   1  26
ATOM     21  C   LIG    1        4.927   2.499   3.792  0.00  0.00    +0.120 A 
ATOM     22  C   LIG    1        5.554   2.648   5.017  0.00  0.00    -0.060 A 
ATOM     23  C   LIG    1        4.834   3.083   6.115  0.00  0.00    +0.020 A 
ATOM     24  C   LIG    1        3.487   3.370   5.993  0.00  0.00    -0.010 A 
ATOM     25  C   LIG    1        2.855   3.230   4.771  0.00  0.00    +0.000 A 
ATOM     26  C   LIG    1        3.570   2.789   3.668  0.00  0.00    +0.070 A 
BRANCH  21  28
ATOM     27  C   LIG    1        7.022   1.793   2.913  0.00  0.00    +0.220 C 
ATOM     28  O   LIG    1        5.635   2.071   2.712  0.00  0.00    -0.310 OA
ENDBRANCH  21  28
ENDBRANCH   1  26
TORSDOF 3
