REMARK  Name = ZINCrg00001JduW3.0
REMARK                            x       y       z     vdW  Elec       q    Type
REMARK                         _______ _______ _______ _____ _____    ______ ____
ROOT
ATOM      1  C   LIG    1       -1.295   2.059   0.019  0.00  0.00    +0.350 C 
ATOM      2  C   LIG    1       -1.114   3.482   0.598  0.00  0.00    +0.120 C 
ATOM      3  C   LIG    1       -2.080   4.293  -0.281  0.00  0.00    +0.130 C 
ATOM      4  N   LIG    1       -2.224   3.557  -1.536  0.00  0.00    -0.470 N 
ATOM      5  C   LIG    1       -2.654   3.696  -2.832  0.00  0.00    +0.140 A 
ATOM      6  C   LIG    1       -2.463   2.509  -3.437  0.00  0.00    +0.160 A 
ATOM      7  N   LIG    1       -1.932   1.667  -2.541  0.00  0.00    -0.460 NA
ATOM      8  C   LIG    1       -3.384   4.713   0.401  0.00  0.00    +0.200 C 
ATOM      9  N   LIG    1       -2.682   5.976   0.726  0.00  0.00    -0.470 NA
ATOM     10  C   LIG    1       -1.754   5.782  -0.412  0.00  0.00    +0.200 C 
ATOM     11  C   LIG    1       -1.786   2.286  -1.397  0.00  0.00    +0.180 A 
ENDROOT
BRANCH   1  14
ATOM     12  O   LIG    1       -1.040  -0.625   0.009  0.00  0.00    -0.520 OA
ATOM     13  C   LIG    1        0.002  -0.004   0.002  0.00  0.00    +0.520 C 
ATOM     14  N   LIG    1       -0.016   1.344   0.009  0.00  0.00    -0.720 N 
ATOM     15  H   LIG    1        0.817   1.840   0.004  0.00  0.00    +0.400 HD
BRANCH  13  16
ATOM     16  C   LIG    1        1.317  -0.740  -0.015  0.00  0.00    +0.090 C 
BRANCH  16  17
ATOM     17  C   LIG    1        1.058  -2.248  -0.020  0.00  0.00    -0.020 C 
ATOM     18  C   LIG    1        1.544  -3.053   1.187  0.00  0.00    +0.010 C 
ATOM     19  C   LIG    1        2.270  -3.172  -0.155  0.00  0.00    +0.010 C 
ENDBRANCH  16  17
ENDBRANCH  13  16
ENDBRANCH   1  14
BRANCH   9  20
ATOM     20  C   LIG    1       -3.555   7.136   0.503  0.00  0.00    +0.170 C 
BRANCH  20  21
ATOM     21  C   LIG    1       -4.318   7.455   1.790  0.00  0.00    +0.000 C 
ATOM     22  C   LIG    1       -5.235   6.285   2.134  0.00  0.00    +0.060 C 
ATOM     23  C   LIG    1       -5.812   6.469   3.540  0.00  0.00    -0.320 C 
ATOM     24  S   LIG    1       -6.850   7.960   3.563  0.00  0.00    +2.410 S 
ATOM     25  C   LIG    1       -5.692   9.209   2.931  0.00  0.00    -0.330 C 
ATOM     26  O   LIG    1       -7.903   7.798   2.623  0.00  0.00    -0.940 OA
ATOM     27  O   LIG    1       -7.165   8.274   4.913  0.00  0.00    -0.940 OA
ATOM     28  C   LIG    1       -5.128   8.733   1.590  0.00  0.00    +0.070 C 
ENDBRANCH  20  21
ENDBRANCH   9  20
TORSDOF 5
