REMARK  Name = ZINCvU0000000BCR.0
REMARK                            x       y       z     vdW  Elec       q    Type
REMARK                         _______ _______ _______ _____ _____    ______ ____
ROOT
ATOM      1  C   LIG    1       -0.798   1.982  -1.087  0.00  0.00    +0.190 C 
ENDROOT
BRANCH   1   2
ATOM      2  C   LIG    1       -0.125   1.462  -2.330  0.00  0.00    -0.100 A 
ATOM      3  C   LIG    1        1.250   1.319  -2.364  0.00  0.00    +0.050 A 
ATOM      4  C   LIG    1        1.867   0.838  -3.503  0.00  0.00    +0.010 A 
ATOM      5  C   LIG    1        1.111   0.509  -4.613  0.00  0.00    +0.010 A 
ATOM      6  C   LIG    1       -0.263   0.658  -4.582  0.00  0.00    +0.010 A 
ATOM      7  C   LIG    1       -0.881   1.135  -3.441  0.00  0.00    +0.010 A 
ENDBRANCH   1   2
BRANCH   1  10
ATOM      8  N   LIG    1       -0.892   4.317  -1.898  0.00  0.00    -0.670 N 
ATOM      9  H   LIG    1       -1.286   3.984  -2.720  0.00  0.00    +0.410 HD
ATOM     10  C   LIG    1       -0.510   3.453  -0.936  0.00  0.00    +0.520 C 
ATOM     11  O   LIG    1        0.066   3.861   0.050  0.00  0.00    -0.480 OA
BRANCH   8  15
ATOM     12  C   LIG    1       -0.382   8.418  -1.342  0.00  0.00    +0.120 A 
ATOM     13  C   LIG    1       -1.492   7.944  -2.025  0.00  0.00    -0.040 A 
ATOM     14  C   LIG    1       -1.659   6.586  -2.214  0.00  0.00    +0.030 A 
ATOM     15  C   LIG    1       -0.720   5.695  -1.711  0.00  0.00    +0.120 A 
ATOM     16  C   LIG    1        0.392   6.170  -1.028  0.00  0.00    +0.090 A 
ATOM     17  C   LIG    1        0.560   7.528  -0.844  0.00  0.00    -0.050 A 
ATOM     18 CL   LIG    1        1.949   8.123   0.010  0.00  0.00    -0.050 Cl
BRANCH  12  20
ATOM     19  C   LIG    1       -1.224  10.614  -1.700  0.00  0.00    +0.240 C 
ATOM     20  O   LIG    1       -0.216   9.756  -1.161  0.00  0.00    -0.300 OA
ENDBRANCH  12  20
ENDBRANCH   8  15
ENDBRANCH   1  10
BRANCH   1  21
ATOM     21  N   LIG    1       -0.286   1.260   0.086  0.00  0.00    -0.510 NA
ATOM     22  C   LIG    1       -0.296  -0.191  -0.143  0.00  0.00    +0.200 C 
BRANCH  21  23
ATOM     23  C   LIG    1       -1.048   1.608   1.293  0.00  0.00    +0.210 C 
BRANCH  23  24
ATOM     24  C   LIG    1       -0.339   1.040   2.524  0.00  0.00    +0.200 C 
BRANCH  24  25
ATOM     25  O   LIG    1        0.929   1.679   2.681  0.00  0.00    -0.280 OA
BRANCH  25  26
ATOM     26  C   LIG    1        1.692   1.286   3.735  0.00  0.00    +0.150 A 
ATOM     27  C   LIG    1        1.225   0.311   4.605  0.00  0.00    -0.080 A 
ATOM     28  C   LIG    1        2.004  -0.090   5.673  0.00  0.00    +0.080 A 
ATOM     29  C   LIG    1        3.243   0.488   5.883  0.00  0.00    -0.130 A 
ATOM     30  C   LIG    1        3.708   1.465   5.020  0.00  0.00    +0.090 A 
ATOM     31 BR   LIG    1        4.303  -0.058   7.350  0.00  0.00    -0.050 Br
ATOM     32  C   LIG    1        2.934   1.865   3.947  0.00  0.00    -0.010 A 
ENDBRANCH  25  26
ENDBRANCH  24  25
ENDBRANCH  23  24
ENDBRANCH  21  23
ENDBRANCH   1  21
TORSDOF 9
