REMARK  Name = ZINCpk000005Hgxz.0
REMARK                            x       y       z     vdW  Elec       q    Type
REMARK                         _______ _______ _______ _____ _____    ______ ____
ROOT
ATOM      1  C   LIG    1        3.863   6.218  -4.281  0.00  0.00    +0.410 C 
ENDROOT
BRANCH   1   2
ATOM      2  C   LIG    1        3.455   5.165  -3.283  0.00  0.00    -0.030 A 
ATOM      3  C   LIG    1        3.092   5.367  -1.995  0.00  0.00    +0.150 A 
ATOM      4  N   LIG    1        2.815   4.144  -1.485  0.00  0.00    -0.290 N 
ATOM      5  N   LIG    1        2.993   3.270  -2.413  0.00  0.00    -0.080 NA
ATOM      6  N   LIG    1        3.375   3.847  -3.498  0.00  0.00    -0.240 NA
BRANCH   4   7
ATOM      7  C   LIG    1        2.380   3.865  -0.114  0.00  0.00    +0.390 C 
BRANCH   7   8
ATOM      8  C   LIG    1        1.086   3.094  -0.145  0.00  0.00    -0.130 A 
ATOM      9  C   LIG    1        1.105   1.712  -0.175  0.00  0.00    +0.090 A 
ATOM     10  C   LIG    1       -0.081   1.004  -0.204  0.00  0.00    -0.020 A 
ATOM     11  C   LIG    1       -1.290   1.679  -0.207  0.00  0.00    +0.120 A 
ATOM     12  C   LIG    1       -1.308   3.063  -0.171  0.00  0.00    -0.020 A 
ATOM     13  F   LIG    1       -2.450   0.988  -0.240  0.00  0.00    -0.130 F 
ATOM     14  C   LIG    1       -0.120   3.769  -0.143  0.00  0.00    +0.060 A 
ENDBRANCH   7   8
ENDBRANCH   4   7
ENDBRANCH   1   2
BRANCH   1  16
ATOM     15  C   LIG    1        6.055   5.488  -5.055  0.00  0.00    +0.610 C 
ATOM     16  N   LIG    1        5.324   6.332  -4.301  0.00  0.00    -0.610 N 
ATOM     17  C   LIG    1        5.989   7.363  -3.501  0.00  0.00    +0.290 C 
ATOM     18  O   LIG    1        7.270   5.527  -5.008  0.00  0.00    -0.520 OA
BRANCH  15  24
ATOM     19  C   LIG    1        5.026   1.364  -7.236  0.00  0.00    +0.090 C 
ATOM     20  C   LIG    1        4.898   2.862  -7.517  0.00  0.00    +0.160 C 
ATOM     21  N   LIG    1        3.719   3.420  -6.837  0.00  0.00    -0.510 N 
ATOM     22  H   LIG    1        2.801   3.152  -6.999  0.00  0.00    +0.460 HD
ATOM     23  N   LIG    1        4.091   4.308  -5.993  0.00  0.00    -0.060 NA
ATOM     24  C   LIG    1        5.383   4.518  -5.937  0.00  0.00    -0.170 C 
ATOM     25  C   LIG    1        6.055   3.626  -6.893  0.00  0.00    +0.390 C 
ATOM     26  O   LIG    1        7.241   3.523  -7.125  0.00  0.00    -0.410 OA
ENDBRANCH  15  24
ENDBRANCH   1  16
TORSDOF 5
