REMARK  Name = ZINCrH00000tj1nq.0
REMARK                            x       y       z     vdW  Elec       q    Type
REMARK                         _______ _______ _______ _____ _____    ______ ____
ROOT
ATOM      1  N   LIG    1        1.143   1.898   0.001  0.00  0.00    -0.650 N 
ATOM      2  H   LIG    1        1.130   2.868   0.007  0.00  0.00    +0.410 HD
ATOM      3  C   LIG    1       -0.014   1.209   0.009  0.00  0.00    +0.520 C 
ATOM      4  O   LIG    1        0.002  -0.004   0.002  0.00  0.00    -0.480 OA
ENDROOT
BRANCH   1   9
ATOM      5  C   LIG    1        4.536  -1.762  -0.052  0.00  0.00    +0.170 C 
ATOM      6  C   LIG    1        3.900  -0.396  -0.038  0.00  0.00    +0.100 A 
ATOM      7  N   LIG    1        4.541   0.746  -0.037  0.00  0.00    -0.280 NA
ATOM      8  N   LIG    1        3.599   1.782  -0.028  0.00  0.00    -0.340 N 
ATOM      9  C   LIG    1        2.360   1.218  -0.014  0.00  0.00    +0.310 A 
ATOM     10  C   LIG    1        2.528  -0.133  -0.023  0.00  0.00    -0.080 A 
BRANCH   8  11
ATOM     11  C   LIG    1        3.881   3.155  -0.031  0.00  0.00    +0.160 A 
ATOM     12  C   LIG    1        3.052   4.034  -0.714  0.00  0.00    -0.020 A 
ATOM     13  C   LIG    1        3.329   5.387  -0.710  0.00  0.00    +0.050 A 
ATOM     14  C   LIG    1        4.438   5.865  -0.036  0.00  0.00    +0.010 A 
ATOM     15  C   LIG    1        5.269   4.991   0.641  0.00  0.00    +0.040 A 
ATOM     16  C   LIG    1        4.993   3.638   0.646  0.00  0.00    +0.030 A 
ENDBRANCH   8  11
ENDBRANCH   1   9
BRANCH   3  17
ATOM     17  C   LIG    1       -1.330   1.944   0.019  0.00  0.00    +0.230 C 
BRANCH  17  18
ATOM     18  N   LIG    1       -2.433   0.975   0.019  0.00  0.00    -0.670 NA
ATOM     19  H   LIG    1       -2.354   0.337   0.796  0.00  0.00    +0.360 HD
BRANCH  18  20
ATOM     20  C   LIG    1       -3.734   1.657   0.029  0.00  0.00    +0.190 C 
ATOM     21  C   LIG    1       -4.134   2.014  -1.404  0.00  0.00    +0.050 C 
BRANCH  20  22
ATOM     22  C   LIG    1       -4.774   0.747   0.629  0.00  0.00    -0.140 A 
ATOM     23  C   LIG    1       -4.551  -0.615   0.683  0.00  0.00    +0.110 A 
ATOM     24  C   LIG    1       -5.505  -1.451   1.234  0.00  0.00    -0.010 A 
ATOM     25  C   LIG    1       -6.684  -0.924   1.732  0.00  0.00    +0.130 A 
ATOM     26  C   LIG    1       -6.908   0.441   1.679  0.00  0.00    -0.040 A 
ATOM     27  F   LIG    1       -7.616  -1.741   2.270  0.00  0.00    -0.130 F 
ATOM     28  C   LIG    1       -5.951   1.278   1.132  0.00  0.00    +0.140 A 
ATOM     29  F   LIG    1       -6.166   2.611   1.083  0.00  0.00    -0.130 F 
ENDBRANCH  20  22
ENDBRANCH  18  20
ENDBRANCH  17  18
ENDBRANCH   3  17
TORSDOF 6
