REMARK  Name = ZINCrH00000asi6b.0
REMARK                            x       y       z     vdW  Elec       q    Type
REMARK                         _______ _______ _______ _____ _____    ______ ____
ROOT
ATOM      1  C   LIG    1        5.976  -2.369   1.241  0.00  0.00    +0.070 C 
ATOM      2  C   LIG    1        4.957  -2.734   0.159  0.00  0.00    +0.140 C 
ENDROOT
BRANCH   2   3
ATOM      3  N   LIG    1        4.662  -4.172   0.228  0.00  0.00    -0.500 NA
ATOM      4  C   LIG    1        5.900  -4.961   0.279  0.00  0.00    +0.270 C 
ATOM      5  C   LIG    1        6.581  -4.946  -1.059  0.00  0.00    -0.060 C 
ATOM      6  C   LIG    1        5.971  -4.596  -2.171  0.00  0.00    -0.080 C 
ATOM      7  C   LIG    1        4.530  -4.169  -2.206  0.00  0.00    +0.030 C 
ATOM      8  C   LIG    1        3.833  -4.596  -0.912  0.00  0.00    +0.230 C 
BRANCH   6   9
ATOM      9  C   LIG    1        6.733  -4.624  -3.437  0.00  0.00    -0.100 A 
ATOM     10  C   LIG    1        7.209  -5.834  -3.954  0.00  0.00    +0.070 A 
ATOM     11  C   LIG    1        7.917  -5.806  -5.143  0.00  0.00    -0.030 A 
ATOM     12  C   LIG    1        8.130  -4.595  -5.776  0.00  0.00    +0.260 A 
ATOM     13  N   LIG    1        7.669  -3.469  -5.264  0.00  0.00    -0.480 NA
ATOM     14  C   LIG    1        6.986  -3.445  -4.139  0.00  0.00    +0.260 A 
ENDBRANCH   6   9
ENDBRANCH   2   3
BRANCH   2  15
ATOM     15  C   LIG    1        3.689  -1.950   0.378  0.00  0.00    +0.520 C 
ATOM     16  N   LIG    1        3.718  -0.603   0.357  0.00  0.00    -0.670 N 
ATOM     17  H   LIG    1        4.539  -0.139   0.133  0.00  0.00    +0.410 HD
ATOM     18  O   LIG    1        2.643  -2.531   0.573  0.00  0.00    -0.500 OA
BRANCH  16  19
ATOM     19  C   LIG    1        2.561   0.127   0.659  0.00  0.00    +0.140 A 
ATOM     20  C   LIG    1        1.314  -0.369   0.309  0.00  0.00    +0.060 A 
ATOM     21  C   LIG    1        0.174   0.353   0.609  0.00  0.00    +0.010 A 
ATOM     22  C   LIG    1        0.272   1.569   1.257  0.00  0.00    +0.030 A 
ATOM     23  C   LIG    1        1.512   2.071   1.609  0.00  0.00    -0.030 A 
ATOM     24  C   LIG    1        2.659   1.354   1.312  0.00  0.00    +0.080 A 
BRANCH  24  25
ATOM     25  O   LIG    1        3.879   1.846   1.658  0.00  0.00    -0.320 OA
BRANCH  25  26
ATOM     26  C   LIG    1        3.904   3.109   2.326  0.00  0.00    +0.590 C 
ATOM     27  F   LIG    1        3.182   3.019   3.521  0.00  0.00    -0.200 F 
ATOM     28  F   LIG    1        3.325   4.082   1.503  0.00  0.00    -0.200 F 
ENDBRANCH  25  26
ENDBRANCH  24  25
ENDBRANCH  16  19
ENDBRANCH   2  15
TORSDOF 6
