REMARK  Name = ZINCqH0000008qac.0
REMARK                            x       y       z     vdW  Elec       q    Type
REMARK                         _______ _______ _______ _____ _____    ______ ____
ROOT
ATOM      1  N   LIG    1       -3.655   2.890   0.524  0.00  0.00    -0.720 N 
ATOM      2  H   LIG    1       -3.503   1.932   0.494  0.00  0.00    +0.400 HD
ATOM      3  C   LIG    1       -4.817   3.373   1.005  0.00  0.00    +0.560 C 
ATOM      4  O   LIG    1       -5.008   4.573   1.043  0.00  0.00    -0.530 OA
ENDROOT
BRANCH   3   5
ATOM      5  C   LIG    1       -5.861   2.443   1.487  0.00  0.00    -0.140 A 
ATOM      6  C   LIG    1       -5.648   1.065   1.440  0.00  0.00    +0.040 A 
ATOM      7  C   LIG    1       -6.624   0.203   1.896  0.00  0.00    +0.010 A 
ATOM      8  C   LIG    1       -7.817   0.702   2.389  0.00  0.00    -0.060 A 
ATOM      9  C   LIG    1       -8.036   2.068   2.433  0.00  0.00    +0.010 A 
ATOM     10  C   LIG    1       -7.066   2.940   1.986  0.00  0.00    +0.090 A 
BRANCH   8  11
ATOM     11  C   LIG    1       -8.881  -0.245   2.880  0.00  0.00    +0.100 C 
BRANCH  11  12
ATOM     12  C   LIG    1       -9.810  -0.614   1.722  0.00  0.00    +0.060 C 
BRANCH  12  13
ATOM     13  C   LIG    1      -10.873  -1.561   2.214  0.00  0.00    +0.520 C 
ATOM     14  O   LIG    1      -10.887  -1.907   3.376  0.00  0.00    -0.540 OA
ATOM     15  N   LIG    1      -11.810  -2.024   1.361  0.00  0.00    -0.860 N 
ATOM     16  H   LIG    1      -12.494  -2.634   1.678  0.00  0.00    +0.400 HD
ATOM     17  H   LIG    1      -11.799  -1.748   0.432  0.00  0.00    +0.400 HD
ENDBRANCH  12  13
ENDBRANCH  11  12
ENDBRANCH   8  11
ENDBRANCH   3   5
BRANCH   1  19
ATOM     18  C   LIG    1       -2.875   4.145  -1.424  0.00  0.00    +0.040 C 
ATOM     19  C   LIG    1       -2.620   3.811   0.047  0.00  0.00    +0.280 C 
BRANCH  19  20
ATOM     20  C   LIG    1       -1.267   3.163   0.187  0.00  0.00    -0.080 A 
ATOM     21  C   LIG    1       -1.152   1.807   0.166  0.00  0.00    +0.010 A 
ATOM     22  C   LIG    1        0.090   1.190   0.301  0.00  0.00    +0.020 A 
ATOM     23  C   LIG    1        1.226   1.925   0.447  0.00  0.00    +0.030 A 
ATOM     24  C   LIG    1        1.148   3.328   0.468  0.00  0.00    -0.050 A 
ATOM     25  C   LIG    1        2.298   4.120   0.616  0.00  0.00    +0.020 A 
ATOM     26  C   LIG    1        2.184   5.477   0.631  0.00  0.00    +0.020 A 
ATOM     27  C   LIG    1        0.942   6.094   0.502  0.00  0.00    +0.020 A 
ATOM     28  C   LIG    1       -0.194   5.358   0.357  0.00  0.00    +0.020 A 
ATOM     29  C   LIG    1       -0.116   3.956   0.336  0.00  0.00    -0.040 A 
ENDBRANCH  19  20
ENDBRANCH   1  19
TORSDOF 6
