REMARK  Name = ZINCqH0000051in4.0
REMARK                            x       y       z     vdW  Elec       q    Type
REMARK                         _______ _______ _______ _____ _____    ______ ____
ROOT
ATOM      1  O   LIG    1        4.432  -0.463   0.278  0.00  0.00    -0.500 OA
ATOM      2  C   LIG    1        4.661   0.590  -0.278  0.00  0.00    +0.530 C 
ATOM      3  N   LIG    1        5.899   0.853  -0.740  0.00  0.00    -0.720 N 
ATOM      4  H   LIG    1        6.083   1.696  -1.184  0.00  0.00    +0.410 HD
ENDROOT
BRANCH   2   5
ATOM      5  C   LIG    1        3.561   1.606  -0.451  0.00  0.00    +0.190 C 
ATOM      6  C   LIG    1        3.893   2.868   0.361  0.00  0.00    +0.100 C 
ATOM      7  S   LIG    1        2.639   4.119  -0.052  0.00  0.00    -0.090 S 
ATOM      8  C   LIG    1        1.149   3.172  -0.005  0.00  0.00    -0.160 A 
ATOM      9  C   LIG    1       -0.070   3.838   0.017  0.00  0.00    +0.070 A 
ATOM     10  C   LIG    1       -1.252   3.125   0.031  0.00  0.00    +0.000 A 
ATOM     11  C   LIG    1       -1.220   1.743   0.017  0.00  0.00    +0.060 A 
ATOM     12  C   LIG    1       -0.013   1.076   0.008  0.00  0.00    +0.010 A 
ATOM     13  C   LIG    1        1.188   1.782   0.000  0.00  0.00    +0.130 A 
ATOM     14  O   LIG    1        2.335   1.065   0.017  0.00  0.00    -0.290 OA
ENDBRANCH   2   5
BRANCH   3  15
ATOM     15  C   LIG    1        6.969  -0.134  -0.572  0.00  0.00    +0.310 C 
BRANCH  15  16
ATOM     16  C   LIG    1        8.264   0.409  -1.180  0.00  0.00    +0.210 C 
BRANCH  16  17
ATOM     17  O   LIG    1        8.691   1.558  -0.446  0.00  0.00    -0.310 OA
BRANCH  17  18
ATOM     18  C   LIG    1        9.834   2.165  -0.859  0.00  0.00    +0.160 A 
ATOM     19  C   LIG    1       10.534   1.661  -1.946  0.00  0.00    -0.070 A 
ATOM     20  C   LIG    1       11.692   2.284  -2.369  0.00  0.00    +0.110 A 
ATOM     21  C   LIG    1       12.161   3.401  -1.701  0.00  0.00    -0.220 A 
ATOM     22  C   LIG    1       11.469   3.901  -0.614  0.00  0.00    +0.110 A 
ATOM     23  C   LIG    1       10.306   3.285  -0.192  0.00  0.00    -0.010 A 
BRANCH  21  24
ATOM     24  C   LIG    1       13.429   4.074  -2.160  0.00  0.00    +0.510 C 
ATOM     25  F   LIG    1       13.364   5.440  -1.868  0.00  0.00    -0.180 F 
ATOM     26  F   LIG    1       13.577   3.899  -3.540  0.00  0.00    -0.180 F 
ATOM     27  F   LIG    1       14.524   3.507  -1.498  0.00  0.00    -0.180 F 
ENDBRANCH  21  24
ENDBRANCH  17  18
ENDBRANCH  16  17
ENDBRANCH  15  16
ENDBRANCH   3  15
TORSDOF 6
