REMARK  Name = ZINCvU0000000C4q.0
REMARK                            x       y       z     vdW  Elec       q    Type
REMARK                         _______ _______ _______ _____ _____    ______ ____
ROOT
ATOM      1  C   LIG    1        8.425   1.964  -2.970  0.00  0.00    -0.030 A 
ATOM      2  C   LIG    1        9.699   2.369  -3.325  0.00  0.00    +0.060 A 
ATOM      3  C   LIG    1        9.705   2.389  -4.731  0.00  0.00    +0.070 A 
ATOM      4  N   LIG    1        8.509   2.019  -5.140  0.00  0.00    -0.240 NA
ATOM      5  N   LIG    1        7.744   1.760  -4.142  0.00  0.00    -0.210 N 
ENDROOT
BRANCH   3   6
ATOM      6  C   LIG    1       10.851   2.761  -5.597  0.00  0.00    -0.010 A 
ATOM      7  C   LIG    1       12.064   3.141  -5.027  0.00  0.00    +0.030 A 
ATOM      8  C   LIG    1       13.129   3.480  -5.837  0.00  0.00    +0.010 A 
ATOM      9  C   LIG    1       12.990   3.454  -7.213  0.00  0.00    +0.010 A 
ATOM     10  C   LIG    1       11.786   3.084  -7.785  0.00  0.00    +0.010 A 
ATOM     11  C   LIG    1       10.717   2.737  -6.984  0.00  0.00    +0.040 A 
ENDBRANCH   3   6
BRANCH   5  12
ATOM     12  C   LIG    1        6.413   1.337  -4.236  0.00  0.00    +0.120 A 
ATOM     13  C   LIG    1        6.068   0.316  -5.111  0.00  0.00    +0.050 A 
ATOM     14  C   LIG    1        4.755  -0.103  -5.198  0.00  0.00    +0.030 A 
ATOM     15  C   LIG    1        3.782   0.502  -4.422  0.00  0.00    +0.030 A 
ATOM     16  C   LIG    1        4.122   1.523  -3.553  0.00  0.00    +0.020 A 
ATOM     17  C   LIG    1        5.434   1.942  -3.458  0.00  0.00    +0.050 A 
ENDBRANCH   5  12
BRANCH   1  19
ATOM     18  O   LIG    1        8.583   2.105  -0.651  0.00  0.00    -0.480 OA
ATOM     19  C   LIG    1        7.906   1.783  -1.608  0.00  0.00    +0.550 C 
BRANCH  19  20
ATOM     20  O   LIG    1        6.678   1.260  -1.418  0.00  0.00    -0.340 OA
BRANCH  20  21
ATOM     21  C   LIG    1        6.230   1.109  -0.045  0.00  0.00    +0.410 C 
BRANCH  21  22
ATOM     22  C   LIG    1        4.846   0.513  -0.031  0.00  0.00    +0.160 A 
ATOM     23  N   LIG    1        4.556  -0.757   0.006  0.00  0.00    -0.240 NA
ATOM     24  N   LIG    1        3.278  -0.908   0.008  0.00  0.00    -0.260 NA
ATOM     25  C   LIG    1        2.702   0.274  -0.028  0.00  0.00    +0.260 A 
ATOM     26  O   LIG    1        3.687   1.196  -0.059  0.00  0.00    -0.210 OA
BRANCH  25  27
ATOM     27  C   LIG    1        1.256   0.541  -0.039  0.00  0.00    -0.160 A 
ATOM     28  C   LIG    1        0.280  -0.408  -0.013  0.00  0.00    +0.110 A 
ATOM     29  C   LIG    1       -1.003   0.093  -0.037  0.00  0.00    +0.020 A 
ATOM     30  C   LIG    1       -1.092   1.426  -0.072  0.00  0.00    -0.010 A 
ATOM     31  S   LIG    1        0.516   2.136  -0.090  0.00  0.00    +0.180 S 
ENDBRANCH  25  27
ENDBRANCH  21  22
ENDBRANCH  20  21
ENDBRANCH  19  20
ENDBRANCH   1  19
TORSDOF 7
