REMARK  Name = ZINCtV00000tRThh.0
REMARK                            x       y       z     vdW  Elec       q    Type
REMARK                         _______ _______ _______ _____ _____    ______ ____
ROOT
ATOM      1  C   LIG    1        0.889   6.022   0.026  0.00  0.00    +0.230 A 
ATOM      2  C   LIG    1        2.143   5.421   0.011  0.00  0.00    -0.120 A 
ATOM      3  C   LIG    1        2.253   4.044   0.002  0.00  0.00    +0.240 A 
ATOM      4  C   LIG    1        1.092   3.257   0.009  0.00  0.00    -0.220 A 
ATOM      5  C   LIG    1       -0.174   3.868   0.025  0.00  0.00    +0.230 A 
ATOM      6  O   LIG    1       -1.290   3.107   0.031  0.00  0.00    -0.270 OA
ATOM      7  C   LIG    1       -1.235   1.766   0.018  0.00  0.00    +0.510 A 
ATOM      8  C   LIG    1       -0.013   1.076   0.008  0.00  0.00    -0.100 A 
ATOM      9  O   LIG    1       -2.274   1.131   0.019  0.00  0.00    -0.460 OA
ATOM     10  C   LIG    1        1.173   1.789   0.001  0.00  0.00    +0.100 A 
ATOM     11  C   LIG    1       -0.263   5.251   0.033  0.00  0.00    -0.120 A 
ENDROOT
BRANCH  10  12
ATOM     12  C   LIG    1        2.481   1.096  -0.015  0.00  0.00    -0.060 A 
ATOM     13  C   LIG    1        3.351   1.218   1.069  0.00  0.00    +0.060 A 
ATOM     14  C   LIG    1        4.566   0.565   1.050  0.00  0.00    +0.000 A 
ATOM     15  C   LIG    1        4.927  -0.200  -0.045  0.00  0.00    +0.020 A 
ATOM     16  C   LIG    1        4.071  -0.320  -1.125  0.00  0.00    +0.010 A 
ATOM     17  C   LIG    1        2.851   0.323  -1.117  0.00  0.00    +0.030 A 
ENDBRANCH  10  12
BRANCH   1  18
ATOM     18  O   LIG    1        0.792   7.376   0.035  0.00  0.00    -0.300 OA
BRANCH  18  19
ATOM     19  C   LIG    1       -0.524   7.932   0.051  0.00  0.00    +0.190 C 
BRANCH  19  20
ATOM     20  C   LIG    1       -0.432   9.460   0.058  0.00  0.00    +0.040 C 
BRANCH  20  21
ATOM     21  C   LIG    1       -1.842  10.055   0.076  0.00  0.00    +0.020 C 
BRANCH  21  23
ATOM     22  C   LIG    1       -3.159  12.178   0.101  0.00  0.00    +0.000 C 
ATOM     23  C   LIG    1       -1.750  11.582   0.083  0.00  0.00    +0.000 C 
ENDBRANCH  21  23
ENDBRANCH  20  21
ENDBRANCH  19  20
ENDBRANCH  18  19
ENDBRANCH   1  18
BRANCH   3  24
ATOM     24  O   LIG    1        3.477   3.456  -0.013  0.00  0.00    -0.280 OA
BRANCH  24  25
ATOM     25  C   LIG    1        4.612   4.323  -0.020  0.00  0.00    +0.190 C 
BRANCH  25  26
ATOM     26  C   LIG    1        5.893   3.486  -0.036  0.00  0.00    +0.030 C 
BRANCH  26  27
ATOM     27  C   LIG    1        7.109   4.414  -0.043  0.00  0.00    +0.020 C 
BRANCH  27  28
ATOM     28  C   LIG    1        8.390   3.577  -0.060  0.00  0.00    +0.000 C 
ATOM     29  C   LIG    1        9.606   4.505  -0.067  0.00  0.00    +0.010 C 
ENDBRANCH  27  28
ENDBRANCH  26  27
ENDBRANCH  25  26
ENDBRANCH  24  25
ENDBRANCH   3  24
TORSDOF 11
