REMARK  Name = ZINCpk00000KfLeX.0
REMARK                            x       y       z     vdW  Elec       q    Type
REMARK                         _______ _______ _______ _____ _____    ______ ____
ROOT
ATOM      1  N   LIG    1        1.815   4.854  -1.775  0.00  0.00    -0.560 N 
ATOM      2  C   LIG    1        0.477   4.823  -1.764  0.00  0.00    +0.710 C 
ATOM      3  N   LIG    1       -0.014   4.099  -0.738  0.00  0.00    -0.710 N 
ATOM      4  H   LIG    1       -0.949   3.941  -0.532  0.00  0.00    +0.440 HD
ATOM      5  C   LIG    1        1.149   3.593   0.010  0.00  0.00    +0.170 C 
ATOM      6  C   LIG    1        1.138   4.122   1.446  0.00  0.00    +0.120 C 
ATOM      7  O   LIG    1       -0.218   5.387  -2.586  0.00  0.00    -0.530 OA
ATOM      8  C   LIG    1        2.336   4.147  -0.753  0.00  0.00    +0.540 C 
ATOM      9  O   LIG    1        3.510   3.987  -0.497  0.00  0.00    -0.450 OA
ENDROOT
BRANCH   5  10
ATOM     10  C   LIG    1        1.171   2.086   0.002  0.00  0.00    -0.090 A 
ATOM     11  C   LIG    1       -0.017   1.378   0.010  0.00  0.00    +0.050 A 
ATOM     12  C   LIG    1        0.002  -0.004   0.002  0.00  0.00    +0.030 A 
ATOM     13  C   LIG    1        1.208  -0.679  -0.014  0.00  0.00    +0.060 A 
ATOM     14  C   LIG    1        2.397   0.029  -0.021  0.00  0.00    -0.090 A 
ATOM     15 BR   LIG    1        4.047  -0.894  -0.042  0.00  0.00    -0.040 Br
ATOM     16  C   LIG    1        2.377   1.412  -0.013  0.00  0.00    +0.070 A 
ENDBRANCH   5  10
BRANCH   1  17
ATOM     17  C   LIG    1        2.613   5.568  -2.774  0.00  0.00    +0.380 C 
BRANCH  17  23
ATOM     18  N   LIG    1        4.623   4.715  -7.057  0.00  0.00    -0.730 N 
ATOM     19  H   LIG    1        4.956   5.626  -7.064  0.00  0.00    +0.400 HD
ATOM     20  C   LIG    1        3.897   4.271  -6.012  0.00  0.00    +0.690 C 
ATOM     21  N   LIG    1        3.634   5.093  -4.977  0.00  0.00    -0.690 N 
ATOM     22  H   LIG    1        3.967   6.004  -4.984  0.00  0.00    +0.410 HD
ATOM     23  C   LIG    1        2.908   4.649  -3.932  0.00  0.00    +0.500 C 
ATOM     24  O   LIG    1        2.491   3.510  -3.923  0.00  0.00    -0.450 OA
ATOM     25  O   LIG    1        3.480   3.130  -6.003  0.00  0.00    -0.530 OA
BRANCH  18  27
ATOM     26  C   LIG    1        3.740   3.854  -9.169  0.00  0.00    +0.020 C 
ATOM     27  C   LIG    1        4.909   3.822  -8.182  0.00  0.00    +0.240 C 
ATOM     28  C   LIG    1        6.186   4.284  -8.889  0.00  0.00    +0.040 C 
ENDBRANCH  18  27
ENDBRANCH  17  23
ENDBRANCH   1  17
TORSDOF 4
