REMARK  Name = ZINCrH000004pNQ1.0
REMARK                            x       y       z     vdW  Elec       q    Type
REMARK                         _______ _______ _______ _____ _____    ______ ____
ROOT
ATOM      1  C   LIG    1        6.300   2.476   0.613  0.00  0.00    -0.060 A 
ATOM      2  C   LIG    1        6.020   1.300   1.285  0.00  0.00    +0.030 A 
ATOM      3  C   LIG    1        4.734   0.799   1.299  0.00  0.00    +0.080 A 
ATOM      4  C   LIG    1        3.716   1.482   0.632  0.00  0.00    -0.130 A 
ATOM      5  C   LIG    1        4.006   2.664  -0.049  0.00  0.00    +0.040 A 
ATOM      6  C   LIG    1        5.295   3.157  -0.050  0.00  0.00    +0.010 A 
ENDROOT
BRANCH   4   7
ATOM      7  C   LIG    1        2.336   0.951   0.643  0.00  0.00    +0.560 C 
ATOM      8  N   LIG    1        1.355   1.612  -0.002  0.00  0.00    -0.720 N 
ATOM      9  H   LIG    1        1.553   2.436  -0.473  0.00  0.00    +0.400 HD
ATOM     10  O   LIG    1        2.087  -0.083   1.233  0.00  0.00    -0.530 OA
BRANCH   8  11
ATOM     11  C   LIG    1       -0.013   1.086   0.008  0.00  0.00    +0.280 C 
ATOM     12  C   LIG    1       -0.800   1.617  -1.208  0.00  0.00    +0.050 C 
ATOM     13  C   LIG    1       -1.478   2.882  -0.635  0.00  0.00    +0.070 C 
ATOM     14  C   LIG    1       -1.604   2.627   0.851  0.00  0.00    -0.090 A 
ATOM     15  C   LIG    1       -2.393   3.248   1.804  0.00  0.00    +0.010 A 
ATOM     16  C   LIG    1       -2.341   2.840   3.123  0.00  0.00    +0.010 A 
ATOM     17  C   LIG    1       -1.499   1.808   3.493  0.00  0.00    -0.010 A 
ATOM     18  C   LIG    1       -0.711   1.187   2.543  0.00  0.00    +0.040 A 
ATOM     19  C   LIG    1       -0.762   1.594   1.221  0.00  0.00    -0.120 A 
ENDBRANCH   8  11
ENDBRANCH   4   7
BRANCH   1  20
ATOM     20  C   LIG    1        7.707   3.017   0.602  0.00  0.00    +0.230 C 
BRANCH  20  24
ATOM     21  C   LIG    1       11.778   3.268  -2.153  0.00  0.00    +0.050 C 
ATOM     22  C   LIG    1       10.470   2.512  -1.908  0.00  0.00    +0.160 C 
ATOM     23  C   LIG    1        9.723   3.151  -0.734  0.00  0.00    +0.150 C 
ATOM     24  N   LIG    1        8.432   2.470  -0.553  0.00  0.00    -0.530 NA
ATOM     25  C   LIG    1        7.621   2.558  -1.775  0.00  0.00    +0.150 C 
ATOM     26  C   LIG    1        8.389   1.925  -2.938  0.00  0.00    +0.160 C 
ATOM     27  C   LIG    1        7.585   2.084  -4.230  0.00  0.00    +0.050 C 
ATOM     28  O   LIG    1        9.653   2.579  -3.080  0.00  0.00    -0.380 OA
ENDBRANCH  20  24
ENDBRANCH   1  20
TORSDOF 4
