REMARK  Name = ZINCpk000000n38o.0
REMARK                            x       y       z     vdW  Elec       q    Type
REMARK                         _______ _______ _______ _____ _____    ______ ____
ROOT
ATOM      1  C   LIG    1       -1.230   1.759   0.017  0.00  0.00    -0.070 A 
ATOM      2  C   LIG    1       -0.013   1.076   0.008  0.00  0.00    +0.080 A 
ATOM      3  C   LIG    1        1.172   1.783   0.000  0.00  0.00    +0.120 A 
ATOM      4  C   LIG    1        1.155   3.167   0.008  0.00  0.00    -0.650 A 
ATOM      5  C   LIG    1       -0.048   3.850   0.023  0.00  0.00    +0.120 A 
ATOM      6  C   LIG    1       -1.240   3.155   0.031  0.00  0.00    +0.070 A 
ENDROOT
BRANCH   4   7
ATOM      7  S   LIG    1        2.672   4.063  -0.002  0.00  0.00    +2.690 S 
ATOM      8  O   LIG    1        3.658   3.188   0.529  0.00  0.00    -0.940 OA
ATOM      9  O   LIG    1        2.387   5.340   0.551  0.00  0.00    -0.940 OA
BRANCH   7  10
ATOM     10  N   LIG    1        3.079   4.320  -1.587  0.00  0.00    -1.000 NA
ATOM     11  C   LIG    1        3.912   3.354  -2.321  0.00  0.00    +0.270 C 
ATOM     12  C   LIG    1        3.206   3.022  -3.645  0.00  0.00    +0.220 C 
ATOM     13  O   LIG    1        2.894   4.239  -4.328  0.00  0.00    -0.370 OA
ATOM     14  C   LIG    1        1.986   5.089  -3.624  0.00  0.00    +0.220 C 
ATOM     15  C   LIG    1        2.624   5.524  -2.300  0.00  0.00    +0.270 C 
ENDBRANCH   7  10
ENDBRANCH   4   7
BRANCH   1  16
ATOM     16  C   LIG    1       -2.502   1.008   0.020  0.00  0.00    +0.510 C 
ATOM     17  O   LIG    1       -2.491  -0.206   0.014  0.00  0.00    -0.490 OA
BRANCH  16  18
ATOM     18  O   LIG    1       -3.675   1.670   0.029  0.00  0.00    -0.330 OA
BRANCH  18  19
ATOM     19  C   LIG    1       -4.886   0.868   0.031  0.00  0.00    +0.230 C 
BRANCH  19  20
ATOM     20  C   LIG    1       -6.089   1.774   0.041  0.00  0.00    +0.360 C 
ATOM     21  O   LIG    1       -5.943   2.973   0.047  0.00  0.00    -0.420 OA
BRANCH  20  23
ATOM     22  C   LIG    1       -8.510   2.313   0.056  0.00  0.00    +0.050 C 
ATOM     23  C   LIG    1       -7.476   1.185   0.045  0.00  0.00    -0.110 C 
ATOM     24  C   LIG    1       -7.657   0.315   1.291  0.00  0.00    +0.060 C 
ATOM     25  C   LIG    1       -7.670   0.328  -1.207  0.00  0.00    +0.060 C 
ENDBRANCH  20  23
ENDBRANCH  19  20
ENDBRANCH  18  19
ENDBRANCH  16  18
ENDBRANCH   1  16
TORSDOF 7
