REMARK  Name = ZINCzw0000000iKl.0
REMARK                            x       y       z     vdW  Elec       q    Type
REMARK                         _______ _______ _______ _____ _____    ______ ____
ROOT
ATOM      1  C   LIG    1       -3.058  -2.636   2.836  0.00  0.00    +0.520 C 
ATOM      2  N   LIG    1       -1.725  -2.799   2.725  0.00  0.00    -0.740 N 
ATOM      3  H   LIG    1       -1.367  -3.601   2.314  0.00  0.00    +0.410 HD
ATOM      4  O   LIG    1       -3.507  -1.633   3.349  0.00  0.00    -0.530 OA
ENDROOT
BRANCH   1   5
ATOM      5  C   LIG    1       -3.992  -3.702   2.321  0.00  0.00    +0.060 C 
BRANCH   5   6
ATOM      6  C   LIG    1       -5.440  -3.273   2.569  0.00  0.00    +0.140 C 
BRANCH   6   9
ATOM      7  C   LIG    1       -6.455  -5.304   4.345  0.00  0.00    +0.140 C 
ATOM      8  C   LIG    1       -6.857  -5.301   2.893  0.00  0.00    +0.240 A 
ATOM      9  C   LIG    1       -6.374  -4.338   2.054  0.00  0.00    -0.330 A 
ATOM     10  C   LIG    1       -6.758  -4.360   0.702  0.00  0.00    +0.550 A 
ATOM     11  N   LIG    1       -7.596  -5.331   0.281  0.00  0.00    -0.660 N 
ATOM     12  H   LIG    1       -7.874  -5.365  -0.648  0.00  0.00    +0.410 HD
ATOM     13  C   LIG    1       -8.050  -6.261   1.164  0.00  0.00    +0.640 A 
ATOM     14  O   LIG    1       -6.341  -3.518  -0.076  0.00  0.00    -0.540 OA
ATOM     15  N   LIG    1       -7.686  -6.234   2.430  0.00  0.00    -0.590 NA
BRANCH  13  16
ATOM     16  N   LIG    1       -8.900  -7.243   0.729  0.00  0.00    -0.590 N 
ATOM     17  C   LIG    1       -9.238  -7.375  -0.697  0.00  0.00    +0.260 C 
ATOM     18  C   LIG    1       -9.015  -8.840  -1.108  0.00  0.00    +0.230 C 
ATOM     19  O   LIG    1       -9.724  -9.693  -0.206  0.00  0.00    -0.370 OA
ATOM     20  C   LIG    1       -9.276  -9.614   1.149  0.00  0.00    +0.220 C 
ATOM     21  C   LIG    1       -9.507  -8.192   1.675  0.00  0.00    +0.300 C 
ENDBRANCH  13  16
ENDBRANCH   6   9
ENDBRANCH   5   6
ENDBRANCH   1   5
BRANCH   2  22
ATOM     22  C   LIG    1       -0.817  -1.763   3.224  0.00  0.00    +0.300 C 
BRANCH  22  23
ATOM     23  C   LIG    1        0.609  -2.185   2.981  0.00  0.00    -0.090 A 
ATOM     24  C   LIG    1        1.352  -2.736   4.008  0.00  0.00    +0.050 A 
ATOM     25  C   LIG    1        2.662  -3.118   3.786  0.00  0.00    +0.060 A 
ATOM     26  C   LIG    1        3.227  -2.954   2.535  0.00  0.00    +0.040 A 
ATOM     27  C   LIG    1        2.482  -2.408   1.506  0.00  0.00    +0.050 A 
ATOM     28  C   LIG    1        1.173  -2.026   1.728  0.00  0.00    -0.140 A 
BRANCH  28  29
ATOM     29  C   LIG    1        0.361  -1.431   0.607  0.00  0.00    +0.310 C 
BRANCH  29  30
ATOM     30  N   LIG    1        0.332   0.032   0.746  0.00  0.00    -0.380 N 
ATOM     31  C   LIG    1       -0.555   0.601  -0.275  0.00  0.00    +0.250 C 
ATOM     32  C   LIG    1       -0.652   2.116  -0.084  0.00  0.00    +0.010 C 
ATOM     33  C   LIG    1        0.744   2.732  -0.218  0.00  0.00    +0.050 C 
ATOM     34  C   LIG    1        1.679   2.078   0.802  0.00  0.00    -0.020 C 
ATOM     35  C   LIG    1        3.095   2.630   0.625  0.00  0.00    +0.070 C 
ATOM     36  C   LIG    1       -1.214   2.421   1.305  0.00  0.00    +0.050 C 
ATOM     37  C   LIG    1        1.690   0.564   0.579  0.00  0.00    +0.250 C 
ATOM     38  H   LIG    1       -0.012   0.274   1.663  0.00  0.00    +0.420 HD
ENDBRANCH  29  30
ENDBRANCH  28  29
ENDBRANCH  22  23
ENDBRANCH   2  22
TORSDOF 8
