REMARK  Name = ZINCrD00000j2QDj.0
REMARK                            x       y       z     vdW  Elec       q    Type
REMARK                         _______ _______ _______ _____ _____    ______ ____
ROOT
ATOM      1  N   LIG    1       10.076  -0.725   0.108  0.00  0.00    -0.550 N 
ATOM      2  C   LIG    1       10.933  -0.492   1.119  0.00  0.00    +0.520 C 
ATOM      3  C   LIG    1       10.428  -0.093   2.480  0.00  0.00    +0.070 C 
ATOM      4  C   LIG    1        9.190   0.792   2.337  0.00  0.00    +0.090 C 
ATOM      5  C   LIG    1        8.220   0.150   1.379  0.00  0.00    -0.070 A 
ATOM      6  C   LIG    1        6.860   0.291   1.573  0.00  0.00    -0.030 A 
ATOM      7  C   LIG    1        5.968  -0.303   0.688  0.00  0.00    +0.200 A 
ATOM      8  C   LIG    1        6.445  -1.042  -0.387  0.00  0.00    -0.040 A 
ATOM      9  C   LIG    1        7.805  -1.177  -0.583  0.00  0.00    +0.030 A 
ATOM     10  O   LIG    1       12.126  -0.605   0.932  0.00  0.00    -0.530 OA
ATOM     11  C   LIG    1        8.696  -0.584   0.301  0.00  0.00    +0.110 A 
ENDROOT
BRANCH   7  12
ATOM     12  N   LIG    1        4.590  -0.161   0.883  0.00  0.00    -0.740 N 
ATOM     13  H   LIG    1        4.258   0.352   1.637  0.00  0.00    +0.400 HD
BRANCH  12  14
ATOM     14  C   LIG    1        3.650  -0.787  -0.049  0.00  0.00    +0.270 C 
ATOM     15  C   LIG    1        3.417  -2.241   0.364  0.00  0.00    +0.210 C 
ATOM     16  O   LIG    1        2.315  -2.756  -0.392  0.00  0.00    -0.360 OA
ATOM     17  C   LIG    1        1.059  -2.199  -0.006  0.00  0.00    +0.310 C 
ATOM     18  C   LIG    1        1.133  -0.693  -0.012  0.00  0.00    +0.110 A 
ATOM     19  N   LIG    1        0.002  -0.004   0.002  0.00  0.00    -0.480 NA
ATOM     20  C   LIG    1       -0.016   1.312   0.009  0.00  0.00    +0.270 A 
ATOM     21  C   LIG    1        1.162   2.035   0.002  0.00  0.00    -0.030 A 
ATOM     22  C   LIG    1        2.368   1.352  -0.016  0.00  0.00    +0.080 A 
ATOM     23  C   LIG    1        2.345  -0.036  -0.024  0.00  0.00    -0.150 A 
ENDBRANCH  12  14
ENDBRANCH   7  12
BRANCH   1  24
ATOM     24  C   LIG    1       10.591  -1.129  -1.203  0.00  0.00    +0.300 C 
BRANCH  24  25
ATOM     25  C   LIG    1       10.683  -2.655  -1.266  0.00  0.00    +0.020 C 
BRANCH  25  26
ATOM     26  C   LIG    1       11.220  -3.077  -2.635  0.00  0.00    +0.200 C 
BRANCH  26  28
ATOM     27  N   LIG    1       11.377  -5.678  -2.744  0.00  0.00    -0.430 NA
ATOM     28  C   LIG    1       11.309  -4.545  -2.696  0.00  0.00    +0.200 C 
ENDBRANCH  26  28
ENDBRANCH  25  26
ENDBRANCH  24  25
ENDBRANCH   1  24
TORSDOF 6
