REMARK  Name = ZINCtV000002M8Sa.0
REMARK                            x       y       z     vdW  Elec       q    Type
REMARK                         _______ _______ _______ _____ _____    ______ ____
ROOT
ATOM      1  C   LIG    1        2.468   5.132   0.781  0.00  0.00    +0.340 C 
ENDROOT
BRANCH   1   2
ATOM      2  N   LIG    1        2.361   3.901  -0.005  0.00  0.00    -0.580 N 
ATOM      3  C   LIG    1        1.160   3.183   0.007  0.00  0.00    +0.190 A 
ATOM      4  C   LIG    1       -0.053   3.852   0.024  0.00  0.00    -0.020 A 
ATOM      5  C   LIG    1       -1.238   3.136   0.032  0.00  0.00    +0.050 A 
ATOM      6  C   LIG    1       -1.220   1.754   0.017  0.00  0.00    +0.000 A 
ATOM      7  C   LIG    1       -0.013   1.076   0.008  0.00  0.00    +0.080 A 
ATOM      8  C   LIG    1        1.174   1.786   0.000  0.00  0.00    -0.150 A 
ATOM      9  S   LIG    1        2.725   0.944  -0.016  0.00  0.00    +0.010 S 
ATOM     10  C   LIG    1        3.756   2.106  -0.853  0.00  0.00    -0.150 A 
ATOM     11  C   LIG    1        4.839   1.678  -1.598  0.00  0.00    +0.070 A 
ATOM     12  C   LIG    1        5.638   2.605  -2.246  0.00  0.00    +0.000 A 
ATOM     13  C   LIG    1        5.353   3.954  -2.148  0.00  0.00    +0.050 A 
ATOM     14  C   LIG    1        4.269   4.388  -1.404  0.00  0.00    -0.020 A 
ATOM     15  C   LIG    1        3.463   3.468  -0.753  0.00  0.00    +0.190 A 
ENDBRANCH   1   2
BRANCH   1  16
ATOM     16  C   LIG    1        2.038   6.324  -0.076  0.00  0.00    +0.080 C 
BRANCH  16  18
ATOM     17  O   LIG    1        2.531   7.544   1.878  0.00  0.00    -0.500 OA
ATOM     18  C   LIG    1        2.147   7.590   0.734  0.00  0.00    +0.470 C 
BRANCH  18  19
ATOM     19  O   LIG    1        1.819   8.769   0.182  0.00  0.00    -0.350 OA
BRANCH  19  20
ATOM     20  C   LIG    1        1.950   9.948   1.021  0.00  0.00    +0.350 C 
BRANCH  20  21
ATOM     21  C   LIG    1        1.540  11.169   0.238  0.00  0.00    +0.070 A 
ATOM     22  N   LIG    1        0.346  11.625   0.189  0.00  0.00    -0.440 NA
ATOM     23  C   LIG    1        0.124  12.729  -0.549  0.00  0.00    +0.080 A 
ATOM     24  C   LIG    1       -1.074  13.438  -0.771  0.00  0.00    +0.080 A 
ATOM     25  C   LIG    1       -1.084  14.543  -1.567  0.00  0.00    +0.030 A 
ATOM     26  C   LIG    1        0.081  14.993  -2.173  0.00  0.00    +0.050 A 
ATOM     27  C   LIG    1        1.266  14.321  -1.972  0.00  0.00    +0.060 A 
ATOM     28  C   LIG    1        1.295  13.189  -1.162  0.00  0.00    -0.180 A 
ATOM     29  S   LIG    1        2.610  12.111  -0.700  0.00  0.00    +0.130 S 
ENDBRANCH  20  21
ENDBRANCH  19  20
ENDBRANCH  18  19
ENDBRANCH  16  18
ENDBRANCH   1  16
TORSDOF 6
