REMARK  Name = ZINCpk00000eabjz.1
REMARK                            x       y       z     vdW  Elec       q    Type
REMARK                         _______ _______ _______ _____ _____    ______ ____
ROOT
ATOM      1  C   LIG    1       -0.005  -0.456  -2.504  0.00  0.00    +0.530 C 
ATOM      2  N   LIG    1        0.786  -1.147  -1.659  0.00  0.00    -0.720 N 
ATOM      3  H   LIG    1        0.519  -1.268  -0.735  0.00  0.00    +0.400 HD
ATOM      4  O   LIG    1        0.292  -0.366  -3.676  0.00  0.00    -0.520 OA
ENDROOT
BRANCH   1   5
ATOM      5  C   LIG    1       -1.260   0.204  -1.992  0.00  0.00    +0.150 C 
BRANCH   5   6
ATOM      6  C   LIG    1       -0.918   1.589  -1.440  0.00  0.00    +0.090 C 
ATOM      7  C   LIG    1       -0.287   2.455  -2.544  0.00  0.00    +0.050 C 
ATOM      8  C   LIG    1        1.128   2.830  -2.057  0.00  0.00    +0.020 C 
ATOM      9  C   LIG    1        1.043   2.707  -0.515  0.00  0.00    +0.020 C 
ATOM     10  C   LIG    1        0.135   1.467  -0.320  0.00  0.00    -0.010 C 
BRANCH   6  12
ATOM     11  C   LIG    1       -2.721   1.515   0.137  0.00  0.00    +0.210 C 
ATOM     12  O   LIG    1       -2.098   2.220  -0.938  0.00  0.00    -0.370 OA
ENDBRANCH   6  12
ENDBRANCH   5   6
BRANCH   5  13
ATOM     13  N   LIG    1       -2.226   0.338  -3.090  0.00  0.00    -0.820 NA
ATOM     14  H   LIG    1       -1.820   0.834  -3.870  0.00  0.00    +0.350 HD
ATOM     15  H   LIG    1       -3.071   0.790  -2.775  0.00  0.00    +0.350 HD
ENDBRANCH   5  13
ENDBRANCH   1   5
BRANCH   2  16
ATOM     16  C   LIG    1        2.049  -1.714  -2.138  0.00  0.00    +0.330 C 
BRANCH  16  17
ATOM     17  C   LIG    1        2.738  -2.431  -1.006  0.00  0.00    -0.090 A 
ATOM     18  C   LIG    1        3.772  -1.818  -0.326  0.00  0.00    +0.040 A 
ATOM     19  C   LIG    1        4.402  -2.473   0.716  0.00  0.00    +0.010 A 
ATOM     20  C   LIG    1        4.006  -3.749   1.074  0.00  0.00    +0.020 A 
ATOM     21  C   LIG    1        2.977  -4.371   0.395  0.00  0.00    -0.030 A 
ATOM     22  C   LIG    1        2.338  -3.713  -0.648  0.00  0.00    +0.100 A 
BRANCH  22  23
ATOM     23  N   LIG    1        1.297  -4.339  -1.337  0.00  0.00    -0.500 N 
ATOM     24  C   LIG    1        0.154  -4.592  -0.448  0.00  0.00    +0.160 C 
ATOM     25  C   LIG    1       -0.984  -5.223  -1.255  0.00  0.00    +0.220 C 
ATOM     26  O   LIG    1       -0.511  -6.418  -1.883  0.00  0.00    -0.380 OA
ATOM     27  C   LIG    1        0.602  -6.208  -2.756  0.00  0.00    +0.220 C 
ATOM     28  C   LIG    1        1.755  -5.587  -1.965  0.00  0.00    +0.160 C 
ENDBRANCH  22  23
ENDBRANCH  16  17
ENDBRANCH   2  16
TORSDOF 7
