REMARK  Name = ZINCkj00000U1MXd.0
REMARK                            x       y       z     vdW  Elec       q    Type
REMARK                         _______ _______ _______ _____ _____    ______ ____
ROOT
ATOM      1  O   LIG    1       -2.650   6.924  -0.038  0.00  0.00    -0.500 OA
ATOM      2  C   LIG    1       -1.438   6.892   0.052  0.00  0.00    +0.610 C 
ATOM      3  N   LIG    1       -0.739   8.040   0.154  0.00  0.00    -0.640 N 
ATOM      4  C   LIG    1        0.684   8.413   0.184  0.00  0.00    +0.320 C 
ATOM      5  C   LIG    1        0.276   9.778  -0.382  0.00  0.00    +0.010 C 
ATOM      6  C   LIG    1        0.209   9.828  -1.905  0.00  0.00    +0.100 C 
ATOM      7  C   LIG    1       -0.421  11.158  -2.334  0.00  0.00    +0.040 C 
ATOM      8  C   LIG    1        0.364  12.310  -1.700  0.00  0.00    +0.050 C 
ATOM      9  C   LIG    1        0.341  12.166  -0.178  0.00  0.00    +0.260 C 
ATOM     10  N   LIG    1        0.994  10.907   0.209  0.00  0.00    -0.490 N 
ATOM     11  H   LIG    1        1.947  10.909  -0.120  0.00  0.00    +0.430 HD
ATOM     12  H   LIG    1        0.987  10.821   1.214  0.00  0.00    +0.430 HD
ATOM     13  C   LIG    1       -1.064   9.468   0.289  0.00  0.00    +0.330 C 
ENDROOT
BRANCH   2  14
ATOM     14  C   LIG    1       -0.732   5.596   0.051  0.00  0.00    -0.120 A 
ATOM     15  C   LIG    1       -1.425   4.420  -0.186  0.00  0.00    +0.150 A 
ATOM     16  C   LIG    1       -0.724   3.204  -0.180  0.00  0.00    +0.080 A 
ATOM     17  C   LIG    1       -1.116   1.885  -0.383  0.00  0.00    -0.070 A 
ATOM     18  C   LIG    1        0.010   1.089  -0.255  0.00  0.00    +0.280 A 
ATOM     19  N   LIG    1        1.048   1.853   0.004  0.00  0.00    -0.300 NA
ATOM     20  N   LIG    1        0.628   3.189   0.059  0.00  0.00    -0.280 N 
ATOM     21  C   LIG    1        1.304   4.355   0.292  0.00  0.00    +0.300 A 
ATOM     22  C   LIG    1        0.664   5.538   0.294  0.00  0.00    -0.020 A 
ENDBRANCH   2  14
TORSDOF 1
