REMARK  Name = ZINCbu0000000GKU.0
REMARK                            x       y       z     vdW  Elec       q    Type
REMARK                         _______ _______ _______ _____ _____    ______ ____
ROOT
ATOM      1  C   LIG    1        0.002  -0.004   0.002  0.00  0.00    -0.090 A 
ATOM      2  C   LIG    1       -0.017   1.379   0.010  0.00  0.00    -0.020 A 
ATOM      3  C   LIG    1        1.172   2.087   0.002  0.00  0.00    +0.050 A 
ATOM      4  C   LIG    1        2.378   1.412  -0.013  0.00  0.00    +0.070 A 
ATOM      5  C   LIG    1        2.398   0.030  -0.021  0.00  0.00    +0.050 A 
ATOM      6 CL   LIG    1       -1.532   2.227   0.021  0.00  0.00    -0.050 Cl
ATOM      7  C   LIG    1        1.210  -0.679  -0.013  0.00  0.00    -0.020 A 
ATOM      8 CL   LIG    1        1.234  -2.415  -0.022  0.00  0.00    -0.050 Cl
ENDROOT
BRANCH   1   9
ATOM      9  C   LIG    1       -1.292  -0.776   0.011  0.00  0.00    +0.100 C 
BRANCH   9  10
ATOM     10  C   LIG    1       -1.745  -1.029  -1.429  0.00  0.00    +0.270 C 
BRANCH  10  11
ATOM     11  N   LIG    1       -3.007  -1.781  -1.420  0.00  0.00    -0.640 N 
ATOM     12  H   LIG    1       -2.869  -2.663  -0.951  0.00  0.00    +0.440 HD
ATOM     13  H   LIG    1       -3.305  -1.948  -2.369  0.00  0.00    +0.440 HD
ATOM     14  H   LIG    1       -3.713  -1.248  -0.935  0.00  0.00    +0.440 HD
ENDBRANCH  10  11
ENDBRANCH   9  10
ENDBRANCH   1   9
TORSDOF 3
