REMARK  Name = ZINCb80000002GOW.0
REMARK                            x       y       z     vdW  Elec       q    Type
REMARK                         _______ _______ _______ _____ _____    ______ ____
ROOT
ATOM      1  O   LIG    1       -0.953   1.694  -2.252  0.00  0.00    -0.500 OA
ATOM      2  C   LIG    1       -0.925   1.676  -1.040  0.00  0.00    +0.540 C 
ATOM      3  C   LIG    1       -0.013   1.086   0.008  0.00  0.00    +0.040 C 
ATOM      4  C   LIG    1       -0.918   1.673   1.096  0.00  0.00    +0.260 C 
ATOM      5  N   LIG    1       -1.696   2.174  -0.050  0.00  0.00    -0.740 N 
ATOM      6  H   LIG    1       -2.511   2.700  -0.083  0.00  0.00    +0.390 HD
ENDROOT
BRANCH   4   7
ATOM      7  C   LIG    1       -1.646   0.623   1.938  0.00  0.00    -0.050 C 
ATOM      8  C   LIG    1       -2.515   1.315   3.008  0.00  0.00    +0.040 C 
ATOM      9  C   LIG    1       -2.376   0.394   4.247  0.00  0.00    +0.040 C 
ATOM     10  C   LIG    1       -0.896  -0.055   4.162  0.00  0.00    +0.030 C 
ATOM     11  C   LIG    1       -0.640  -0.236   2.676  0.00  0.00    +0.380 C 
ATOM     12  O   LIG    1        0.208  -0.935   2.176  0.00  0.00    -0.430 OA
ENDBRANCH   4   7
TORSDOF 1
