REMARK  Name = ZINCpk00000eaeuX.0
REMARK                            x       y       z     vdW  Elec       q    Type
REMARK                         _______ _______ _______ _____ _____    ______ ____
ROOT
ATOM      1  N   LIG    1       -4.552  -0.093  -0.540  0.00  0.00    -0.650 N 
ATOM      2  H   LIG    1       -4.926   0.561  -1.151  0.00  0.00    +0.420 HD
ATOM      3  C   LIG    1       -3.600   0.275   0.341  0.00  0.00    +0.500 C 
ATOM      4  O   LIG    1       -3.206  -0.516   1.172  0.00  0.00    -0.500 OA
ENDROOT
BRANCH   1  10
ATOM      5  C   LIG    1       -6.274  -1.724  -1.059  0.00  0.00    +0.310 A 
ATOM      6  N   LIG    1       -6.697  -2.976  -1.096  0.00  0.00    -0.520 NA
ATOM      7  C   LIG    1       -5.946  -3.974  -0.669  0.00  0.00    +0.290 A 
ATOM      8  C   LIG    1       -4.679  -3.748  -0.169  0.00  0.00    -0.050 A 
ATOM      9  C   LIG    1       -4.191  -2.451  -0.117  0.00  0.00    +0.110 A 
ATOM     10  C   LIG    1       -5.002  -1.419  -0.573  0.00  0.00    +0.080 A 
BRANCH   5  11
ATOM     11  O   LIG    1       -7.081  -0.728  -1.503  0.00  0.00    -0.300 OA
BRANCH  11  12
ATOM     12  C   LIG    1       -8.371  -1.106  -1.988  0.00  0.00    +0.240 C 
BRANCH  12  13
ATOM     13  C   LIG    1       -9.131   0.142  -2.442  0.00  0.00    +0.200 C 
BRANCH  13  15
ATOM     14  C   LIG    1       -9.095   1.905  -4.066  0.00  0.00    +0.200 C 
ATOM     15  O   LIG    1       -8.463   0.727  -3.561  0.00  0.00    -0.390 OA
ENDBRANCH  13  15
ENDBRANCH  12  13
ENDBRANCH  11  12
ENDBRANCH   5  11
ENDBRANCH   1  10
BRANCH   3  16
ATOM     16  C   LIG    1       -3.027   1.667   0.293  0.00  0.00    +0.400 C 
BRANCH  16  17
ATOM     17  N   LIG    1       -2.018   1.816   1.345  0.00  0.00    -0.340 N 
ATOM     18  N   LIG    1       -2.253   2.252   2.655  0.00  0.00    -0.260 NA
ATOM     19  C   LIG    1       -1.111   2.260   3.294  0.00  0.00    +0.140 A 
ATOM     20  C   LIG    1       -0.115   1.825   2.414  0.00  0.00    -0.180 A 
ATOM     21  C   LIG    1       -0.904   2.667   4.730  0.00  0.00    +0.170 C 
ATOM     22  C   LIG    1       -0.700   1.555   1.224  0.00  0.00    +0.170 A 
ATOM     23  C   LIG    1       -0.003   1.058  -0.017  0.00  0.00    +0.180 C 
BRANCH  20  24
ATOM     24  N   LIG    1        1.325   1.684   2.728  0.00  0.00    +0.050 N 
ATOM     25  O   LIG    1        1.752   0.630   3.164  0.00  0.00    -0.130 OA
ATOM     26  O   LIG    1        2.082   2.621   2.551  0.00  0.00    -0.140 OA
ENDBRANCH  20  24
ENDBRANCH  16  17
ENDBRANCH   3  16
TORSDOF 8
