REMARK  Name = ZINCnE00000rhnuy.1
REMARK                            x       y       z     vdW  Elec       q    Type
REMARK                         _______ _______ _______ _____ _____    ______ ____
ROOT
ATOM      1  O   LIG    1        0.824  -3.075  -0.042  0.00  0.00    -0.470 OA
ATOM      2  C   LIG    1        1.577  -2.116  -0.055  0.00  0.00    +0.410 C 
ATOM      3  C   LIG    1        1.217  -0.687  -0.069  0.00  0.00    -0.400 A 
ATOM      4  C   LIG    1       -0.003  -0.010  -0.071  0.00  0.00    +0.140 A 
ATOM      5  C   LIG    1       -0.024   1.356  -0.085  0.00  0.00    -0.170 A 
ATOM      6  C   LIG    1        1.169   2.074  -0.098  0.00  0.00    +0.320 A 
ATOM      7  C   LIG    1        2.388   1.415  -0.095  0.00  0.00    -0.160 A 
ATOM      8  O   LIG    1        1.138   3.431  -0.112  0.00  0.00    -0.690 OA
ATOM      9  C   LIG    1        2.427   0.026  -0.081  0.00  0.00    +0.160 A 
ATOM     10  O   LIG    1        3.465  -0.838  -0.076  0.00  0.00    -0.230 OA
ATOM     11  C   LIG    1        3.047  -2.126  -0.060  0.00  0.00    +0.020 C 
ATOM     12  C   LIG    1        3.841  -3.227  -0.052  0.00  0.00    +0.070 C 
ENDROOT
BRANCH  12  13
ATOM     13  C   LIG    1        5.297  -3.083  -0.176  0.00  0.00    -0.030 A 
ATOM     14  C   LIG    1        5.879  -1.809  -0.181  0.00  0.00    +0.070 A 
ATOM     15  C   LIG    1        7.246  -1.679  -0.294  0.00  0.00    -0.030 A 
ATOM     16  C   LIG    1        8.051  -2.807  -0.413  0.00  0.00    +0.060 A 
ATOM     17  O   LIG    1        9.397  -2.653  -0.535  0.00  0.00    -0.290 OA
ATOM     18  C   LIG    1       10.204  -3.806  -0.272  0.00  0.00    +0.220 C 
ATOM     19  C   LIG    1        9.586  -5.002  -1.008  0.00  0.00    +0.220 C 
ATOM     20  O   LIG    1        8.254  -5.191  -0.519  0.00  0.00    -0.300 OA
ATOM     21  C   LIG    1        7.478  -4.078  -0.412  0.00  0.00    +0.060 A 
ATOM     22 CL   LIG    1        7.967  -0.100  -0.293  0.00  0.00    -0.050 Cl
ATOM     23  C   LIG    1        6.108  -4.218  -0.295  0.00  0.00    +0.040 A 
ENDBRANCH  12  13
TORSDOF 1
