REMARK  Name = ZINCpk00000y6uv3.1
REMARK                            x       y       z     vdW  Elec       q    Type
REMARK                         _______ _______ _______ _____ _____    ______ ____
ROOT
ATOM      1  O   LIG    1        1.060  -0.596  -0.011  0.00  0.00    -0.530 OA
ATOM      2  C   LIG    1        0.002  -0.004   0.002  0.00  0.00    +0.520 C 
ATOM      3  N   LIG    1       -0.016   1.344   0.009  0.00  0.00    -0.610 N 
ATOM      4  C   LIG    1       -1.290   2.075   0.019  0.00  0.00    +0.260 C 
ATOM      5  C   LIG    1       -1.301   3.072  -1.137  0.00  0.00    +0.030 C 
ATOM      6  C   LIG    1       -0.062   3.966  -1.048  0.00  0.00    +0.060 C 
ATOM      7  C   LIG    1        1.199   3.107  -1.161  0.00  0.00    +0.210 C 
ATOM      8  C   LIG    1        1.238   2.109   0.002  0.00  0.00    +0.270 C 
ENDROOT
BRANCH   7   9
ATOM      9  C   LIG    1        2.418   3.991  -1.105  0.00  0.00    -0.050 A 
ATOM     10  C   LIG    1        3.706   3.604  -1.260  0.00  0.00    +0.160 A 
ATOM     11  N   LIG    1        4.454   4.726  -1.136  0.00  0.00    -0.390 N 
ATOM     12  H   LIG    1        5.420   4.775  -1.200  0.00  0.00    +0.450 HD
ATOM     13  N   LIG    1        3.662   5.716  -0.913  0.00  0.00    -0.070 NA
ATOM     14  N   LIG    1        2.441   5.310  -0.888  0.00  0.00    -0.250 NA
ENDBRANCH   7   9
BRANCH   7  15
ATOM     15  O   LIG    1        1.182   2.395  -2.400  0.00  0.00    -0.540 OA
ATOM     16  H   LIG    1        1.952   1.826  -2.537  0.00  0.00    +0.380 HD
ENDBRANCH   7  15
BRANCH   2  17
ATOM     17  C   LIG    1       -1.293  -0.775   0.010  0.00  0.00    +0.140 C 
BRANCH  17  18
ATOM     18  C   LIG    1       -0.997  -2.253  -0.001  0.00  0.00    -0.150 A 
ATOM     19  C   LIG    1       -0.949  -3.050  -1.079  0.00  0.00    +0.240 A 
ATOM     20  N   LIG    1       -0.649  -4.330  -0.701  0.00  0.00    -0.590 N 
ATOM     21  H   LIG    1       -0.557  -5.083  -1.306  0.00  0.00    +0.420 HD
ATOM     22  C   LIG    1       -0.503  -4.392   0.667  0.00  0.00    +0.120 A 
ATOM     23  C   LIG    1       -0.208  -5.423   1.552  0.00  0.00    -0.040 A 
ATOM     24  C   LIG    1       -0.129  -5.163   2.905  0.00  0.00    +0.120 A 
ATOM     25  C   LIG    1       -0.340  -3.878   3.392  0.00  0.00    -0.040 A 
ATOM     26  C   LIG    1       -0.629  -2.852   2.538  0.00  0.00    +0.090 A 
ATOM     27  F   LIG    1        0.157  -6.165   3.764  0.00  0.00    -0.140 F 
ATOM     28  C   LIG    1       -0.715  -3.094   1.166  0.00  0.00    -0.100 A 
ENDBRANCH  17  18
ENDBRANCH   2  17
TORSDOF 4
