REMARK  Name = ZINCpk00000y6uv3.0
REMARK                            x       y       z     vdW  Elec       q    Type
REMARK                         _______ _______ _______ _____ _____    ______ ____
ROOT
ATOM      1  O   LIG    1        5.001  -3.093   1.667  0.00  0.00    -0.530 OA
ATOM      2  C   LIG    1        4.137  -3.929   1.508  0.00  0.00    +0.520 C 
ATOM      3  N   LIG    1        2.860  -3.548   1.306  0.00  0.00    -0.610 N 
ATOM      4  C   LIG    1        1.802  -4.548   1.111  0.00  0.00    +0.260 C 
ATOM      5  C   LIG    1        1.055  -4.230  -0.188  0.00  0.00    +0.030 C 
ATOM      6  C   LIG    1        0.553  -2.785  -0.143  0.00  0.00    +0.060 C 
ATOM      7  C   LIG    1        1.745  -1.833  -0.024  0.00  0.00    +0.210 C 
ATOM      8  C   LIG    1        2.500  -2.124   1.277  0.00  0.00    +0.280 C 
ENDROOT
BRANCH   7   9
ATOM      9  C   LIG    1        1.252  -0.409  -0.012  0.00  0.00    -0.020 A 
ATOM     10  N   LIG    1        0.002  -0.004   0.002  0.00  0.00    -0.260 NA
ATOM     11  N   LIG    1       -0.015   1.282   0.009  0.00  0.00    -0.240 N 
ATOM     12  H   LIG    1       -0.821   1.822   0.016  0.00  0.00    +0.470 HD
ATOM     13  N   LIG    1        1.181   1.754   0.000  0.00  0.00    -0.280 NA
ATOM     14  C   LIG    1        2.030   0.751  -0.013  0.00  0.00    +0.190 A 
ENDBRANCH   7   9
BRANCH   7  15
ATOM     15  O   LIG    1        2.621  -2.024  -1.137  0.00  0.00    -0.540 OA
ATOM     16  H   LIG    1        3.401  -1.452  -1.127  0.00  0.00    +0.380 HD
ENDBRANCH   7  15
BRANCH   2  17
ATOM     17  C   LIG    1        4.491  -5.394   1.535  0.00  0.00    +0.140 C 
BRANCH  17  18
ATOM     18  C   LIG    1        5.971  -5.548   1.775  0.00  0.00    -0.150 A 
ATOM     19  C   LIG    1        6.919  -5.708   0.839  0.00  0.00    +0.240 A 
ATOM     20  N   LIG    1        8.148  -5.811   1.432  0.00  0.00    -0.590 N 
ATOM     21  H   LIG    1        8.987  -5.929   0.960  0.00  0.00    +0.420 HD
ATOM     22  C   LIG    1        8.016  -5.729   2.800  0.00  0.00    +0.120 A 
ATOM     23  C   LIG    1        8.922  -5.778   3.854  0.00  0.00    -0.040 A 
ATOM     24  C   LIG    1        8.469  -5.663   5.153  0.00  0.00    +0.120 A 
ATOM     25  C   LIG    1        7.115  -5.497   5.418  0.00  0.00    -0.040 A 
ATOM     26  C   LIG    1        6.209  -5.446   4.396  0.00  0.00    +0.090 A 
ATOM     27  F   LIG    1        9.350  -5.711   6.175  0.00  0.00    -0.140 F 
ATOM     28  C   LIG    1        6.646  -5.560   3.075  0.00  0.00    -0.100 A 
ENDBRANCH  17  18
ENDBRANCH   2  17
TORSDOF 4
