REMARK  Name = ZINCrD000000BYQU.0
REMARK                            x       y       z     vdW  Elec       q    Type
REMARK                         _______ _______ _______ _____ _____    ______ ____
ROOT
ATOM      1  C   LIG    1        1.178   1.783  -0.006  0.00  0.00    +0.150 A 
ATOM      2  C   LIG    1       -0.013   1.068  -0.008  0.00  0.00    +0.020 A 
ATOM      3  C   LIG    1       -1.220   1.739  -0.005  0.00  0.00    +0.050 A 
ATOM      4  C   LIG    1       -1.244   3.122   0.010  0.00  0.00    -0.130 A 
ATOM      5  C   LIG    1       -0.060   3.837   0.012  0.00  0.00    +0.050 A 
ATOM      6  C   LIG    1        1.150   3.172   0.004  0.00  0.00    -0.010 A 
ENDROOT
BRANCH   1   9
ATOM      7  O   LIG    1        1.563  -0.566   1.183  0.00  0.00    -0.500 OA
ATOM      8  C   LIG    1        2.531  -0.059   0.649  0.00  0.00    +0.610 C 
ATOM      9  N   LIG    1        2.402   1.107  -0.014  0.00  0.00    -0.670 N 
ATOM     10  H   LIG    1        3.158   1.477  -0.496  0.00  0.00    +0.420 HD
BRANCH   8  11
ATOM     11  C   LIG    1        3.840  -0.717   0.726  0.00  0.00    -0.090 A 
ATOM     12  C   LIG    1        4.109  -1.895   1.362  0.00  0.00    +0.050 A 
ATOM     13  C   LIG    1        5.478  -2.147   1.182  0.00  0.00    -0.070 A 
ATOM     14  C   LIG    1        5.978  -1.124   0.454  0.00  0.00    +0.210 A 
ATOM     15  O   LIG    1        4.987  -0.268   0.176  0.00  0.00    -0.170 OA
ENDBRANCH   8  11
ENDBRANCH   1   9
BRANCH   4  16
ATOM     16  C   LIG    1       -2.563   3.850   0.019  0.00  0.00    +0.330 C 
BRANCH  16  17
ATOM     17  N   LIG    1       -2.994   4.096  -1.359  0.00  0.00    -0.720 N 
ATOM     18  H   LIG    1       -2.445   3.797  -2.100  0.00  0.00    +0.400 HD
ATOM     19  C   LIG    1       -4.155   4.739  -1.598  0.00  0.00    +0.590 C 
ATOM     20  O   LIG    1       -4.844   5.115  -0.668  0.00  0.00    -0.510 OA
BRANCH  19  21
ATOM     21  C   LIG    1       -4.586   4.985  -2.975  0.00  0.00    -0.040 A 
ATOM     22  C   LIG    1       -5.760   5.629  -3.386  0.00  0.00    -0.090 A 
ATOM     23  C   LIG    1       -6.855   6.237  -2.759  0.00  0.00    +0.070 A 
ATOM     24  C   LIG    1       -7.841   6.786  -3.519  0.00  0.00    +0.010 A 
ATOM     25  C   LIG    1       -7.788   6.763  -4.913  0.00  0.00    +0.030 A 
ATOM     26  C   LIG    1       -6.751   6.194  -5.581  0.00  0.00    +0.050 A 
ATOM     27  C   LIG    1       -5.695   5.607  -4.855  0.00  0.00    +0.050 A 
ATOM     28  N   LIG    1       -4.570   4.987  -5.166  0.00  0.00    -0.260 NA
ATOM     29  N   LIG    1       -3.928   4.627  -4.113  0.00  0.00    -0.320 N 
ATOM     30  H   LIG    1       -3.079   4.159  -4.127  0.00  0.00    +0.450 HD
ENDBRANCH  19  21
ENDBRANCH  16  17
ENDBRANCH   4  16
TORSDOF 5
