REMARK  Name = ZINCqH0000002DRv.0
REMARK                            x       y       z     vdW  Elec       q    Type
REMARK                         _______ _______ _______ _____ _____    ______ ____
ROOT
ATOM      1  N   LIG    1        6.118  -1.686  -0.614  0.00  0.00    -0.650 N 
ATOM      2  H   LIG    1        5.904  -0.779  -0.884  0.00  0.00    +0.420 HD
ATOM      3  C   LIG    1        5.174  -2.459  -0.041  0.00  0.00    +0.580 C 
ATOM      4  O   LIG    1        5.417  -3.620   0.223  0.00  0.00    -0.480 OA
ENDROOT
BRANCH   3   5
ATOM      5  C   LIG    1        3.840  -1.893   0.268  0.00  0.00    +0.080 A 
ATOM      6  C   LIG    1        2.912  -2.696   0.844  0.00  0.00    -0.030 A 
ATOM      7  C   LIG    1        1.583  -2.129   1.132  0.00  0.00    +0.420 A 
ATOM      8  C   LIG    1        1.287  -0.824   0.507  0.00  0.00    -0.220 A 
ATOM      9  C   LIG    1       -0.006  -0.305   0.483  0.00  0.00    +0.110 A 
ATOM     10  C   LIG    1       -0.237   0.913  -0.118  0.00  0.00    +0.000 A 
ATOM     11  C   LIG    1        0.811   1.617  -0.696  0.00  0.00    +0.090 A 
ATOM     12  C   LIG    1        2.094   1.114  -0.677  0.00  0.00    +0.010 A 
ATOM     13  C   LIG    1        2.352  -0.112  -0.072  0.00  0.00    +0.150 A 
ATOM     14  O   LIG    1        0.777  -2.703   1.843  0.00  0.00    -0.440 OA
ATOM     15  O   LIG    1        3.602  -0.609  -0.034  0.00  0.00    -0.220 OA
ENDBRANCH   3   5
BRANCH   1  21
ATOM     16  C   LIG    1        8.516  -1.350  -0.698  0.00  0.00    +0.240 A 
ATOM     17  C   LIG    1        9.796  -1.850  -0.901  0.00  0.00    -0.050 A 
ATOM     18  C   LIG    1        9.977  -3.178  -1.223  0.00  0.00    +0.120 A 
ATOM     19  C   LIG    1        8.873  -4.025  -1.346  0.00  0.00    -0.070 A 
ATOM     20  C   LIG    1        7.584  -3.526  -1.137  0.00  0.00    +0.130 A 
ATOM     21  C   LIG    1        7.407  -2.192  -0.819  0.00  0.00    +0.060 A 
BRANCH  16  22
ATOM     22  N   LIG    1        8.338  -0.006  -0.374  0.00  0.00    -0.740 N 
ATOM     23  H   LIG    1        7.444   0.344  -0.232  0.00  0.00    +0.400 HD
BRANCH  22  24
ATOM     24  C   LIG    1        9.500   0.877  -0.246  0.00  0.00    +0.260 C 
BRANCH  24  26
ATOM     25  C   LIG    1       10.244   3.211   0.246  0.00  0.00    +0.030 C 
ATOM     26  C   LIG    1        9.031   2.288   0.113  0.00  0.00    +0.000 C 
ENDBRANCH  24  26
ENDBRANCH  22  24
ENDBRANCH  16  22
BRANCH  19  27
ATOM     27  C   LIG    1        9.061  -5.405  -1.680  0.00  0.00    +0.260 C 
ATOM     28  N   LIG    1        9.211  -6.500  -1.945  0.00  0.00    -0.420 NA
ENDBRANCH  19  27
ENDBRANCH   1  21
TORSDOF 6
