REMARK  Name = ZINCrD000000CUgg.0
REMARK                            x       y       z     vdW  Elec       q    Type
REMARK                         _______ _______ _______ _____ _____    ______ ____
ROOT
ATOM      1  C   LIG    1        2.063   3.762   1.648  0.00  0.00    +0.530 C 
ATOM      2  N   LIG    1        1.127   2.947   1.121  0.00  0.00    -0.600 N 
ATOM      3  C   LIG    1        1.341   1.856   0.125  0.00  0.00    +0.260 C 
ATOM      4  C   LIG    1       -0.020   1.103  -0.009  0.00  0.00    +0.050 C 
ATOM      5  C   LIG    1       -0.677   1.434   1.331  0.00  0.00    -0.010 C 
ATOM      6  C   LIG    1       -2.192   1.597   1.403  0.00  0.00    +0.040 C 
ATOM      7  C   LIG    1       -2.364   2.656   2.536  0.00  0.00    +0.020 C 
ATOM      8  C   LIG    1       -1.037   3.474   2.560  0.00  0.00    +0.040 C 
ATOM      9  C   LIG    1       -0.263   2.949   1.400  0.00  0.00    +0.180 C 
ATOM     10  O   LIG    1        1.761   4.550   2.518  0.00  0.00    -0.510 OA
ENDROOT
BRANCH   1  16
ATOM     11  O   LIG    1        4.331   7.531   2.146  0.00  0.00    -0.530 OA
ATOM     12  C   LIG    1        4.242   6.378   1.772  0.00  0.00    +0.570 C 
ATOM     13  N   LIG    1        3.653   6.087   0.597  0.00  0.00    -0.720 N 
ATOM     14  H   LIG    1        3.197   6.787   0.104  0.00  0.00    +0.410 HD
ATOM     15  C   LIG    1        3.689   4.731   0.052  0.00  0.00    +0.310 C 
ATOM     16  C   LIG    1        3.485   3.694   1.154  0.00  0.00    +0.030 C 
ATOM     17  C   LIG    1        4.425   3.963   2.300  0.00  0.00    -0.040 A 
ATOM     18  C   LIG    1        4.935   2.926   3.050  0.00  0.00    +0.010 A 
ATOM     19  C   LIG    1        5.789   3.191   4.107  0.00  0.00    +0.040 A 
ATOM     20  C   LIG    1        6.134   4.494   4.418  0.00  0.00    +0.010 A 
ATOM     21  C   LIG    1        5.633   5.542   3.672  0.00  0.00    +0.080 A 
ATOM     22  C   LIG    1        4.779   5.279   2.603  0.00  0.00    -0.110 A 
ENDBRANCH   1  16
BRANCH   4  23
ATOM     23  C   LIG    1       -0.829   1.647  -1.158  0.00  0.00    -0.070 A 
ATOM     24  C   LIG    1       -1.763   0.845  -1.787  0.00  0.00    +0.010 A 
ATOM     25  C   LIG    1       -2.508   1.345  -2.838  0.00  0.00    +0.000 A 
ATOM     26  C   LIG    1       -2.313   2.645  -3.267  0.00  0.00    +0.000 A 
ATOM     27  C   LIG    1       -1.375   3.445  -2.642  0.00  0.00    +0.000 A 
ATOM     28  C   LIG    1       -0.634   2.947  -1.587  0.00  0.00    +0.000 A 
ENDBRANCH   4  23
TORSDOF 2
