REMARK  Name = ZINCvU0000000C2L.0
REMARK                            x       y       z     vdW  Elec       q    Type
REMARK                         _______ _______ _______ _____ _____    ______ ____
ROOT
ATOM      1  O   LIG    1       -2.799  -3.502   0.102  0.00  0.00    -0.520 OA
ATOM      2  C   LIG    1       -1.623  -3.777  -0.007  0.00  0.00    +0.540 C 
ATOM      3  N   LIG    1       -1.239  -5.065  -0.115  0.00  0.00    -0.590 N 
ENDROOT
BRANCH   3   4
ATOM      4  C   LIG    1        0.186  -5.406  -0.131  0.00  0.00    +0.330 C 
BRANCH   4   5
ATOM      5  C   LIG    1        0.630  -5.771   1.262  0.00  0.00    -0.110 A 
ATOM      6  C   LIG    1        1.215  -4.818   2.074  0.00  0.00    +0.010 A 
ATOM      7  C   LIG    1        1.618  -5.152   3.353  0.00  0.00    +0.000 A 
ATOM      8  C   LIG    1        1.445  -6.443   3.817  0.00  0.00    +0.010 A 
ATOM      9  C   LIG    1        0.866  -7.398   3.003  0.00  0.00    +0.000 A 
ATOM     10  C   LIG    1        0.458  -7.062   1.726  0.00  0.00    +0.020 A 
ENDBRANCH   4   5
ENDBRANCH   3   4
BRANCH   3  11
ATOM     11  C   LIG    1       -2.247  -6.124  -0.217  0.00  0.00    +0.350 C 
BRANCH  11  12
ATOM     12  C   LIG    1       -2.578  -6.364  -1.667  0.00  0.00    -0.110 A 
ATOM     13  C   LIG    1       -3.603  -5.657  -2.268  0.00  0.00    +0.030 A 
ATOM     14  C   LIG    1       -3.904  -5.874  -3.599  0.00  0.00    +0.000 A 
ATOM     15  C   LIG    1       -3.187  -6.805  -4.327  0.00  0.00    +0.010 A 
ATOM     16  C   LIG    1       -2.166  -7.516  -3.725  0.00  0.00    +0.000 A 
ATOM     17  C   LIG    1       -1.861  -7.295  -2.395  0.00  0.00    +0.010 A 
ENDBRANCH  11  12
ENDBRANCH   3  11
BRANCH   2  18
ATOM     18  C   LIG    1       -0.591  -2.680  -0.023  0.00  0.00    +0.090 C 
BRANCH  18  19
ATOM     19  S   LIG    1       -1.420  -1.071  -0.013  0.00  0.00    +0.160 S 
BRANCH  19  20
ATOM     20  C   LIG    1       -0.019  -0.004  -0.034  0.00  0.00    +0.120 A 
ATOM     21  N   LIG    1        1.240  -0.375  -0.051  0.00  0.00    -0.290 NA
ATOM     22  N   LIG    1        1.994   0.668  -0.063  0.00  0.00    -0.260 NA
ATOM     23  C   LIG    1        1.248   1.745  -0.053  0.00  0.00    +0.210 A 
ATOM     24  O   LIG    1       -0.042   1.343  -0.035  0.00  0.00    -0.200 OA
BRANCH  23  25
ATOM     25  C   LIG    1        1.729   3.142  -0.061  0.00  0.00    -0.040 A 
ATOM     26  C   LIG    1        0.815   4.198  -0.056  0.00  0.00    +0.090 A 
ATOM     27  C   LIG    1        1.269   5.500  -0.059  0.00  0.00    +0.000 A 
ATOM     28  C   LIG    1        2.630   5.761  -0.078  0.00  0.00    +0.130 A 
ATOM     29  C   LIG    1        3.542   4.718  -0.089  0.00  0.00    +0.000 A 
ATOM     30  F   LIG    1        3.069   7.039  -0.086  0.00  0.00    -0.130 F 
ATOM     31  C   LIG    1        3.098   3.412  -0.081  0.00  0.00    +0.110 A 
ENDBRANCH  23  25
ENDBRANCH  19  20
ENDBRANCH  18  19
ENDBRANCH   2  18
TORSDOF 8
