REMARK  Name = ZINCrg000000sFzP.0
REMARK                            x       y       z     vdW  Elec       q    Type
REMARK                         _______ _______ _______ _____ _____    ______ ____
ROOT
ATOM      1  C   LIG    1        2.500   4.054  -2.192  0.00  0.00    +0.600 C 
ATOM      2  N   LIG    1        2.818   3.966  -0.885  0.00  0.00    -0.700 N 
ATOM      3  H   LIG    1        3.745   3.857  -0.619  0.00  0.00    +0.410 HD
ATOM      4  O   LIG    1        1.332   4.096  -2.532  0.00  0.00    -0.540 OA
ENDROOT
BRANCH   1  10
ATOM      5  C   LIG    1        2.099   4.431  -5.241  0.00  0.00    +0.350 C 
ATOM      6  N   LIG    1        3.385   4.268  -4.559  0.00  0.00    -0.400 N 
ATOM      7  C   LIG    1        4.601   4.256  -5.158  0.00  0.00    +0.330 A 
ATOM      8  C   LIG    1        5.554   4.084  -4.211  0.00  0.00    -0.750 A 
ATOM      9  C   LIG    1        4.915   3.990  -2.971  0.00  0.00    +0.120 A 
ATOM     10  C   LIG    1        3.560   4.100  -3.204  0.00  0.00    -0.050 A 
BRANCH   8  11
ATOM     11  S   LIG    1        7.292   4.002  -4.491  0.00  0.00    +2.730 S 
ATOM     12  O   LIG    1        7.461   3.597  -5.843  0.00  0.00    -0.970 OA
ATOM     13  O   LIG    1        7.842   3.289  -3.392  0.00  0.00    -0.960 OA
BRANCH  11  14
ATOM     14  N   LIG    1        7.879   5.546  -4.388  0.00  0.00    -1.250 NA
ATOM     15  H   LIG    1        7.316   6.297  -4.635  0.00  0.00    +0.420 HD
ATOM     16  H   LIG    1        8.786   5.701  -4.081  0.00  0.00    +0.420 HD
ENDBRANCH  11  14
ENDBRANCH   8  11
ENDBRANCH   1  10
BRANCH   2  17
ATOM     17  C   LIG    1        1.766   4.033   0.132  0.00  0.00    +0.400 C 
BRANCH  17  18
ATOM     18  C   LIG    1        2.353   4.521   1.431  0.00  0.00    -0.110 A 
ATOM     19  C   LIG    1        3.597   4.074   1.838  0.00  0.00    +0.080 A 
ATOM     20  C   LIG    1        4.139   4.524   3.026  0.00  0.00    -0.010 A 
ATOM     21  C   LIG    1        3.432   5.416   3.815  0.00  0.00    +0.110 A 
ATOM     22  C   LIG    1        2.184   5.859   3.409  0.00  0.00    -0.010 A 
ATOM     23  F   LIG    1        3.958   5.853   4.979  0.00  0.00    -0.140 F 
ATOM     24  C   LIG    1        1.646   5.410   2.218  0.00  0.00    +0.060 A 
ENDBRANCH  17  18
BRANCH  17  25
ATOM     25  C   LIG    1        1.173   2.662   0.332  0.00  0.00    +0.190 A 
ATOM     26  N   LIG    1        1.847   1.551   0.450  0.00  0.00    -0.470 NA
ATOM     27  C   LIG    1        0.993   0.530   0.615  0.00  0.00    +0.140 A 
ATOM     28  C   LIG    1       -0.259   1.028   0.598  0.00  0.00    +0.130 A 
ATOM     29  N   LIG    1       -0.145   2.380   0.418  0.00  0.00    -0.450 N 
ATOM     30  C   LIG    1       -1.248   3.341   0.331  0.00  0.00    +0.330 C 
ENDBRANCH  17  25
ENDBRANCH   2  17
TORSDOF 6
