REMARK  Name = ZINCrD000000CCuw.0
REMARK                            x       y       z     vdW  Elec       q    Type
REMARK                         _______ _______ _______ _____ _____    ______ ____
ROOT
ATOM      1  O   LIG    1        0.129   5.568   0.131  0.00  0.00    -0.520 OA
ATOM      2  C   LIG    1        0.487   5.335  -1.008  0.00  0.00    +0.570 C 
ATOM      3  N   LIG    1        0.290   4.113  -1.540  0.00  0.00    -0.590 N 
ATOM      4  C   LIG    1        0.824   3.833  -2.887  0.00  0.00    +0.270 C 
ATOM      5  C   LIG    1       -0.171   3.041  -3.753  0.00  0.00    +0.020 C 
ATOM      6  C   LIG    1       -1.572   3.557  -3.537  0.00  0.00    +0.010 C 
ATOM      7  C   LIG    1       -2.240   2.757  -2.424  0.00  0.00    +0.010 C 
ATOM      8  C   LIG    1       -1.949   3.247  -1.067  0.00  0.00    +0.030 C 
ATOM      9  C   LIG    1       -0.434   3.129  -0.767  0.00  0.00    +0.350 C 
ENDROOT
BRANCH   2  10
ATOM     10  C   LIG    1        1.137   6.392  -1.807  0.00  0.00    -0.160 A 
ATOM     11  C   LIG    1        0.360   7.327  -2.496  0.00  0.00    +0.090 A 
ATOM     12  C   LIG    1        0.971   8.316  -3.236  0.00  0.00    -0.010 A 
ATOM     13  C   LIG    1        2.357   8.377  -3.307  0.00  0.00    +0.150 A 
ATOM     14  C   LIG    1        3.134   7.445  -2.628  0.00  0.00    -0.070 A 
ATOM     15  C   LIG    1        2.531   6.457  -1.881  0.00  0.00    +0.090 A 
BRANCH  13  16
ATOM     16  O   LIG    1        2.955   9.348  -4.042  0.00  0.00    -0.300 OA
BRANCH  16  17
ATOM     17  C   LIG    1        4.377   9.283  -4.170  0.00  0.00    +0.160 C 
ATOM     18  C   LIG    1        5.031   9.968  -2.966  0.00  0.00    -0.010 C 
ATOM     19  C   LIG    1        6.551   9.965  -3.151  0.00  0.00    +0.210 C 
ATOM     20  O   LIG    1        6.883  10.621  -4.376  0.00  0.00    -0.380 OA
ATOM     21  C   LIG    1        6.338   9.995  -5.539  0.00  0.00    +0.220 C 
ATOM     22  C   LIG    1        4.810  10.002  -5.451  0.00  0.00    +0.030 C 
ENDBRANCH  16  17
ENDBRANCH  13  16
ENDBRANCH   2  10
BRANCH   9  23
ATOM     23  C   LIG    1       -0.194   3.368   0.701  0.00  0.00    +0.180 A 
ATOM     24  N   LIG    1       -1.034   3.891   1.543  0.00  0.00    -0.350 NA
ATOM     25  O   LIG    1       -0.540   3.947   2.649  0.00  0.00    +0.080 OA
ATOM     26  C   LIG    1        0.700   3.450   2.618  0.00  0.00    +0.420 A 
ATOM     27  N   LIG    1        0.931   3.083   1.380  0.00  0.00    -0.490 NA
ENDBRANCH   9  23
TORSDOF 4
