REMARK  Name = ZINCrH000004sXKG.0
REMARK                            x       y       z     vdW  Elec       q    Type
REMARK                         _______ _______ _______ _____ _____    ______ ____
ROOT
ATOM      1  C   LIG    1       -3.944  -2.477   2.835  0.00  0.00    +0.510 C 
ATOM      2  N   LIG    1       -4.697  -1.828   1.925  0.00  0.00    -0.640 N 
ATOM      3  H   LIG    1       -5.621  -2.089   1.785  0.00  0.00    +0.420 HD
ATOM      4  O   LIG    1       -2.790  -2.150   3.011  0.00  0.00    -0.450 OA
ENDROOT
BRANCH   2   5
ATOM      5  C   LIG    1       -4.150  -0.784   1.188  0.00  0.00    +0.280 A 
ATOM      6  N   LIG    1       -2.940  -0.358   1.295  0.00  0.00    -0.470 NA
ATOM      7  C   LIG    1       -2.559   0.638   0.490  0.00  0.00    +0.100 A 
ATOM      8  C   LIG    1       -3.544   1.122  -0.266  0.00  0.00    -0.210 A 
ATOM      9  C   LIG    1       -3.567   2.297  -1.225  0.00  0.00    +0.120 C 
ATOM     10  C   LIG    1       -2.227   3.023  -1.293  0.00  0.00    +0.030 C 
ATOM     11  C   LIG    1       -1.242   2.284  -2.183  0.00  0.00    +0.010 C 
ATOM     12  C   LIG    1       -1.330   0.777  -2.048  0.00  0.00    +0.010 C 
ATOM     13  C   LIG    1       -0.481   0.410  -0.826  0.00  0.00    +0.020 C 
ATOM     14  C   LIG    1       -1.097   1.056   0.417  0.00  0.00    +0.130 C 
ATOM     15  S   LIG    1       -4.983   0.123   0.007  0.00  0.00    +0.080 S 
ENDBRANCH   2   5
BRANCH   1  16
ATOM     16  C   LIG    1       -4.537  -3.609   3.635  0.00  0.00    +0.210 C 
BRANCH  16  19
ATOM     17  C   LIG    1       -2.510  -5.932   3.060  0.00  0.00    +0.340 C 
ATOM     18  N   LIG    1       -2.624  -5.170   4.306  0.00  0.00    -0.470 N 
ATOM     19  C   LIG    1       -3.496  -4.160   4.574  0.00  0.00    +0.190 A 
ATOM     20  N   LIG    1       -3.268  -3.760   5.796  0.00  0.00    -0.270 NA
ATOM     21  N   LIG    1       -2.310  -4.444   6.313  0.00  0.00    -0.270 NA
ATOM     22  C   LIG    1       -1.873  -5.325   5.440  0.00  0.00    +0.230 A 
BRANCH  22  23
ATOM     23  C   LIG    1       -0.782  -6.302   5.646  0.00  0.00    -0.020 A 
ATOM     24  C   LIG    1       -0.356  -6.614   6.938  0.00  0.00    +0.070 A 
ATOM     25  C   LIG    1        0.659  -7.530   7.124  0.00  0.00    +0.010 A 
ATOM     26  C   LIG    1        1.262  -8.130   6.033  0.00  0.00    +0.030 A 
ATOM     27  C   LIG    1        0.848  -7.821   4.750  0.00  0.00    +0.010 A 
ATOM     28  C   LIG    1       -0.170  -6.911   4.550  0.00  0.00    +0.020 A 
ENDBRANCH  22  23
ENDBRANCH  16  19
ENDBRANCH   1  16
TORSDOF 4
