REMARK  Name = ZINCkj000005kdli.0
REMARK                            x       y       z     vdW  Elec       q    Type
REMARK                         _______ _______ _______ _____ _____    ______ ____
ROOT
ATOM      1  N   LIG    1       -2.027   0.881   1.399  0.00  0.00    -0.680 NA
ATOM      2  H   LIG    1       -2.297   0.205   0.758  0.00  0.00    +0.440 HD
ENDROOT
BRANCH   1   3
ATOM      3  C   LIG    1       -0.694   1.482   1.313  0.00  0.00    +0.320 C 
BRANCH   3   4
ATOM      4  C   LIG    1        0.064   0.873   0.132  0.00  0.00    +0.220 C 
BRANCH   4   5
ATOM      5  O   LIG    1       -0.590   1.228  -1.088  0.00  0.00    -0.320 OA
BRANCH   5  11
ATOM      6  C   LIG    1        2.909  -1.335  -3.326  0.00  0.00    +0.100 C 
ATOM      7  C   LIG    1        1.664  -0.488  -3.371  0.00  0.00    -0.040 A 
ATOM      8  C   LIG    1        1.080  -0.182  -4.587  0.00  0.00    -0.020 A 
ATOM      9  C   LIG    1       -0.062   0.596  -4.632  0.00  0.00    -0.040 A 
ATOM     10  C   LIG    1       -0.623   1.069  -3.462  0.00  0.00    -0.030 A 
ATOM     11  C   LIG    1       -0.040   0.763  -2.241  0.00  0.00    +0.120 A 
ATOM     12  C   LIG    1       -0.696   0.927  -5.958  0.00  0.00    +0.100 C 
ATOM     13  C   LIG    1        1.110  -0.012  -2.199  0.00  0.00    -0.080 A 
ENDBRANCH   5  11
ENDBRANCH   4   5
ENDBRANCH   3   4
ENDBRANCH   1   3
BRANCH   1  14
ATOM     14  C   LIG    1       -2.896   1.274   2.390  0.00  0.00    +0.740 C 
BRANCH  14  15
ATOM     15  N   LIG    1       -4.183   0.790   2.408  0.00  0.00    -0.620 NA
ATOM     16  C   LIG    1       -4.920   0.552   1.157  0.00  0.00    +0.290 C 
ATOM     17  C   LIG    1       -5.497  -0.872   1.204  0.00  0.00    +0.230 C 
ATOM     18  O   LIG    1       -6.236  -1.038   2.417  0.00  0.00    -0.360 OA
ATOM     19  C   LIG    1       -5.448  -0.914   3.604  0.00  0.00    +0.250 C 
ATOM     20  C   LIG    1       -4.866   0.502   3.679  0.00  0.00    +0.280 C 
ENDBRANCH  14  15
BRANCH  14  21
ATOM     21  N   LIG    1       -2.499   2.106   3.312  0.00  0.00    -0.770 NA
ATOM     22  H   LIG    1       -1.616   2.502   3.260  0.00  0.00    +0.440 HD
ATOM     23  H   LIG    1       -3.088   2.328   4.051  0.00  0.00    +0.440 HD
ENDBRANCH  14  21
ENDBRANCH   1  14
TORSDOF 7
