REMARK  Name = ZINCrD000000BWhk.0
REMARK                            x       y       z     vdW  Elec       q    Type
REMARK                         _______ _______ _______ _____ _____    ______ ____
ROOT
ATOM      1  O   LIG    1       -4.521   5.286   2.647  0.00  0.00    -0.480 OA
ATOM      2  C   LIG    1       -5.040   4.431   1.960  0.00  0.00    +0.500 C 
ATOM      3  N   LIG    1       -5.810   3.484   2.531  0.00  0.00    -0.660 N 
ATOM      4  H   LIG    1       -6.277   2.840   1.977  0.00  0.00    +0.420 HD
ENDROOT
BRANCH   3   5
ATOM      5  C   LIG    1       -5.936   3.430   3.926  0.00  0.00    +0.140 A 
ATOM      6  C   LIG    1       -5.936   4.600   4.670  0.00  0.00    +0.150 A 
ATOM      7  C   LIG    1       -6.060   4.544   6.045  0.00  0.00    -0.050 A 
ATOM      8  C   LIG    1       -6.184   3.324   6.683  0.00  0.00    +0.140 A 
ATOM      9  C   LIG    1       -6.184   2.152   5.947  0.00  0.00    -0.010 A 
ATOM     10  C   LIG    1       -6.067   2.200   4.568  0.00  0.00    +0.140 A 
BRANCH   7  11
ATOM     11  N   LIG    1       -6.060   5.794   6.838  0.00  0.00    +0.030 N 
ATOM     12  O   LIG    1       -6.169   5.747   8.050  0.00  0.00    -0.150 OA
ATOM     13  O   LIG    1       -5.950   6.870   6.278  0.00  0.00    -0.150 OA
ENDBRANCH   7  11
BRANCH  10  14
ATOM     14  O   LIG    1       -6.073   1.050   3.843  0.00  0.00    -0.310 OA
BRANCH  14  15
ATOM     15  C   LIG    1       -6.211  -0.173   4.569  0.00  0.00    +0.600 C 
ATOM     16  F   LIG    1       -7.421  -0.165   5.271  0.00  0.00    -0.190 F 
ATOM     17  F   LIG    1       -5.149  -0.303   5.471  0.00  0.00    -0.190 F 
ENDBRANCH  14  15
ENDBRANCH  10  14
ENDBRANCH   3   5
BRANCH   2  18
ATOM     18  C   LIG    1       -4.824   4.429   0.469  0.00  0.00    +0.180 C 
ATOM     19  C   LIG    1       -3.914   3.253   0.036  0.00  0.00    +0.100 C 
ATOM     20  C   LIG    1       -2.537   3.889   0.026  0.00  0.00    +0.130 C 
ATOM     21  N   LIG    1       -2.684   5.172   0.041  0.00  0.00    -0.270 NA
ATOM     22  O   LIG    1       -4.041   5.569   0.059  0.00  0.00    -0.160 OA
BRANCH  20  23
ATOM     23  C   LIG    1       -1.250   3.167  -0.001  0.00  0.00    -0.050 A 
ATOM     24  C   LIG    1       -1.230   1.771  -0.021  0.00  0.00    +0.040 A 
ATOM     25  C   LIG    1       -0.023   1.102  -0.041  0.00  0.00    +0.010 A 
ATOM     26  C   LIG    1        1.165   1.811  -0.053  0.00  0.00    +0.030 A 
ATOM     27  C   LIG    1        1.152   3.195  -0.039  0.00  0.00    +0.010 A 
ATOM     28  C   LIG    1       -0.048   3.876  -0.013  0.00  0.00    +0.050 A 
ENDBRANCH  20  23
ENDBRANCH   2  18
TORSDOF 6
