REMARK  Name = ZINCkj000005j7mz.0
REMARK                            x       y       z     vdW  Elec       q    Type
REMARK                         _______ _______ _______ _____ _____    ______ ____
ROOT
ATOM      1  C   LIG    1       -1.758   3.704  -0.423  0.00  0.00    +0.240 C 
ATOM      2  C   LIG    1       -0.976   2.699   0.428  0.00  0.00    +0.010 C 
ATOM      3  C   LIG    1       -1.331   1.277  -0.013  0.00  0.00    +0.040 C 
ATOM      4  C   LIG    1       -0.935   1.081  -1.478  0.00  0.00    +0.020 C 
ATOM      5  C   LIG    1       -1.716   2.068  -2.351  0.00  0.00    +0.290 C 
ATOM      6  N   LIG    1       -1.494   3.428  -1.842  0.00  0.00    -0.610 N 
ATOM      7  C   LIG    1       -1.056   4.405  -2.661  0.00  0.00    +0.530 C 
ATOM      8  O   LIG    1       -0.971   5.544  -2.255  0.00  0.00    -0.570 OA
ENDROOT
BRANCH   1  10
ATOM      9  C   LIG    1       -1.657   5.438   1.372  0.00  0.00    +0.090 C 
ATOM     10  C   LIG    1       -1.306   5.125  -0.084  0.00  0.00    +0.200 C 
BRANCH  10  11
ATOM     11  N   LIG    1        0.147   5.234  -0.271  0.00  0.00    -0.620 N 
ATOM     12  H   LIG    1        0.423   6.203  -0.205  0.00  0.00    +0.440 HD
ATOM     13  H   LIG    1        0.397   4.875  -1.180  0.00  0.00    +0.420 HD
ATOM     14  H   LIG    1        0.619   4.701   0.443  0.00  0.00    +0.420 HD
ENDBRANCH  10  11
ENDBRANCH   1  10
BRANCH   7  15
ATOM     15  C   LIG    1       -0.671   4.080  -4.082  0.00  0.00    +0.080 C 
BRANCH  15  16
ATOM     16  C   LIG    1       -0.212   5.357  -4.790  0.00  0.00    +0.190 C 
BRANCH  16  17
ATOM     17  O   LIG    1        0.153   5.049  -6.137  0.00  0.00    -0.380 OA
BRANCH  17  18
ATOM     18  C   LIG    1        0.599   6.179  -6.890  0.00  0.00    +0.150 C 
ATOM     19  C   LIG    1       -0.596   6.829  -7.594  0.00  0.00    -0.030 C 
ATOM     20  C   LIG    1       -0.098   7.989  -8.461  0.00  0.00    +0.210 C 
ATOM     21  O   LIG    1        0.865   7.502  -9.399  0.00  0.00    -0.380 OA
ATOM     22  C   LIG    1        2.026   6.926  -8.797  0.00  0.00    +0.210 C 
ATOM     23  C   LIG    1        1.613   5.723  -7.944  0.00  0.00    +0.010 C 
ENDBRANCH  17  18
ENDBRANCH  16  17
ENDBRANCH  15  16
ENDBRANCH   7  15
TORSDOF 6
