REMARK  Name = ZINCqH0000050f5a.0
REMARK                            x       y       z     vdW  Elec       q    Type
REMARK                         _______ _______ _______ _____ _____    ______ ____
ROOT
ATOM      1  N   LIG    1       -0.074   6.348   1.204  0.00  0.00    -0.640 N 
ATOM      2  H   LIG    1       -0.060   5.858   2.042  0.00  0.00    +0.420 HD
ATOM      3  C   LIG    1       -0.075   5.681   0.033  0.00  0.00    +0.580 C 
ATOM      4  O   LIG    1       -0.093   6.295  -1.016  0.00  0.00    -0.470 OA
ENDROOT
BRANCH   3   5
ATOM      5  C   LIG    1       -0.055   4.205   0.025  0.00  0.00    -0.180 A 
ATOM      6  C   LIG    1        1.166   3.521   0.010  0.00  0.00    +0.180 A 
ATOM      7  C   LIG    1        1.183   2.142   0.002  0.00  0.00    +0.050 A 
ATOM      8  C   LIG    1       -0.017   1.428   0.010  0.00  0.00    +0.070 A 
ATOM      9  C   LIG    1       -1.236   2.109   0.019  0.00  0.00    +0.050 A 
ATOM     10  F   LIG    1        2.327   4.211   0.003  0.00  0.00    -0.110 F 
ATOM     11  C   LIG    1       -1.257   3.488   0.032  0.00  0.00    +0.170 A 
ATOM     12  F   LIG    1       -2.437   4.147   0.047  0.00  0.00    -0.110 F 
BRANCH   8  13
ATOM     13  C   LIG    1        0.002  -0.004   0.002  0.00  0.00    +0.240 C 
ATOM     14  N   LIG    1        0.018  -1.140  -0.004  0.00  0.00    -0.370 NA
ENDBRANCH   8  13
ENDBRANCH   3   5
BRANCH   1  19
ATOM     15  C   LIG    1       -0.152  11.103  -0.307  0.00  0.00    +0.160 C 
ATOM     16  C   LIG    1       -0.127   9.877   0.569  0.00  0.00    +0.100 A 
ATOM     17  N   LIG    1       -0.116   9.871   1.877  0.00  0.00    -0.280 NA
ATOM     18  N   LIG    1       -0.094   8.540   2.314  0.00  0.00    -0.340 N 
ATOM     19  C   LIG    1       -0.093   7.741   1.212  0.00  0.00    +0.310 A 
ATOM     20  C   LIG    1       -0.107   8.553   0.120  0.00  0.00    -0.080 A 
BRANCH  18  21
ATOM     21  C   LIG    1       -0.076   8.109   3.648  0.00  0.00    +0.150 A 
ATOM     22  C   LIG    1       -0.752   6.952   4.013  0.00  0.00    +0.020 A 
ATOM     23  C   LIG    1       -0.728   6.525   5.327  0.00  0.00    +0.030 A 
ATOM     24  C   LIG    1       -0.042   7.256   6.281  0.00  0.00    +0.100 A 
ATOM     25  C   LIG    1        0.628   8.414   5.920  0.00  0.00    +0.020 A 
ATOM     26  F   LIG    1       -0.025   6.840   7.566  0.00  0.00    -0.130 F 
ATOM     27  C   LIG    1        0.612   8.840   4.607  0.00  0.00    +0.070 A 
ENDBRANCH  18  21
ENDBRANCH   1  19
TORSDOF 4
