REMARK  Name = ZINCpk00000y6w70.0
REMARK                            x       y       z     vdW  Elec       q    Type
REMARK                         _______ _______ _______ _____ _____    ______ ____
ROOT
ATOM      1  C   LIG    1        5.727  -0.851  -4.726  0.00  0.00    +0.080 C 
ATOM      2  C   LIG    1        5.977   0.488  -5.423  0.00  0.00    +0.030 C 
ATOM      3  C   LIG    1        4.994   1.534  -4.892  0.00  0.00    +0.010 C 
ATOM      4  C   LIG    1        5.218   1.722  -3.389  0.00  0.00    +0.270 C 
ATOM      5  N   LIG    1        5.122   0.413  -2.728  0.00  0.00    -0.610 N 
ATOM      6  C   LIG    1        4.283   0.227  -1.690  0.00  0.00    +0.550 C 
ATOM      7  O   LIG    1        4.213  -0.858  -1.154  0.00  0.00    -0.540 OA
ATOM      8  C   LIG    1        5.964  -0.688  -3.217  0.00  0.00    +0.290 C 
ENDROOT
BRANCH   1  11
ATOM      9  C   LIG    1        8.456  -2.898  -6.106  0.00  0.00    -0.050 A 
ATOM     10  C   LIG    1        7.988  -1.664  -5.689  0.00  0.00    +0.030 A 
ATOM     11  C   LIG    1        6.673  -1.888  -5.274  0.00  0.00    +0.030 A 
ATOM     12  N   LIG    1        6.407  -3.157  -5.450  0.00  0.00    -0.260 NA
ATOM     13  N   LIG    1        7.424  -3.776  -5.934  0.00  0.00    -0.380 N 
ATOM     14  H   LIG    1        7.454  -4.722  -6.144  0.00  0.00    +0.440 HD
BRANCH   9  18
ATOM     15  N   LIG    1       10.103  -4.460  -7.009  0.00  0.00    -0.850 N 
ATOM     16  H   LIG    1       10.985  -4.660  -7.358  0.00  0.00    +0.410 HD
ATOM     17  H   LIG    1        9.442  -5.165  -6.928  0.00  0.00    +0.400 HD
ATOM     18  C   LIG    1        9.795  -3.201  -6.636  0.00  0.00    +0.600 C 
ATOM     19  O   LIG    1       10.624  -2.317  -6.737  0.00  0.00    -0.520 OA
ENDBRANCH   9  18
ENDBRANCH   1  11
BRANCH   6  20
ATOM     20  C   LIG    1        3.431   1.368  -1.196  0.00  0.00    -0.050 C 
ATOM     21  C   LIG    1        3.754   1.945   0.184  0.00  0.00    +0.080 C 
ATOM     22  C   LIG    1        2.499   1.094  -0.015  0.00  0.00    +0.050 C 
BRANCH  22  23
ATOM     23  C   LIG    1        1.169   1.802   0.001  0.00  0.00    -0.110 A 
ATOM     24  C   LIG    1       -0.013   1.076   0.008  0.00  0.00    +0.080 A 
ATOM     25  C   LIG    1       -1.213   1.769   0.017  0.00  0.00    -0.030 A 
ATOM     26  C   LIG    1       -1.193   3.151   0.030  0.00  0.00    +0.250 A 
ATOM     27  N   LIG    1       -0.050   3.809   0.022  0.00  0.00    -0.480 NA
ATOM     28  C   LIG    1        1.111   3.183   0.008  0.00  0.00    +0.260 A 
ENDBRANCH  22  23
ENDBRANCH   6  20
TORSDOF 4
