REMARK  Name = ZINCpk00000y6wLR.0
REMARK                            x       y       z     vdW  Elec       q    Type
REMARK                         _______ _______ _______ _____ _____    ______ ____
ROOT
ATOM      1  O   LIG    1       -1.425   3.452  -3.853  0.00  0.00    -0.530 OA
ATOM      2  C   LIG    1       -0.219   3.396  -3.960  0.00  0.00    +0.500 C 
ATOM      3  N   LIG    1        0.362   3.596  -5.160  0.00  0.00    -0.720 N 
ATOM      4  H   LIG    1        1.327   3.552  -5.245  0.00  0.00    +0.400 HD
ENDROOT
BRANCH   3   5
ATOM      5  C   LIG    1       -0.465   3.882  -6.335  0.00  0.00    +0.330 C 
BRANCH   5   6
ATOM      6  C   LIG    1        0.421   4.064  -7.540  0.00  0.00    -0.140 A 
ATOM      7  C   LIG    1        0.729   5.335  -7.986  0.00  0.00    +0.070 A 
ATOM      8  C   LIG    1        1.546   5.503  -9.089  0.00  0.00    -0.030 A 
ATOM      9  C   LIG    1        2.047   4.400  -9.755  0.00  0.00    +0.060 A 
ATOM     10  C   LIG    1        1.738   3.127  -9.316  0.00  0.00    -0.080 A 
ATOM     11  C   LIG    1        0.923   2.956  -8.206  0.00  0.00    +0.150 A 
BRANCH  11  12
ATOM     12  O   LIG    1        0.617   1.705  -7.773  0.00  0.00    -0.310 OA
BRANCH  12  13
ATOM     13  C   LIG    1        1.169   0.610  -8.508  0.00  0.00    +0.220 C 
BRANCH  13  14
ATOM     14  C   LIG    1        0.718  -0.708  -7.876  0.00  0.00    -0.040 C 
ATOM     15  C   LIG    1        1.798  -1.611  -7.277  0.00  0.00    +0.030 C 
ATOM     16  C   LIG    1        1.111  -2.004  -8.588  0.00  0.00    +0.030 C 
ENDBRANCH  13  14
ENDBRANCH  12  13
ENDBRANCH  11  12
ENDBRANCH   5   6
ENDBRANCH   3   5
BRANCH   2  17
ATOM     17  C   LIG    1        0.632   3.102  -2.751  0.00  0.00    +0.310 C 
BRANCH  17  18
ATOM     18  N   LIG    1       -0.229   2.925  -1.579  0.00  0.00    -0.580 N 
ATOM     19  C   LIG    1       -0.739   1.586  -1.242  0.00  0.00    +0.290 C 
ATOM     20  C   LIG    1       -0.013   1.086   0.008  0.00  0.00    -0.000 C 
ATOM     21  C   LIG    1       -0.710   1.569   1.267  0.00  0.00    +0.020 C 
ATOM     22  C   LIG    1       -0.633   3.071   1.472  0.00  0.00    +0.050 C 
ATOM     23  C   LIG    1       -1.431   3.805   0.392  0.00  0.00    +0.190 C 
ATOM     24  C   LIG    1       -0.547   3.978  -0.825  0.00  0.00    +0.490 C 
ATOM     25  O   LIG    1       -0.125   5.078  -1.115  0.00  0.00    -0.540 OA
BRANCH  23  26
ATOM     26  O   LIG    1       -2.584   3.038   0.042  0.00  0.00    -0.550 OA
ATOM     27  H   LIG    1       -3.129   3.439  -0.649  0.00  0.00    +0.390 HD
ENDBRANCH  23  26
ENDBRANCH  17  18
ENDBRANCH   2  17
TORSDOF 8
