REMARK  Name = ZINCpk00000y6wlr.1
REMARK                            x       y       z     vdW  Elec       q    Type
REMARK                         _______ _______ _______ _____ _____    ______ ____
ROOT
ATOM      1  C   LIG    1        3.580  -0.958   0.122  0.00  0.00    +0.290 C 
ATOM      2  C   LIG    1        4.140  -0.559   1.491  0.00  0.00    +0.180 C 
ATOM      3  N   LIG    1        5.574  -0.265   1.361  0.00  0.00    -0.510 NA
ATOM      4  C   LIG    1        6.301  -1.431   0.839  0.00  0.00    +0.160 C 
ATOM      5  C   LIG    1        5.720  -1.820  -0.523  0.00  0.00    +0.250 C 
ATOM      6  O   LIG    1        4.319  -2.073  -0.383  0.00  0.00    -0.370 OA
ENDROOT
BRANCH   1   9
ATOM      7  C   LIG    1       -0.025  -1.218   0.147  0.00  0.00    +0.290 A 
ATOM      8  N   LIG    1        1.093  -0.592  -0.118  0.00  0.00    -0.530 NA
ATOM      9  C   LIG    1        2.129  -1.338   0.264  0.00  0.00    +0.230 A 
ATOM     10  N   LIG    1        1.683  -2.453   0.779  0.00  0.00    -0.280 NA
ATOM     11  N   LIG    1        0.281  -2.398   0.714  0.00  0.00    -0.480 N 
ATOM     12  H   LIG    1       -0.343  -3.076   1.018  0.00  0.00    +0.440 HD
BRANCH   7  13
ATOM     13  C   LIG    1       -1.414  -0.707  -0.139  0.00  0.00    +0.150 C 
BRANCH  13  15
ATOM     14  C   LIG    1       -3.385   0.492   0.821  0.00  0.00    +0.030 C 
ATOM     15  C   LIG    1       -1.975  -0.026   1.111  0.00  0.00    +0.010 C 
ENDBRANCH  13  15
ENDBRANCH   7  13
ENDBRANCH   1   9
BRANCH   3  16
ATOM     16  C   LIG    1        6.139   0.177   2.643  0.00  0.00    +0.180 C 
BRANCH  16  17
ATOM     17  C   LIG    1        5.326   1.326   3.181  0.00  0.00    -0.110 A 
ATOM     18  C   LIG    1        4.968   2.369   2.347  0.00  0.00    +0.100 A 
ATOM     19  C   LIG    1        4.218   3.421   2.838  0.00  0.00    -0.010 A 
ATOM     20  C   LIG    1        3.834   3.435   4.168  0.00  0.00    +0.110 A 
ATOM     21  C   LIG    1        4.198   2.393   5.004  0.00  0.00    -0.020 A 
ATOM     22  F   LIG    1        3.105   4.465   4.651  0.00  0.00    -0.140 F 
ATOM     23  C   LIG    1        4.943   1.339   4.509  0.00  0.00    +0.050 A 
ENDBRANCH  16  17
BRANCH  16  24
ATOM     24  C   LIG    1        7.564   0.623   2.437  0.00  0.00    +0.530 C 
ATOM     25  O   LIG    1        7.913   1.061   1.362  0.00  0.00    -0.510 OA
ATOM     26  N   LIG    1        8.450   0.534   3.449  0.00  0.00    -0.850 N 
ATOM     27  H   LIG    1        9.367   0.821   3.316  0.00  0.00    +0.410 HD
ATOM     28  H   LIG    1        8.171   0.184   4.309  0.00  0.00    +0.400 HD
ENDBRANCH  16  24
ENDBRANCH   3  16
TORSDOF 6
