REMARK  Name = ZINCpk00000y6wlr.2
REMARK                            x       y       z     vdW  Elec       q    Type
REMARK                         _______ _______ _______ _____ _____    ______ ____
ROOT
ATOM      1  C   LIG    1        1.312   3.518   0.261  0.00  0.00    +0.270 C 
ATOM      2  C   LIG    1        1.358   2.002   0.051  0.00  0.00    +0.190 C 
ATOM      3  N   LIG    1        0.013   1.444   0.250  0.00  0.00    -0.500 NA
ATOM      4  C   LIG    1       -0.484   1.751   1.599  0.00  0.00    +0.160 C 
ATOM      5  C   LIG    1       -0.512   3.269   1.794  0.00  0.00    +0.240 C 
ATOM      6  O   LIG    1        0.797   3.798   1.566  0.00  0.00    -0.360 OA
ENDROOT
BRANCH   1  11
ATOM      7  C   LIG    1        4.813   4.423   0.449  0.00  0.00    +0.230 A 
ATOM      8  N   LIG    1        4.451   5.274  -0.474  0.00  0.00    -0.300 NA
ATOM      9  N   LIG    1        3.080   5.070  -0.699  0.00  0.00    -0.470 N 
ATOM     10  H   LIG    1        2.517   5.546  -1.330  0.00  0.00    +0.440 HD
ATOM     11  C   LIG    1        2.702   4.087   0.135  0.00  0.00    +0.290 A 
ATOM     12  N   LIG    1        3.752   3.705   0.816  0.00  0.00    -0.510 NA
BRANCH   7  13
ATOM     13  C   LIG    1        6.205   4.275   1.006  0.00  0.00    +0.150 C 
BRANCH  13  15
ATOM     14  C   LIG    1        8.396   3.102   0.742  0.00  0.00    +0.030 C 
ATOM     15  C   LIG    1        6.982   3.252   0.175  0.00  0.00    +0.010 C 
ENDBRANCH  13  15
ENDBRANCH   7  13
ENDBRANCH   1  11
BRANCH   3  16
ATOM     16  C   LIG    1        0.002  -0.004   0.002  0.00  0.00    +0.230 C 
BRANCH  16  17
ATOM     17  C   LIG    1       -1.405  -0.526   0.137  0.00  0.00    -0.090 A 
ATOM     18  C   LIG    1       -1.969  -0.678   1.390  0.00  0.00    +0.050 A 
ATOM     19  C   LIG    1       -3.261  -1.152   1.514  0.00  0.00    -0.010 A 
ATOM     20  C   LIG    1       -3.987  -1.485   0.383  0.00  0.00    +0.110 A 
ATOM     21  C   LIG    1       -3.420  -1.338  -0.871  0.00  0.00    -0.010 A 
ATOM     22  F   LIG    1       -5.249  -1.954   0.504  0.00  0.00    -0.140 F 
ATOM     23  C   LIG    1       -2.129  -0.859  -0.993  0.00  0.00    +0.080 A 
ENDBRANCH  16  17
BRANCH  16  24
ATOM     24  C   LIG    1        0.891  -0.692   1.005  0.00  0.00    +0.490 C 
ATOM     25  O   LIG    1        1.476  -0.041   1.844  0.00  0.00    -0.520 OA
ATOM     26  N   LIG    1        1.036  -2.032   0.970  0.00  0.00    -0.850 N 
ATOM     27  H   LIG    1        1.609  -2.475   1.616  0.00  0.00    +0.400 HD
ATOM     28  H   LIG    1        0.568  -2.553   0.299  0.00  0.00    +0.400 HD
ENDBRANCH  16  24
ENDBRANCH   3  16
TORSDOF 6
