REMARK  Name = ZINCpk000000noLV.0
REMARK                            x       y       z     vdW  Elec       q    Type
REMARK                         _______ _______ _______ _____ _____    ______ ____
ROOT
ATOM      1  C   LIG    1        2.037   5.411   1.395  0.00  0.00    +0.070 C 
ATOM      2  C   LIG    1        1.289   5.902   0.154  0.00  0.00    +0.150 C 
ATOM      3  C   LIG    1        2.131   5.624  -1.092  0.00  0.00    +0.070 C 
ENDROOT
BRANCH   2   4
ATOM      4  C   LIG    1        1.040   7.384   0.272  0.00  0.00    +0.520 C 
ATOM      5  N   LIG    1        0.011   7.949  -0.391  0.00  0.00    -0.720 N 
ATOM      6  H   LIG    1       -0.569   7.402  -0.944  0.00  0.00    +0.410 HD
ATOM      7  O   LIG    1        1.765   8.068   0.963  0.00  0.00    -0.490 OA
BRANCH   5   8
ATOM      8  C   LIG    1       -0.231   9.389  -0.277  0.00  0.00    +0.270 C 
ATOM      9  C   LIG    1       -0.980   9.883  -1.519  0.00  0.00    +0.070 C 
ATOM     10  C   LIG    1       -2.359   9.215  -1.554  0.00  0.00    +0.090 C 
ATOM     11  C   LIG    1       -3.079   9.499  -0.262  0.00  0.00    +0.520 C 
ATOM     12  N   LIG    1       -2.406   9.696   0.881  0.00  0.00    -0.670 N 
ATOM     13  H   LIG    1       -2.907   9.868   1.693  0.00  0.00    +0.410 HD
ATOM     14  O   LIG    1       -4.290   9.550  -0.255  0.00  0.00    -0.490 OA
ATOM     15  C   LIG    1       -1.066   9.664   0.946  0.00  0.00    +0.510 C 
ATOM     16  O   LIG    1       -0.517   9.859   2.009  0.00  0.00    -0.470 OA
ENDBRANCH   5   8
ENDBRANCH   2   4
BRANCH   2  17
ATOM     17  N   LIG    1        0.008   5.199   0.046  0.00  0.00    -0.710 N 
ATOM     18  H   LIG    1       -0.819   5.703  -0.009  0.00  0.00    +0.420 HD
BRANCH  17  19
ATOM     19  C   LIG    1       -0.021   3.803   0.021  0.00  0.00    +0.300 A 
ATOM     20  C   LIG    1        1.165   3.082  -0.017  0.00  0.00    -0.020 A 
ATOM     21  C   LIG    1        1.131   1.700  -0.042  0.00  0.00    +0.000 A 
ATOM     22  C   LIG    1       -0.082   1.036  -0.029  0.00  0.00    +0.010 A 
ATOM     23  C   LIG    1       -1.265   1.752   0.003  0.00  0.00    +0.160 A 
ATOM     24 BR   LIG    1        2.746   0.717  -0.094  0.00  0.00    -0.010 Br
ATOM     25  C   LIG    1       -1.238   3.132   0.033  0.00  0.00    -0.110 A 
BRANCH  25  26
ATOM     26  N   LIG    1       -2.505   3.897   0.074  0.00  0.00    +0.050 N 
ATOM     27  O   LIG    1       -2.485   5.112   0.003  0.00  0.00    -0.210 OA
ATOM     28  O   LIG    1       -3.567   3.310   0.178  0.00  0.00    -0.140 OA
ENDBRANCH  25  26
ENDBRANCH  17  19
ENDBRANCH   2  17
TORSDOF 5
