REMARK  Name = ZINCpk00000y6z1u.0
REMARK                            x       y       z     vdW  Elec       q    Type
REMARK                         _______ _______ _______ _____ _____    ______ ____
ROOT
ATOM      1  C   LIG    1       -2.346   1.714  -3.205  0.00  0.00    -0.060 A 
ATOM      2  C   LIG    1       -1.930   0.917  -2.159  0.00  0.00    +0.160 A 
ATOM      3  C   LIG    1       -0.867   1.579  -1.536  0.00  0.00    -0.760 A 
ATOM      4  C   LIG    1       -0.652   2.739  -2.203  0.00  0.00    +0.340 A 
ATOM      5  N   LIG    1       -1.544   2.832  -3.220  0.00  0.00    -0.540 N 
ATOM      6  H   LIG    1       -1.606   3.565  -3.852  0.00  0.00    +0.430 HD
ENDROOT
BRANCH   1   9
ATOM      7  C   LIG    1       -3.266   3.703  -4.970  0.00  0.00    +0.290 C 
ATOM      8  N   LIG    1       -3.892   2.378  -4.970  0.00  0.00    -0.550 N 
ATOM      9  C   LIG    1       -3.440   1.420  -4.136  0.00  0.00    +0.590 C 
ATOM     10  O   LIG    1       -3.940   0.310  -4.157  0.00  0.00    -0.490 OA
BRANCH   8  11
ATOM     11  C   LIG    1       -4.958   2.108  -5.833  0.00  0.00    +0.150 A 
ATOM     12  C   LIG    1       -5.653   0.910  -5.727  0.00  0.00    +0.020 A 
ATOM     13  C   LIG    1       -6.709   0.649  -6.578  0.00  0.00    +0.030 A 
ATOM     14  C   LIG    1       -7.067   1.574  -7.542  0.00  0.00    -0.020 A 
ATOM     15  C   LIG    1       -6.374   2.765  -7.653  0.00  0.00    +0.030 A 
ATOM     16  C   LIG    1       -5.321   3.035  -6.802  0.00  0.00    -0.040 A 
ENDBRANCH   8  11
ENDBRANCH   1   9
BRANCH   3  17
ATOM     17  S   LIG    1        0.036   1.004  -0.137  0.00  0.00    +2.720 S 
ATOM     18  O   LIG    1        1.304   1.644  -0.187  0.00  0.00    -0.960 OA
ATOM     19  O   LIG    1       -0.121  -0.408  -0.111  0.00  0.00    -0.950 OA
BRANCH  17  20
ATOM     20  N   LIG    1       -0.728   1.585   1.212  0.00  0.00    -1.000 NA
ATOM     21  C   LIG    1       -1.794   0.809   1.861  0.00  0.00    +0.280 C 
ATOM     22  C   LIG    1       -1.450   0.642   3.344  0.00  0.00    +0.020 C 
ATOM     23  C   LIG    1       -1.208   2.019   3.966  0.00  0.00    -0.010 C 
ATOM     24  C   LIG    1       -0.025   2.695   3.268  0.00  0.00    +0.150 C 
ATOM     25  C   LIG    1       -0.349   2.882   1.788  0.00  0.00    +0.310 C 
BRANCH  24  26
ATOM     26  O   LIG    1        0.220   3.967   3.870  0.00  0.00    -0.570 OA
ATOM     27  H   LIG    1        0.432   3.923   4.812  0.00  0.00    +0.380 HD
ENDBRANCH  24  26
ENDBRANCH  17  20
ENDBRANCH   3  17
TORSDOF 5
