REMARK  Name = ZINCpe000000SP8M.1
REMARK                            x       y       z     vdW  Elec       q    Type
REMARK                         _______ _______ _______ _____ _____    ______ ____
ROOT
ATOM      1  C   LIG    1       -1.311   1.880  -0.325  0.00  0.00    -0.440 A 
ATOM      2  C   LIG    1       -2.487   1.203   0.043  0.00  0.00    +0.570 A 
ATOM      3  N   LIG    1       -3.588   1.933   0.390  0.00  0.00    -0.520 N 
ATOM      4  C   LIG    1       -3.568   3.275   0.376  0.00  0.00    +0.710 A 
ATOM      5  N   LIG    1       -2.477   3.975   0.029  0.00  0.00    -0.660 N 
ATOM      6  H   LIG    1       -2.509   4.945   0.033  0.00  0.00    +0.440 HD
ATOM      7  O   LIG    1       -4.576   3.878   0.690  0.00  0.00    -0.520 OA
ATOM      8  C   LIG    1       -1.336   3.349  -0.326  0.00  0.00    +0.580 A 
ATOM      9  O   LIG    1       -0.348   3.987  -0.640  0.00  0.00    -0.490 OA
ENDROOT
BRANCH   3  10
ATOM     10  C   LIG    1       -4.816   1.237   0.782  0.00  0.00    +0.170 C 
ATOM     11  C   LIG    1       -5.524   1.713   2.051  0.00  0.00    +0.100 C 
ATOM     12  C   LIG    1       -4.770   0.381   2.049  0.00  0.00    +0.060 C 
ENDBRANCH   3  10
BRANCH   2  13
ATOM     13  N   LIG    1       -2.526  -0.157   0.057  0.00  0.00    -0.800 N 
ATOM     14  H   LIG    1       -3.366  -0.619  -0.088  0.00  0.00    +0.410 HD
ATOM     15  H   LIG    1       -1.713  -0.664   0.212  0.00  0.00    +0.440 HD
ENDBRANCH   2  13
BRANCH   1  16
ATOM     16  C   LIG    1       -0.145   1.171  -0.687  0.00  0.00    +0.460 C 
ATOM     17  O   LIG    1       -0.110  -0.037  -0.574  0.00  0.00    -0.490 OA
BRANCH  16  18
ATOM     18  C   LIG    1        1.052   1.914  -1.221  0.00  0.00    +0.130 C 
BRANCH  18  19
ATOM     19  S   LIG    1        2.373   0.735  -1.600  0.00  0.00    +0.040 S 
BRANCH  19  24
ATOM     20  C   LIG    1        4.632   3.663  -2.768  0.00  0.00    +0.250 A 
ATOM     21  N   LIG    1        5.481   2.696  -2.989  0.00  0.00    -0.300 NA
ATOM     22  N   LIG    1        4.846   1.500  -2.615  0.00  0.00    -0.470 N 
ATOM     23  H   LIG    1        5.220   0.606  -2.657  0.00  0.00    +0.440 HD
ATOM     24  C   LIG    1        3.612   1.842  -2.188  0.00  0.00    +0.250 A 
ATOM     25  N   LIG    1        3.500   3.150  -2.283  0.00  0.00    -0.530 NA
BRANCH  20  27
ATOM     26  C   LIG    1        4.756   5.902  -1.708  0.00  0.00    +0.050 C 
ATOM     27  C   LIG    1        4.890   5.127  -3.020  0.00  0.00    +0.030 C 
ATOM     28  C   LIG    1        3.872   5.656  -4.032  0.00  0.00    +0.050 C 
ATOM     29  C   LIG    1        6.303   5.306  -3.577  0.00  0.00    +0.050 C 
ENDBRANCH  20  27
ENDBRANCH  19  24
ENDBRANCH  18  19
ENDBRANCH  16  18
ENDBRANCH   1  16
TORSDOF 7
