REMARK  Name = ZINCpe000000SP8M.0
REMARK                            x       y       z     vdW  Elec       q    Type
REMARK                         _______ _______ _______ _____ _____    ______ ____
ROOT
ATOM      1  C   LIG    1       -1.311   1.880  -0.325  0.00  0.00    -0.440 A 
ATOM      2  C   LIG    1       -2.487   1.203   0.043  0.00  0.00    +0.570 A 
ATOM      3  N   LIG    1       -3.587   1.933   0.391  0.00  0.00    -0.520 N 
ATOM      4  C   LIG    1       -3.568   3.275   0.377  0.00  0.00    +0.710 A 
ATOM      5  N   LIG    1       -2.476   3.975   0.029  0.00  0.00    -0.660 N 
ATOM      6  H   LIG    1       -2.508   4.945   0.034  0.00  0.00    +0.440 HD
ATOM      7  O   LIG    1       -4.575   3.878   0.691  0.00  0.00    -0.520 OA
ATOM      8  C   LIG    1       -1.336   3.348  -0.326  0.00  0.00    +0.580 A 
ATOM      9  O   LIG    1       -0.348   3.986  -0.640  0.00  0.00    -0.490 OA
ENDROOT
BRANCH   3  10
ATOM     10  C   LIG    1       -4.816   1.237   0.781  0.00  0.00    +0.170 C 
ATOM     11  C   LIG    1       -5.525   1.713   2.051  0.00  0.00    +0.100 C 
ATOM     12  C   LIG    1       -4.770   0.381   2.049  0.00  0.00    +0.060 C 
ENDBRANCH   3  10
BRANCH   2  13
ATOM     13  N   LIG    1       -2.526  -0.157   0.057  0.00  0.00    -0.800 N 
ATOM     14  H   LIG    1       -3.366  -0.619  -0.088  0.00  0.00    +0.410 HD
ATOM     15  H   LIG    1       -1.713  -0.664   0.212  0.00  0.00    +0.440 HD
ENDBRANCH   2  13
BRANCH   1  16
ATOM     16  C   LIG    1       -0.145   1.171  -0.687  0.00  0.00    +0.460 C 
ATOM     17  O   LIG    1       -0.110  -0.037  -0.573  0.00  0.00    -0.490 OA
BRANCH  16  18
ATOM     18  C   LIG    1        1.052   1.914  -1.221  0.00  0.00    +0.130 C 
BRANCH  18  19
ATOM     19  S   LIG    1        2.373   0.735  -1.599  0.00  0.00    +0.040 S 
BRANCH  19  23
ATOM     20  C   LIG    1        5.459   2.682  -2.980  0.00  0.00    +0.200 A 
ATOM     21  N   LIG    1        4.601   3.636  -2.754  0.00  0.00    -0.280 NA
ATOM     22  N   LIG    1        3.507   3.146  -2.291  0.00  0.00    -0.280 NA
ATOM     23  C   LIG    1        3.612   1.842  -2.187  0.00  0.00    +0.150 A 
ATOM     24  N   LIG    1        4.860   1.504  -2.627  0.00  0.00    -0.570 N 
ATOM     25  H   LIG    1        5.242   0.614  -2.678  0.00  0.00    +0.430 HD
BRANCH  20  27
ATOM     26  C   LIG    1        6.883   2.393  -4.989  0.00  0.00    +0.040 C 
ATOM     27  C   LIG    1        6.853   2.845  -3.528  0.00  0.00    +0.020 C 
ATOM     28  C   LIG    1        7.826   1.992  -2.710  0.00  0.00    +0.040 C 
ATOM     29  C   LIG    1        7.267   4.316  -3.440  0.00  0.00    +0.070 C 
ENDBRANCH  20  27
ENDBRANCH  19  23
ENDBRANCH  18  19
ENDBRANCH  16  18
ENDBRANCH   1  16
TORSDOF 7
