REMARK  Name = ZINCrg00000fRYQC.0
REMARK                            x       y       z     vdW  Elec       q    Type
REMARK                         _______ _______ _______ _____ _____    ______ ____
ROOT
ATOM      1  N   LIG    1        5.913  -4.985  -0.081  0.00  0.00    -0.520 N 
ATOM      2  H   LIG    1        6.804  -4.602  -0.087  0.00  0.00    +0.440 HD
ATOM      3  C   LIG    1        4.833  -4.178  -0.066  0.00  0.00    +0.520 C 
ATOM      4  O   LIG    1        3.719  -4.657  -0.058  0.00  0.00    -0.510 OA
ENDROOT
BRANCH   1   6
ATOM      5  C   LIG    1        6.827  -7.183  -0.101  0.00  0.00    +0.570 C 
ATOM      6  N   LIG    1        5.748  -6.376  -0.086  0.00  0.00    -0.520 N 
ATOM      7  H   LIG    1        4.856  -6.759  -0.080  0.00  0.00    +0.430 HD
ATOM      8  O   LIG    1        7.945  -6.703  -0.109  0.00  0.00    -0.530 OA
BRANCH   5  12
ATOM      9  C   LIG    1        6.321 -11.402  -0.120  0.00  0.00    +0.140 A 
ATOM     10  C   LIG    1        5.210 -10.570  -0.104  0.00  0.00    -0.030 A 
ATOM     11  C   LIG    1        5.371  -9.201  -0.098  0.00  0.00    +0.050 A 
ATOM     12  C   LIG    1        6.654  -8.648  -0.107  0.00  0.00    -0.130 A 
ATOM     13  C   LIG    1        7.772  -9.486  -0.128  0.00  0.00    +0.040 A 
ATOM     14  C   LIG    1        7.604 -10.857  -0.130  0.00  0.00    +0.090 A 
BRANCH   9  16
ATOM     15  C   LIG    1        4.815 -13.241  -0.116  0.00  0.00    +0.250 C 
ATOM     16  O   LIG    1        6.157 -12.750  -0.126  0.00  0.00    -0.300 OA
ENDBRANCH   9  16
BRANCH  14  17
ATOM     17  O   LIG    1        8.690 -11.675  -0.146  0.00  0.00    -0.300 OA
ATOM     18  C   LIG    1        9.975 -11.048  -0.155  0.00  0.00    +0.250 C 
ENDBRANCH  14  17
ENDBRANCH   5  12
ENDBRANCH   1   6
BRANCH   3  19
ATOM     19  C   LIG    1        5.011  -2.682  -0.060  0.00  0.00    +0.280 C 
BRANCH  19  20
ATOM     20  O   LIG    1        3.708  -2.040  -0.044  0.00  0.00    -0.330 OA
BRANCH  20  21
ATOM     21  C   LIG    1        3.690  -0.693  -0.036  0.00  0.00    +0.510 C 
ATOM     22  O   LIG    1        4.734  -0.071  -0.043  0.00  0.00    -0.490 OA
BRANCH  21  23
ATOM     23  C   LIG    1        2.404   0.027  -0.020  0.00  0.00    -0.160 A 
ATOM     24  C   LIG    1        1.201  -0.683  -0.013  0.00  0.00    +0.110 A 
ATOM     25  C   LIG    1        0.002  -0.004   0.002  0.00  0.00    +0.000 A 
ATOM     26  C   LIG    1       -0.017   1.381   0.010  0.00  0.00    +0.080 A 
ATOM     27  C   LIG    1        1.165   2.096   0.002  0.00  0.00    -0.020 A 
ATOM     28  C   LIG    1        2.381   1.429  -0.013  0.00  0.00    +0.180 A 
BRANCH  28  29
ATOM     29  O   LIG    1        3.542   2.131  -0.020  0.00  0.00    -0.480 OA
ATOM     30  H   LIG    1        3.870   2.338  -0.906  0.00  0.00    +0.400 HD
ENDBRANCH  28  29
ENDBRANCH  21  23
ENDBRANCH  20  21
ENDBRANCH  19  20
ENDBRANCH   3  19
TORSDOF 9
