REMARK  Name = ZINCtV00000L6jXH.0
REMARK                            x       y       z     vdW  Elec       q    Type
REMARK                         _______ _______ _______ _____ _____    ______ ____
ROOT
ATOM      1  P   LIG    1       -2.682  -0.091  -0.967  0.00  0.00    +2.550 P 
ATOM      2  C   LIG    1       -1.471  -1.373  -0.483  0.00  0.00    -0.690 C 
ATOM      3  C   LIG    1       -0.751  -1.904  -1.478  0.00  0.00    +0.220 C 
ATOM      4  O   LIG    1       -0.877  -1.570  -2.764  0.00  0.00    -0.270 OA
ATOM      5  C   LIG    1       -1.403  -0.472  -3.311  0.00  0.00    +0.230 C 
ATOM      6  O   LIG    1       -4.058  -0.632  -0.902  0.00  0.00    -0.980 OA
ATOM      7  C   LIG    1       -2.255   0.351  -2.688  0.00  0.00    -0.720 C 
ENDROOT
BRANCH   1  17
ATOM      8  C   LIG    1       -4.784   2.255   0.329  0.00  0.00    +0.070 C 
ATOM      9  C   LIG    1       -3.443   2.339  -0.403  0.00  0.00    +0.150 C 
ATOM     10  C   LIG    1       -2.671   3.612   0.025  0.00  0.00    +0.110 C 
ATOM     11  C   LIG    1       -1.229   3.144   0.025  0.00  0.00    -0.120 A 
ATOM     12  C   LIG    1       -0.041   3.843   0.020  0.00  0.00    +0.050 A 
ATOM     13  C   LIG    1        1.164   3.162   0.008  0.00  0.00    +0.000 A 
ATOM     14  C   LIG    1        1.174   1.780   0.000  0.00  0.00    +0.040 A 
ATOM     15  C   LIG    1       -0.013   1.076   0.008  0.00  0.00    -0.040 A 
ATOM     16  C   LIG    1       -1.230   1.754   0.017  0.00  0.00    +0.070 A 
ATOM     17  N   LIG    1       -2.538   1.254   0.034  0.00  0.00    -0.840 N 
ENDBRANCH   1  17
BRANCH   5  18
ATOM     18  C   LIG    1       -1.017  -0.141  -4.701  0.00  0.00    -0.080 A 
ATOM     19  C   LIG    1       -1.541   0.993  -5.322  0.00  0.00    +0.050 A 
ATOM     20  C   LIG    1       -1.173   1.299  -6.616  0.00  0.00    +0.010 A 
ATOM     21  C   LIG    1       -0.294   0.478  -7.301  0.00  0.00    +0.030 A 
ATOM     22  C   LIG    1        0.224  -0.650  -6.692  0.00  0.00    +0.010 A 
ATOM     23  C   LIG    1       -0.132  -0.964  -5.396  0.00  0.00    +0.050 A 
ENDBRANCH   5  18
BRANCH   3  24
ATOM     24  C   LIG    1        0.254  -2.932  -1.128  0.00  0.00    -0.080 A 
ATOM     25  C   LIG    1        0.432  -3.314   0.202  0.00  0.00    +0.050 A 
ATOM     26  C   LIG    1        1.367  -4.277   0.521  0.00  0.00    +0.010 A 
ATOM     27  C   LIG    1        2.135  -4.856  -0.473  0.00  0.00    +0.030 A 
ATOM     28  C   LIG    1        1.968  -4.478  -1.793  0.00  0.00    +0.010 A 
ATOM     29  C   LIG    1        1.032  -3.519  -2.126  0.00  0.00    +0.050 A 
ENDBRANCH   3  24
TORSDOF 3
