REMARK  Name = ZINCpk000000ocBe.0
REMARK                            x       y       z     vdW  Elec       q    Type
REMARK                         _______ _______ _______ _____ _____    ______ ____
ROOT
ATOM      1  C   LIG    1        5.836   3.912   0.067  0.00  0.00    +0.510 C 
ATOM      2  N   LIG    1        4.960   4.765   0.636  0.00  0.00    -0.660 N 
ATOM      3  H   LIG    1        5.277   5.586   1.044  0.00  0.00    +0.420 HD
ATOM      4  O   LIG    1        5.432   2.932  -0.521  0.00  0.00    -0.440 OA
ENDROOT
BRANCH   1  10
ATOM      5  C   LIG    1        7.696   1.727   0.559  0.00  0.00    +0.530 C 
ATOM      6  N   LIG    1        8.072   2.917   0.049  0.00  0.00    -0.610 N 
ATOM      7  C   LIG    1        9.303   3.172  -0.712  0.00  0.00    +0.250 C 
ATOM      8  C   LIG    1        9.294   4.663  -1.110  0.00  0.00    +0.040 C 
ATOM      9  C   LIG    1        7.789   5.034  -1.038  0.00  0.00    +0.060 C 
ATOM     10  C   LIG    1        7.316   4.178   0.163  0.00  0.00    +0.220 C 
ATOM     11  O   LIG    1        6.702   1.650   1.249  0.00  0.00    -0.520 OA
BRANCH   5  12
ATOM     12  C   LIG    1        8.512   0.493   0.272  0.00  0.00    +0.050 C 
BRANCH  12  14
ATOM     13  C   LIG    1        8.701  -1.966   0.673  0.00  0.00    +0.010 C 
ATOM     14  C   LIG    1        7.873  -0.713   0.964  0.00  0.00    +0.030 C 
ENDBRANCH  12  14
ENDBRANCH   5  12
ENDBRANCH   1  10
BRANCH   2  15
ATOM     15  C   LIG    1        3.598   4.467   0.637  0.00  0.00    +0.370 A 
ATOM     16  C   LIG    1        2.716   5.291   1.323  0.00  0.00    -0.020 A 
ATOM     17  C   LIG    1        1.355   4.976   1.320  0.00  0.00    +0.050 A 
ATOM     18  C   LIG    1        0.940   3.842   0.611  0.00  0.00    +0.000 A 
ATOM     19  C   LIG    1        1.881   3.080  -0.048  0.00  0.00    +0.310 A 
ATOM     20  N   LIG    1        3.160   3.404  -0.019  0.00  0.00    -0.460 NA
BRANCH  17  21
ATOM     21  C   LIG    1        0.378   5.821   2.042  0.00  0.00    +0.240 A 
ATOM     22  N   LIG    1       -0.927   5.632   2.109  0.00  0.00    -0.490 NA
ATOM     23  C   LIG    1       -1.399   6.641   2.867  0.00  0.00    +0.430 A 
ATOM     24  N   LIG    1       -0.378   7.379   3.216  0.00  0.00    -0.430 NA
ATOM     25  O   LIG    1        0.648   6.926   2.753  0.00  0.00    +0.080 OA
BRANCH  23  26
ATOM     26  N   LIG    1       -2.726   6.858   3.213  0.00  0.00    -0.810 N 
ATOM     27  H   LIG    1       -2.965   7.618   3.766  0.00  0.00    +0.420 HD
ATOM     28  H   LIG    1       -3.414   6.249   2.902  0.00  0.00    +0.420 HD
ENDBRANCH  23  26
ENDBRANCH  17  21
ENDBRANCH   2  15
TORSDOF 6
