REMARK  Name = ZINCqH0000006KwG.0
REMARK                            x       y       z     vdW  Elec       q    Type
REMARK                         _______ _______ _______ _____ _____    ______ ____
ROOT
ATOM      1  C   LIG    1        0.917   3.124   3.603  0.00  0.00    +0.260 A 
ATOM      2  C   LIG    1        0.349   2.412   4.603  0.00  0.00    +0.050 A 
ATOM      3  C   LIG    1       -0.008   1.103   4.046  0.00  0.00    -0.090 A 
ATOM      4  C   LIG    1       -0.611  -0.041   4.572  0.00  0.00    +0.050 A 
ATOM      5  C   LIG    1       -0.811  -1.131   3.771  0.00  0.00    -0.010 A 
ATOM      6  C   LIG    1       -0.427  -1.107   2.438  0.00  0.00    +0.030 A 
ATOM      7  C   LIG    1        0.176   0.011   1.900  0.00  0.00    -0.090 A 
ATOM      8  C   LIG    1        0.595   0.021   0.453  0.00  0.00    +0.090 C 
ATOM      9  C   LIG    1        0.390   1.130   2.696  0.00  0.00    +0.120 A 
ATOM     10  N   LIG    1        0.948   2.369   2.456  0.00  0.00    -0.480 N 
ATOM     11  C   LIG    1        1.492   2.813   1.171  0.00  0.00    +0.320 C 
ENDROOT
BRANCH   2  12
ATOM     12  N   LIG    1        0.139   2.846   5.928  0.00  0.00    -0.660 N 
ATOM     13  H   LIG    1       -0.661   3.346   6.154  0.00  0.00    +0.410 HD
ATOM     14  C   LIG    1        1.051   2.566   6.882  0.00  0.00    +0.510 C 
ATOM     15  O   LIG    1        2.093   2.021   6.584  0.00  0.00    -0.530 OA
ATOM     16  C   LIG    1        0.775   2.929   8.319  0.00  0.00    +0.100 C 
ENDBRANCH   2  12
BRANCH   1  17
ATOM     17  O   LIG    1        1.385   4.394   3.715  0.00  0.00    -0.300 OA
BRANCH  17  18
ATOM     18  C   LIG    1        0.465   5.452   3.441  0.00  0.00    +0.290 C 
BRANCH  18  23
ATOM     19  C   LIG    1        3.116   8.041   4.148  0.00  0.00    +0.170 A 
ATOM     20  C   LIG    1        2.373   9.197   3.921  0.00  0.00    -0.120 A 
ATOM     21  C   LIG    1        1.049   9.082   3.550  0.00  0.00    +0.170 A 
ATOM     22  N   LIG    1        0.489   7.896   3.405  0.00  0.00    -0.500 NA
ATOM     23  C   LIG    1        1.158   6.779   3.616  0.00  0.00    +0.160 A 
ATOM     24  C   LIG    1        0.235  10.326   3.303  0.00  0.00    +0.130 C 
ATOM     25  C   LIG    1        2.486   6.810   3.989  0.00  0.00    -0.040 A 
BRANCH  19  27
ATOM     26  C   LIG    1        4.985   9.419   4.652  0.00  0.00    +0.250 C 
ATOM     27  O   LIG    1        4.421   8.113   4.513  0.00  0.00    -0.310 OA
ENDBRANCH  19  27
ENDBRANCH  18  23
ENDBRANCH  17  18
ENDBRANCH   1  17
TORSDOF 5
