REMARK  Name = ZINCvU0000000EG6.0
REMARK                            x       y       z     vdW  Elec       q    Type
REMARK                         _______ _______ _______ _____ _____    ______ ____
ROOT
ATOM      1  C   LIG    1        6.093  -0.686  -0.278  0.00  0.00    +0.060 C 
ENDROOT
BRANCH   1   2
ATOM      2  C   LIG    1        6.332  -1.032  -1.725  0.00  0.00    -0.080 A 
ATOM      3  C   LIG    1        6.410  -0.028  -2.672  0.00  0.00    +0.030 A 
ATOM      4  C   LIG    1        6.634  -0.346  -3.998  0.00  0.00    +0.000 A 
ATOM      5  C   LIG    1        6.771  -1.667  -4.380  0.00  0.00    +0.010 A 
ATOM      6  C   LIG    1        6.687  -2.672  -3.433  0.00  0.00    -0.010 A 
ATOM      7  C   LIG    1        6.468  -2.354  -2.106  0.00  0.00    +0.060 A 
ENDBRANCH   1   2
BRANCH   1  10
ATOM      8  N   LIG    1        3.631  -0.643  -0.038  0.00  0.00    -0.650 N 
ATOM      9  H   LIG    1        3.651  -1.611   0.022  0.00  0.00    +0.420 HD
ATOM     10  C   LIG    1        4.783   0.048  -0.147  0.00  0.00    +0.540 C 
ATOM     11  O   LIG    1        4.766   1.261  -0.139  0.00  0.00    -0.500 OA
BRANCH   8  17
ATOM     12  C   LIG    1        1.279  -0.532  -0.598  0.00  0.00    +0.110 A 
ATOM     13  C   LIG    1        0.070   0.144  -0.567  0.00  0.00    -0.060 A 
ATOM     14  C   LIG    1       -0.015   1.381   0.045  0.00  0.00    +0.040 A 
ATOM     15  C   LIG    1        1.104   1.946   0.628  0.00  0.00    -0.010 A 
ATOM     16  C   LIG    1        2.314   1.277   0.603  0.00  0.00    +0.070 A 
ATOM     17  C   LIG    1        2.406   0.036  -0.010  0.00  0.00    +0.110 A 
BRANCH  12  18
ATOM     18  O   LIG    1        1.364  -1.749  -1.199  0.00  0.00    -0.320 OA
BRANCH  18  20
ATOM     19  C   LIG    1        0.456  -3.637  -2.405  0.00  0.00    +0.070 C 
ATOM     20  C   LIG    1        0.167  -2.270  -1.780  0.00  0.00    +0.180 C 
ENDBRANCH  18  20
ENDBRANCH  12  18
ENDBRANCH   8  17
ENDBRANCH   1  10
BRANCH   1  21
ATOM     21  S   LIG    1        7.438   0.368   0.321  0.00  0.00    +0.060 S 
BRANCH  21  22
ATOM     22  C   LIG    1        8.787  -0.759   0.200  0.00  0.00    +0.190 A 
ATOM     23  N   LIG    1        8.604  -1.997  -0.243  0.00  0.00    -0.520 NA
ATOM     24  C   LIG    1        9.609  -2.852  -0.339  0.00  0.00    +0.340 A 
ATOM     25  N   LIG    1       10.841  -2.546  -0.010  0.00  0.00    -0.510 NA
ATOM     26  C   LIG    1       11.138  -1.321   0.450  0.00  0.00    +0.180 A 
ATOM     27  C   LIG    1       12.443  -0.960   0.811  0.00  0.00    +0.040 A 
ATOM     28  C   LIG    1       12.693   0.304   1.258  0.00  0.00    +0.060 A 
ATOM     29  C   LIG    1       11.668   1.238   1.376  0.00  0.00    +0.020 A 
ATOM     30  C   LIG    1       10.386   0.917   1.038  0.00  0.00    +0.070 A 
ATOM     31  C   LIG    1        9.325  -4.241  -0.851  0.00  0.00    +0.170 C 
ATOM     32  C   LIG    1       10.098  -0.367   0.567  0.00  0.00    -0.150 A 
ENDBRANCH  21  22
ENDBRANCH   1  21
TORSDOF 7
