REMARK  Name = ZINCrH000004rIwM.0
REMARK                            x       y       z     vdW  Elec       q    Type
REMARK                         _______ _______ _______ _____ _____    ______ ____
ROOT
ATOM      1  C   LIG    1       -1.873   4.486   0.035  0.00  0.00    +0.190 A 
ATOM      2  C   LIG    1       -3.196   4.071   0.040  0.00  0.00    -0.080 A 
ATOM      3  C   LIG    1       -4.214   5.004   0.051  0.00  0.00    +0.080 A 
ATOM      4  C   LIG    1       -3.923   6.358   0.056  0.00  0.00    -0.040 A 
ATOM      5  C   LIG    1       -2.614   6.788   0.051  0.00  0.00    +0.080 A 
ATOM      6  C   LIG    1       -1.574   5.856   0.046  0.00  0.00    -0.170 A 
ENDROOT
BRANCH   6   7
ATOM      7  C   LIG    1       -0.170   6.309   0.047  0.00  0.00    +0.570 C 
ATOM      8  N   LIG    1        0.112   7.627   0.058  0.00  0.00    -0.730 N 
ATOM      9  H   LIG    1       -0.608   8.277   0.065  0.00  0.00    +0.400 HD
ATOM     10  O   LIG    1        0.732   5.494   0.038  0.00  0.00    -0.520 OA
BRANCH   8  11
ATOM     11  C   LIG    1        1.506   8.077   0.059  0.00  0.00    +0.400 C 
BRANCH  11  12
ATOM     12  C   LIG    1        1.548   9.584   0.072  0.00  0.00    -0.040 A 
ATOM     13  C   LIG    1        1.566  10.361   1.169  0.00  0.00    -0.030 A 
ATOM     14  C   LIG    1        1.607  11.701   0.722  0.00  0.00    -0.070 A 
ATOM     15  C   LIG    1        1.602  11.664  -0.623  0.00  0.00    +0.180 A 
ATOM     16  O   LIG    1        1.566  10.378  -1.011  0.00  0.00    -0.170 OA
ENDBRANCH  11  12
ENDBRANCH   8  11
ENDBRANCH   6   7
BRANCH   1  17
ATOM     17  O   LIG    1       -0.871   3.571   0.025  0.00  0.00    -0.280 OA
BRANCH  17  18
ATOM     18  C   LIG    1       -1.252   2.193   0.020  0.00  0.00    +0.300 C 
BRANCH  18  24
ATOM     19  C   LIG    1        5.494  -0.825  -0.055  0.00  0.00    +0.120 C 
ATOM     20  C   LIG    1        3.993  -0.688  -0.040  0.00  0.00    -0.110 A 
ATOM     21  C   LIG    1        3.431   0.539  -0.028  0.00  0.00    +0.210 A 
ATOM     22  N   LIG    1        2.074   0.681  -0.014  0.00  0.00    -0.360 N 
ATOM     23  C   LIG    1        1.258   1.780  -0.000  0.00  0.00    +0.140 A 
ATOM     24  C   LIG    1       -0.016   1.331   0.009  0.00  0.00    +0.040 A 
ATOM     25  N   LIG    1        0.002  -0.004   0.002  0.00  0.00    -0.480 NA
ATOM     26  C   LIG    1        1.260  -0.422  -0.012  0.00  0.00    +0.220 A 
ATOM     27  C   LIG    1        1.832  -1.710  -0.025  0.00  0.00    +0.070 A 
ATOM     28  C   LIG    1        3.186  -1.838  -0.038  0.00  0.00    +0.040 A 
ENDBRANCH  18  24
ENDBRANCH  17  18
ENDBRANCH   1  17
TORSDOF 6
