REMARK  Name = ZINCrD00000l14AA.0
REMARK                            x       y       z     vdW  Elec       q    Type
REMARK                         _______ _______ _______ _____ _____    ______ ____
ROOT
ATOM      1  C   LIG    1       -0.727   1.582   1.271  0.00  0.00    +0.130 C 
ATOM      2  N   LIG    1       -0.044   1.083   2.477  0.00  0.00    -0.720 N 
ATOM      3  H   LIG    1        0.870   1.271   2.745  0.00  0.00    +0.440 HD
ATOM      4  C   LIG    1       -0.933   0.317   3.134  0.00  0.00    +0.710 C 
ATOM      5  N   LIG    1       -2.113   0.252   2.507  0.00  0.00    -0.560 N 
ATOM      6  O   LIG    1       -0.691  -0.253   4.179  0.00  0.00    -0.540 OA
ATOM      7  C   LIG    1       -0.015   1.094   0.008  0.00  0.00    +0.090 C 
ATOM      8  C   LIG    1       -2.113   0.976   1.370  0.00  0.00    +0.540 C 
ATOM      9  O   LIG    1       -3.030   1.113   0.589  0.00  0.00    -0.460 OA
ENDROOT
BRANCH   1  10
ATOM     10  C   LIG    1       -0.802   3.110   1.288  0.00  0.00    +0.060 C 
BRANCH  10  11
ATOM     11  C   LIG    1        0.612   3.691   1.243  0.00  0.00    +0.010 C 
BRANCH  11  12
ATOM     12  C   LIG    1        0.537   5.219   1.260  0.00  0.00    +0.000 C 
BRANCH  12  13
ATOM     13  C   LIG    1        1.952   5.800   1.214  0.00  0.00    +0.000 C 
BRANCH  13  14
ATOM     14  C   LIG    1        1.877   7.328   1.232  0.00  0.00    +0.000 C 
BRANCH  14  16
ATOM     15  C   LIG    1        3.216   9.437   1.203  0.00  0.00    +0.000 C 
ATOM     16  C   LIG    1        3.291   7.909   1.186  0.00  0.00    -0.010 C 
ENDBRANCH  14  16
ENDBRANCH  13  14
ENDBRANCH  12  13
ENDBRANCH  11  12
ENDBRANCH  10  11
ENDBRANCH   1  10
BRANCH   5  17
ATOM     17  C   LIG    1       -3.264  -0.511   2.996  0.00  0.00    +0.360 C 
BRANCH  17  18
ATOM     18  C   LIG    1       -4.106   0.365   3.888  0.00  0.00    +0.500 C 
ATOM     19  N   LIG    1       -5.224  -0.129   4.456  0.00  0.00    -0.670 N 
ATOM     20  H   LIG    1       -5.524  -1.025   4.238  0.00  0.00    +0.420 HD
ATOM     21  O   LIG    1       -3.777   1.514   4.094  0.00  0.00    -0.500 OA
BRANCH  19  22
ATOM     22  C   LIG    1       -5.953   0.653   5.359  0.00  0.00    +0.180 A 
ATOM     23  C   LIG    1       -6.045   2.026   5.174  0.00  0.00    -0.020 A 
ATOM     24  C   LIG    1       -6.764   2.797   6.067  0.00  0.00    +0.070 A 
ATOM     25  C   LIG    1       -7.394   2.205   7.145  0.00  0.00    -0.090 A 
ATOM     26  C   LIG    1       -7.306   0.833   7.334  0.00  0.00    +0.150 A 
ATOM     27  C   LIG    1       -6.590   0.055   6.438  0.00  0.00    -0.040 A 
BRANCH  26  28
ATOM     28  O   LIG    1       -7.925   0.252   8.395  0.00  0.00    -0.320 OA
ATOM     29  C   LIG    1       -8.649   1.114   9.275  0.00  0.00    +0.250 C 
ENDBRANCH  26  28
ENDBRANCH  19  22
ENDBRANCH  17  18
ENDBRANCH   5  17
TORSDOF 10
