REMARK  Name = ZINCrg00000SjSnL.1
REMARK                            x       y       z     vdW  Elec       q    Type
REMARK                         _______ _______ _______ _____ _____    ______ ____
ROOT
ATOM      1  C   LIG    1        1.513  -8.999   1.195  0.00  0.00    +0.240 C 
ATOM      2  C   LIG    1        2.616  -8.140   1.820  0.00  0.00    +0.030 C 
ATOM      3  C   LIG    1        2.060  -6.747   2.124  0.00  0.00    +0.180 C 
ATOM      4  N   LIG    1        1.578  -6.129   0.882  0.00  0.00    -0.530 NA
ATOM      5  C   LIG    1        0.486  -6.911   0.289  0.00  0.00    +0.180 C 
ATOM      6  C   LIG    1        0.995  -8.309  -0.070  0.00  0.00    +0.020 C 
ENDROOT
BRANCH   1   8
ATOM      7  C   LIG    1        1.234 -11.381   0.767  0.00  0.00    +0.600 C 
ATOM      8  N   LIG    1        2.054 -10.315   0.848  0.00  0.00    -0.720 N 
ATOM      9  H   LIG    1        3.003 -10.419   0.677  0.00  0.00    +0.400 HD
ATOM     10  O   LIG    1        0.044 -11.251   0.981  0.00  0.00    -0.550 OA
BRANCH   7  14
ATOM     11  C   LIG    1        1.601 -16.257  -0.260  0.00  0.00    +0.360 C 
ATOM     12  N   LIG    1        1.934 -14.848  -0.033  0.00  0.00    -0.360 N 
ATOM     13  C   LIG    1        1.064 -13.880   0.298  0.00  0.00    +0.320 A 
ATOM     14  C   LIG    1        1.779 -12.706   0.417  0.00  0.00    -0.300 A 
ATOM     15  C   LIG    1        3.130 -13.009   0.137  0.00  0.00    +0.270 A 
ATOM     16  N   LIG    1        3.212 -14.285  -0.124  0.00  0.00    -0.300 NA
ENDBRANCH   7  14
ENDBRANCH   1   8
BRANCH   4  17
ATOM     17  C   LIG    1        1.165  -4.738   1.112  0.00  0.00    +0.160 C 
BRANCH  17  18
ATOM     18  C   LIG    1        2.406  -3.852   1.244  0.00  0.00    +0.270 C 
BRANCH  18  19
ATOM     19  C   LIG    1        1.982  -2.428   1.493  0.00  0.00    -0.110 A 
ATOM     20  C   LIG    1        1.571  -1.636   0.437  0.00  0.00    +0.040 A 
ATOM     21  C   LIG    1        1.181  -0.329   0.660  0.00  0.00    +0.040 A 
ATOM     22  C   LIG    1        1.202   0.192   1.943  0.00  0.00    +0.030 A 
ATOM     23  O   LIG    1        0.875   1.426   2.425  0.00  0.00    -0.310 OA
ATOM     24  C   LIG    1        0.704   1.252   3.844  0.00  0.00    +0.430 C 
ATOM     25  O   LIG    1        1.549   0.129   4.156  0.00  0.00    -0.310 OA
ATOM     26  C   LIG    1        1.617  -0.606   3.007  0.00  0.00    +0.040 A 
ATOM     27  C   LIG    1        2.005  -1.915   2.777  0.00  0.00    +0.050 A 
ENDBRANCH  18  19
BRANCH  18  28
ATOM     28  O   LIG    1        3.169  -3.919   0.038  0.00  0.00    -0.540 OA
ATOM     29  H   LIG    1        2.689  -3.623  -0.748  0.00  0.00    +0.370 HD
ENDBRANCH  18  28
ENDBRANCH  17  18
ENDBRANCH   4  17
TORSDOF 6
