REMARK  Name = ZINCtj00001n1jEc.0
REMARK                            x       y       z     vdW  Elec       q    Type
REMARK                         _______ _______ _______ _____ _____    ______ ____
ROOT
ATOM      1  C   LIG    1       -0.330   0.473   1.107  0.00  0.00    +0.170 C 
ATOM      2  C   LIG    1        0.060   0.422   2.588  0.00  0.00    +0.330 C 
ATOM      3  N   LIG    1        1.398   1.016   2.739  0.00  0.00    -0.630 N 
ATOM      4  C   LIG    1        2.472   0.537   1.855  0.00  0.00    +0.310 C 
ATOM      5  C   LIG    1        1.969   0.583   0.409  0.00  0.00    +0.250 C 
ATOM      6  C   LIG    1        1.632   1.971   3.660  0.00  0.00    +0.610 C 
ATOM      7  O   LIG    1        0.767   2.267   4.463  0.00  0.00    -0.490 OA
ATOM      8  N   LIG    1        0.715  -0.174   0.304  0.00  0.00    -0.380 N 
ATOM      9  H   LIG    1        0.863  -1.114   0.640  0.00  0.00    +0.430 HD
ENDROOT
BRANCH   6  10
ATOM     10  C   LIG    1        2.930   2.654   3.695  0.00  0.00    -0.080 A 
ATOM     11  C   LIG    1        3.510   3.245   4.797  0.00  0.00    +0.170 A 
ATOM     12  C   LIG    1        4.738   3.769   4.383  0.00  0.00    -0.750 A 
ATOM     13  C   LIG    1        4.880   3.503   3.062  0.00  0.00    +0.360 A 
ATOM     14  N   LIG    1        3.787   2.826   2.632  0.00  0.00    -0.540 N 
ATOM     15  H   LIG    1        3.635   2.515   1.726  0.00  0.00    +0.420 HD
BRANCH  12  16
ATOM     16  S   LIG    1        5.894   4.630   5.397  0.00  0.00    +2.710 S 
ATOM     17  O   LIG    1        7.160   4.496   4.766  0.00  0.00    -0.950 OA
ATOM     18  O   LIG    1        5.643   4.214   6.733  0.00  0.00    -0.940 OA
BRANCH  16  19
ATOM     19  N   LIG    1        5.504   6.238   5.328  0.00  0.00    -1.000 NA
ATOM     20  C   LIG    1        6.111   7.086   4.300  0.00  0.00    +0.320 C 
ATOM     21  C   LIG    1        5.014   7.584   3.344  0.00  0.00    +0.090 C 
ATOM     22  S   LIG    1        3.764   8.484   4.307  0.00  0.00    -0.240 S 
ATOM     23  C   LIG    1        3.297   7.265   5.571  0.00  0.00    +0.100 C 
ATOM     24  C   LIG    1        4.562   6.798   6.298  0.00  0.00    +0.320 C 
ENDBRANCH  16  19
ENDBRANCH  12  16
ENDBRANCH   6  10
BRANCH   1  25
ATOM     25  C   LIG    1       -0.479   1.932   0.669  0.00  0.00    +0.030 C 
BRANCH  25  27
ATOM     26  C   LIG    1       -1.885   3.986   0.882  0.00  0.00    +0.030 C 
ATOM     27  C   LIG    1       -1.653   2.570   1.414  0.00  0.00    +0.040 C 
ENDBRANCH  25  27
ENDBRANCH   1  25
BRANCH   8  28
ATOM     28  C   LIG    1        0.289  -0.221  -1.102  0.00  0.00    +0.270 C 
BRANCH  28  29
ATOM     29  C   LIG    1        1.292  -1.046  -1.911  0.00  0.00    +0.200 C 
BRANCH  29  30
ATOM     30  O   LIG    1        1.264  -2.403  -1.463  0.00  0.00    -0.400 OA
ATOM     31  C   LIG    1        2.169  -3.263  -2.158  0.00  0.00    +0.240 C 
ENDBRANCH  29  30
ENDBRANCH  28  29
ENDBRANCH   8  28
TORSDOF 8
