REMARK  Name = ZINCtj00001n1jEc.1
REMARK                            x       y       z     vdW  Elec       q    Type
REMARK                         _______ _______ _______ _____ _____    ______ ____
ROOT
ATOM      1  C   LIG    1       -1.912   3.434   1.958  0.00  0.00    +0.150 C 
ATOM      2  C   LIG    1       -1.554   4.916   2.113  0.00  0.00    +0.340 C 
ATOM      3  N   LIG    1       -2.232   5.437   3.310  0.00  0.00    -0.630 N 
ATOM      4  C   LIG    1       -2.091   4.688   4.568  0.00  0.00    +0.290 C 
ATOM      5  C   LIG    1       -2.423   3.216   4.298  0.00  0.00    +0.270 C 
ATOM      6  C   LIG    1       -2.963   6.568   3.256  0.00  0.00    +0.600 C 
ATOM      7  O   LIG    1       -3.054   7.184   2.210  0.00  0.00    -0.490 OA
ATOM      8  N   LIG    1       -1.584   2.720   3.199  0.00  0.00    -0.380 N 
ATOM      9  H   LIG    1       -0.613   2.870   3.425  0.00  0.00    +0.420 HD
ENDROOT
BRANCH   6  10
ATOM     10  C   LIG    1       -3.647   7.057   4.457  0.00  0.00    -0.070 A 
ATOM     11  C   LIG    1       -4.768   7.860   4.487  0.00  0.00    +0.170 A 
ATOM     12  C   LIG    1       -5.080   8.081   5.832  0.00  0.00    -0.750 A 
ATOM     13  C   LIG    1       -4.165   7.424   6.584  0.00  0.00    +0.360 A 
ATOM     14  N   LIG    1       -3.292   6.794   5.761  0.00  0.00    -0.540 N 
ATOM     15  H   LIG    1       -2.540   6.249   6.043  0.00  0.00    +0.420 HD
BRANCH  12  16
ATOM     16  S   LIG    1       -6.425   9.043   6.440  0.00  0.00    +2.710 S 
ATOM     17  O   LIG    1       -6.765   9.957   5.407  0.00  0.00    -0.940 OA
ATOM     18  O   LIG    1       -6.064   9.452   7.752  0.00  0.00    -0.950 OA
BRANCH  16  19
ATOM     19  N   LIG    1       -7.720   8.024   6.607  0.00  0.00    -1.000 NA
ATOM     20  C   LIG    1       -8.646   7.840   5.489  0.00  0.00    +0.320 C 
ATOM     21  C   LIG    1       -8.564   6.385   4.998  0.00  0.00    +0.100 C 
ATOM     22  S   LIG    1       -8.956   5.278   6.385  0.00  0.00    -0.240 S 
ATOM     23  C   LIG    1       -7.771   5.813   7.655  0.00  0.00    +0.100 C 
ATOM     24  C   LIG    1       -7.930   7.322   7.874  0.00  0.00    +0.320 C 
ENDBRANCH  16  19
ENDBRANCH  12  16
ENDBRANCH   6  10
BRANCH   1  25
ATOM     25  C   LIG    1       -1.113   2.835   0.799  0.00  0.00    +0.040 C 
BRANCH  25  27
ATOM     26  C   LIG    1       -0.612   3.026  -1.641  0.00  0.00    +0.030 C 
ATOM     27  C   LIG    1       -1.491   3.546  -0.502  0.00  0.00    +0.040 C 
ENDBRANCH  25  27
ENDBRANCH   1  25
BRANCH   8  28
ATOM     28  C   LIG    1       -1.824   1.283   3.013  0.00  0.00    +0.280 C 
BRANCH  28  29
ATOM     29  C   LIG    1       -1.323   0.519   4.240  0.00  0.00    +0.210 C 
BRANCH  29  30
ATOM     30  O   LIG    1       -2.190   0.776   5.347  0.00  0.00    -0.400 OA
ATOM     31  C   LIG    1       -1.810   0.106   6.551  0.00  0.00    +0.230 C 
ENDBRANCH  29  30
ENDBRANCH  28  29
ENDBRANCH   8  28
TORSDOF 8
