REMARK  Name = ZINCrD000000C0Qg.0
REMARK                            x       y       z     vdW  Elec       q    Type
REMARK                         _______ _______ _______ _____ _____    ______ ____
ROOT
ATOM      1  O   LIG    1        5.793   2.581   1.083  0.00  0.00    -0.510 OA
ATOM      2  C   LIG    1        5.100   3.433   0.559  0.00  0.00    +0.600 C 
ATOM      3  N   LIG    1        5.674   4.503  -0.025  0.00  0.00    -0.650 N 
ATOM      4  H   LIG    1        5.127   5.148  -0.501  0.00  0.00    +0.420 HD
ENDROOT
BRANCH   3   5
ATOM      5  C   LIG    1        7.061   4.685   0.054  0.00  0.00    +0.150 A 
ATOM      6  C   LIG    1        7.907   3.584   0.035  0.00  0.00    +0.050 A 
ATOM      7  C   LIG    1        9.274   3.763   0.113  0.00  0.00    +0.010 A 
ATOM      8  C   LIG    1        9.803   5.043   0.211  0.00  0.00    +0.100 A 
ATOM      9  C   LIG    1        8.956   6.144   0.231  0.00  0.00    -0.050 A 
ATOM     10 BR   LIG    1        9.676   7.888   0.364  0.00  0.00    -0.030 Br
ATOM     11  C   LIG    1        7.589   5.966   0.147  0.00  0.00    +0.030 A 
BRANCH   8  12
ATOM     12  N   LIG    1       11.189   5.223   0.291  0.00  0.00    -0.490 N 
ATOM     13  C   LIG    1       11.862   4.693  -0.913  0.00  0.00    +0.180 C 
ATOM     14  C   LIG    1       13.222   4.155  -0.402  0.00  0.00    +0.040 C 
ATOM     15  C   LIG    1       12.827   3.565   0.977  0.00  0.00    -0.030 C 
ATOM     16  C   LIG    1       11.743   4.543   1.476  0.00  0.00    +0.200 C 
BRANCH  15  17
ATOM     17  C   LIG    1       14.025   3.554   1.929  0.00  0.00    +0.190 C 
BRANCH  17  18
ATOM     18  O   LIG    1       14.959   2.558   1.507  0.00  0.00    -0.570 OA
ATOM     19  H   LIG    1       15.746   2.495   2.066  0.00  0.00    +0.380 HD
ENDBRANCH  17  18
ENDBRANCH  15  17
ENDBRANCH   8  12
ENDBRANCH   3   5
BRANCH   2  20
ATOM     20  C   LIG    1        3.634   3.295   0.564  0.00  0.00    +0.010 A 
ATOM     21  C   LIG    1        3.007   2.243   1.135  0.00  0.00    -0.010 A 
ATOM     22  S   LIG    1        1.317   2.429   0.950  0.00  0.00    +0.200 S 
ATOM     23  C   LIG    1        1.560   3.942   0.085  0.00  0.00    +0.140 A 
ATOM     24  N   LIG    1        2.832   4.194   0.006  0.00  0.00    -0.420 NA
BRANCH  23  25
ATOM     25  C   LIG    1        0.485   4.797  -0.461  0.00  0.00    +0.050 A 
ATOM     26  C   LIG    1       -0.852   4.550  -0.388  0.00  0.00    +0.180 A 
ATOM     27  N   LIG    1       -1.478   5.590  -1.012  0.00  0.00    -0.560 N 
ATOM     28  H   LIG    1       -2.436   5.702  -1.121  0.00  0.00    +0.430 HD
ATOM     29  C   LIG    1       -0.515   6.437  -1.454  0.00  0.00    +0.420 A 
ATOM     30  N   LIG    1        0.652   5.962  -1.121  0.00  0.00    -0.450 NA
ENDBRANCH  23  25
ENDBRANCH   2  20
TORSDOF 6
