REMARK  Name = ZINCpk000000ouWV.0
REMARK                            x       y       z     vdW  Elec       q    Type
REMARK                         _______ _______ _______ _____ _____    ______ ____
ROOT
ATOM      1  N   LIG    1        1.202   2.974   0.023  0.00  0.00    -0.540 N 
ATOM      2  C   LIG    1        1.141   1.633  -0.001  0.00  0.00    +0.710 A 
ATOM      3  N   LIG    1       -0.025   0.966  -0.011  0.00  0.00    -0.660 N 
ATOM      4  H   LIG    1       -0.021  -0.004  -0.029  0.00  0.00    +0.440 HD
ATOM      5  C   LIG    1       -1.201   1.627  -0.002  0.00  0.00    +0.580 A 
ATOM      6  C   LIG    1       -1.181   3.096   0.029  0.00  0.00    -0.440 A 
ATOM      7  O   LIG    1       -2.255   1.020  -0.015  0.00  0.00    -0.510 OA
ATOM      8  O   LIG    1        2.178   0.999  -0.014  0.00  0.00    -0.520 OA
ATOM      9  C   LIG    1        0.070   3.736   0.038  0.00  0.00    +0.550 A 
ENDROOT
BRANCH   9  10
ATOM     10  N   LIG    1        0.151   5.094   0.062  0.00  0.00    -0.800 N 
ATOM     11  H   LIG    1       -0.580   5.618   0.427  0.00  0.00    +0.440 HD
ATOM     12  H   LIG    1        0.939   5.539  -0.287  0.00  0.00    +0.410 HD
ENDBRANCH   9  10
BRANCH   6  13
ATOM     13  C   LIG    1       -2.381   3.840   0.045  0.00  0.00    +0.440 C 
ATOM     14  O   LIG    1       -2.345   5.051  -0.042  0.00  0.00    -0.490 OA
BRANCH  13  15
ATOM     15  C   LIG    1       -3.705   3.131   0.168  0.00  0.00    +0.220 C 
BRANCH  15  16
ATOM     16  N   LIG    1       -4.792   4.120   0.160  0.00  0.00    -0.530 NA
ATOM     17  C   LIG    1       -4.878   4.797  -1.140  0.00  0.00    +0.180 C 
BRANCH  16  18
ATOM     18  C   LIG    1       -6.074   3.496   0.515  0.00  0.00    +0.230 C 
BRANCH  18  19
ATOM     19  C   LIG    1       -7.110   4.568   0.736  0.00  0.00    -0.060 A 
ATOM     20  C   LIG    1       -7.291   5.103   1.998  0.00  0.00    +0.040 A 
ATOM     21  C   LIG    1       -8.238   6.090   2.201  0.00  0.00    +0.020 A 
ATOM     22  C   LIG    1       -9.010   6.535   1.145  0.00  0.00    +0.020 A 
ATOM     23  C   LIG    1       -8.833   5.996  -0.117  0.00  0.00    -0.040 A 
ATOM     24 CL   LIG    1       -9.802   6.554  -1.444  0.00  0.00    -0.070 Cl
ATOM     25  C   LIG    1       -7.882   5.012  -0.321  0.00  0.00    +0.030 A 
ENDBRANCH  18  19
ENDBRANCH  16  18
ENDBRANCH  15  16
ENDBRANCH  13  15
ENDBRANCH   6  13
BRANCH   1  26
ATOM     26  C   LIG    1        2.511   3.632   0.032  0.00  0.00    +0.310 C 
BRANCH  26  28
ATOM     27  C   LIG    1        4.331   4.574  -1.397  0.00  0.00    +0.040 C 
ATOM     28  C   LIG    1        2.964   3.887  -1.407  0.00  0.00    +0.000 C 
ENDBRANCH  26  28
ENDBRANCH   1  26
TORSDOF 8
