REMARK  Name = ZINCrH000004st1e.0
REMARK                            x       y       z     vdW  Elec       q    Type
REMARK                         _______ _______ _______ _____ _____    ______ ____
ROOT
ATOM      1  C   LIG    1        3.044  -3.773  -0.260  0.00  0.00    +0.130 A 
ATOM      2  C   LIG    1        2.057  -4.738  -0.114  0.00  0.00    -0.050 A 
ATOM      3  C   LIG    1        2.401  -6.069   0.038  0.00  0.00    +0.050 A 
ATOM      4  C   LIG    1        3.728  -6.446   0.046  0.00  0.00    +0.010 A 
ATOM      5  C   LIG    1        4.728  -5.483  -0.100  0.00  0.00    -0.090 A 
ATOM      6  C   LIG    1        4.379  -4.141  -0.259  0.00  0.00    +0.050 A 
ENDROOT
BRANCH   5   7
ATOM      7  C   LIG    1        6.151  -5.883  -0.092  0.00  0.00    +0.580 C 
ATOM      8  N   LIG    1        6.534  -6.994   0.568  0.00  0.00    -0.600 N 
ATOM      9  C   LIG    1        5.636  -7.936   1.260  0.00  0.00    +0.260 C 
ATOM     10  C   LIG    1        6.523  -8.626   2.323  0.00  0.00    +0.040 C 
ATOM     11  C   LIG    1        7.873  -8.753   1.570  0.00  0.00    +0.050 C 
ATOM     12  C   LIG    1        7.919  -7.465   0.721  0.00  0.00    +0.320 C 
ATOM     13  O   LIG    1        6.975  -5.210  -0.679  0.00  0.00    -0.530 OA
BRANCH  12  14
ATOM     14  C   LIG    1        8.511  -7.763  -0.632  0.00  0.00    +0.320 A 
ATOM     15  N   LIG    1        7.800  -8.443  -1.508  0.00  0.00    -0.510 NA
ATOM     16  C   LIG    1        8.285  -8.719  -2.708  0.00  0.00    +0.320 A 
ATOM     17  C   LIG    1        9.563  -8.292  -3.033  0.00  0.00    -0.080 A 
ATOM     18  C   LIG    1       10.283  -7.584  -2.083  0.00  0.00    +0.320 A 
ATOM     19  N   LIG    1        9.730  -7.341  -0.905  0.00  0.00    -0.510 NA
ENDBRANCH  12  14
ENDBRANCH   5   7
BRANCH   1  20
ATOM     20  O   LIG    1        2.700  -2.467  -0.409  0.00  0.00    -0.310 OA
BRANCH  20  21
ATOM     21  C   LIG    1        1.304  -2.159  -0.407  0.00  0.00    +0.320 C 
BRANCH  21  25
ATOM     22  C   LIG    1       -1.363   2.003  -0.845  0.00  0.00    +0.180 C 
ATOM     23  C   LIG    1       -0.105   1.176  -0.774  0.00  0.00    +0.050 A 
ATOM     24  N   LIG    1       -0.071  -0.104  -0.619  0.00  0.00    -0.470 NA
ATOM     25  C   LIG    1        1.117  -0.674  -0.583  0.00  0.00    +0.060 A 
ATOM     26  C   LIG    1        2.142   0.173  -0.715  0.00  0.00    -0.050 A 
ATOM     27  S   LIG    1        1.483   1.798  -0.895  0.00  0.00    +0.130 S 
ENDBRANCH  21  25
ENDBRANCH  20  21
ENDBRANCH   1  20
TORSDOF 5
