REMARK  Name = ZINCpe00000MJLfm.0
REMARK                            x       y       z     vdW  Elec       q    Type
REMARK                         _______ _______ _______ _____ _____    ______ ____
ROOT
ATOM      1  C   LIG    1       -2.706   0.481   2.208  0.00  0.00    +0.570 C 
ATOM      2  N   LIG    1       -2.082   0.905   1.091  0.00  0.00    -0.590 N 
ATOM      3  C   LIG    1       -0.690   1.375   1.144  0.00  0.00    +0.270 C 
ATOM      4  C   LIG    1        0.132   0.597   0.112  0.00  0.00    +0.030 C 
ATOM      5  C   LIG    1       -0.525   0.731  -1.264  0.00  0.00    +0.000 C 
ATOM      6  C   LIG    1       -1.934   0.134  -1.219  0.00  0.00    +0.010 C 
ATOM      7  C   LIG    1       -2.779   0.906  -0.202  0.00  0.00    +0.280 C 
ATOM      8  O   LIG    1       -2.081   0.352   3.242  0.00  0.00    -0.540 OA
ENDROOT
BRANCH   1  13
ATOM      9  C   LIG    1       -6.117  -0.732   3.218  0.00  0.00    +0.250 A 
ATOM     10  C   LIG    1       -6.827  -0.379   2.071  0.00  0.00    -0.090 A 
ATOM     11  C   LIG    1       -6.161   0.236   1.027  0.00  0.00    +0.300 A 
ATOM     12  N   LIG    1       -4.873   0.495   1.104  0.00  0.00    -0.490 NA
ATOM     13  C   LIG    1       -4.155   0.172   2.174  0.00  0.00    +0.120 A 
ATOM     14  C   LIG    1       -4.752  -0.449   3.265  0.00  0.00    -0.040 A 
BRANCH   9  16
ATOM     15  C   LIG    1       -5.991  -1.715   5.485  0.00  0.00    +0.280 C 
ATOM     16  N   LIG    1       -6.755  -1.352   4.289  0.00  0.00    -0.620 N 
ATOM     17  C   LIG    1       -8.189  -1.642   4.219  0.00  0.00    +0.290 C 
ENDBRANCH   9  16
ENDBRANCH   1  13
BRANCH   5  18
ATOM     18  C   LIG    1        0.312  -0.017  -2.304  0.00  0.00    +0.180 C 
ATOM     19  O   LIG    1        0.254  -1.440  -2.068  0.00  0.00    -0.360 OA
ATOM     20  C   LIG    1        0.624  -2.049  -3.325  0.00  0.00    +0.200 C 
ATOM     21  C   LIG    1       -0.075  -1.190  -4.403  0.00  0.00    +0.020 C 
ATOM     22  C   LIG    1       -0.285   0.177  -3.715  0.00  0.00    -0.030 C 
BRANCH  22  23
ATOM     23  C   LIG    1        0.453   1.263  -4.456  0.00  0.00    +0.530 C 
ATOM     24  O   LIG    1        1.375   1.842  -3.923  0.00  0.00    -0.540 OA
ATOM     25  N   LIG    1        0.087   1.590  -5.712  0.00  0.00    -0.850 N 
ATOM     26  H   LIG    1        0.562   2.288  -6.188  0.00  0.00    +0.400 HD
ATOM     27  H   LIG    1       -0.651   1.127  -6.138  0.00  0.00    +0.400 HD
ENDBRANCH  22  23
ENDBRANCH   5  18
TORSDOF 4
