REMARK  Name = ZINCpk00000y6w0N.0
REMARK                            x       y       z     vdW  Elec       q    Type
REMARK                         _______ _______ _______ _____ _____    ______ ____
ROOT
ATOM      1  C   LIG    1        2.611  -2.409  -0.066  0.00  0.00    +0.180 C 
ATOM      2  C   LIG    1        1.817  -1.086  -0.023  0.00  0.00    +0.230 C 
ATOM      3  N   LIG    1        2.796   0.011  -0.025  0.00  0.00    -0.610 N 
ATOM      4  C   LIG    1        4.152  -0.566  -0.047  0.00  0.00    +0.300 C 
ATOM      5  C   LIG    1        2.501   1.326  -0.015  0.00  0.00    +0.610 C 
ATOM      6  O   LIG    1        3.396   2.150  -0.018  0.00  0.00    -0.510 OA
ATOM      7  C   LIG    1        3.977  -1.975  -0.661  0.00  0.00    +0.110 C 
ENDROOT
BRANCH   5   8
ATOM      8  C   LIG    1        1.097   1.766   0.001  0.00  0.00    -0.040 A 
ATOM      9  C   LIG    1        0.638   3.070   0.013  0.00  0.00    +0.040 A 
ATOM     10  C   LIG    1       -0.765   2.969   0.025  0.00  0.00    +0.070 A 
ATOM     11  N   LIG    1       -1.072   1.689   0.016  0.00  0.00    -0.250 NA
ATOM     12  N   LIG    1       -0.011   0.966   0.007  0.00  0.00    -0.380 N 
ATOM     13  H   LIG    1        0.002  -0.004   0.002  0.00  0.00    +0.440 HD
BRANCH  10  14
ATOM     14  C   LIG    1       -1.725   4.101   0.041  0.00  0.00    -0.010 A 
ATOM     15  C   LIG    1       -1.258   5.414   0.050  0.00  0.00    +0.030 A 
ATOM     16  C   LIG    1       -2.155   6.463   0.059  0.00  0.00    +0.010 A 
ATOM     17  C   LIG    1       -3.515   6.213   0.070  0.00  0.00    +0.010 A 
ATOM     18  C   LIG    1       -3.984   4.912   0.067  0.00  0.00    +0.010 A 
ATOM     19  C   LIG    1       -3.096   3.855   0.053  0.00  0.00    +0.040 A 
ENDBRANCH  10  14
ENDBRANCH   5   8
BRANCH   7  20
ATOM     20  C   LIG    1        5.079  -2.901  -0.216  0.00  0.00    +0.010 A 
ATOM     21  N   LIG    1        5.542  -3.947  -0.862  0.00  0.00    -0.260 NA
ATOM     22  N   LIG    1        6.481  -4.481  -0.164  0.00  0.00    -0.240 N 
ATOM     23  H   LIG    1        6.985  -5.267  -0.427  0.00  0.00    +0.470 HD
ATOM     24  N   LIG    1        6.657  -3.833   0.933  0.00  0.00    -0.280 NA
ATOM     25  C   LIG    1        5.812  -2.829   0.970  0.00  0.00    +0.180 A 
ENDBRANCH   7  20
BRANCH   1  27
ATOM     26  C   LIG    1        1.041  -4.211  -0.242  0.00  0.00    +0.220 C 
ATOM     27  O   LIG    1        1.967  -3.358  -0.918  0.00  0.00    -0.360 OA
ENDBRANCH   1  27
TORSDOF 4
