REMARK  Name = ZINCtV00000L6kJL.0
REMARK                            x       y       z     vdW  Elec       q    Type
REMARK                         _______ _______ _______ _____ _____    ______ ____
ROOT
ATOM      1  N   LIG    1        0.171   6.030   0.031  0.00  0.00    -0.490 N 
ATOM      2  C   LIG    1       -0.084   4.668   0.027  0.00  0.00    +0.190 A 
ATOM      3  C   LIG    1        1.140   3.984   0.012  0.00  0.00    -0.100 A 
ATOM      4  C   LIG    1        2.196   5.013   0.007  0.00  0.00    +0.110 A 
ATOM      5  N   LIG    1        3.514   4.951  -0.006  0.00  0.00    -0.380 NA
ATOM      6  C   LIG    1        4.230   6.079  -0.008  0.00  0.00    +0.060 A 
ATOM      7  C   LIG    1        5.636   6.041  -0.023  0.00  0.00    +0.070 A 
ATOM      8  C   LIG    1        6.342   7.204  -0.025  0.00  0.00    +0.030 A 
ATOM      9  C   LIG    1        5.692   8.438  -0.013  0.00  0.00    +0.060 A 
ATOM     10  C   LIG    1        4.334   8.514   0.001  0.00  0.00    +0.040 A 
ATOM     11  C   LIG    1        3.568   7.334   0.004  0.00  0.00    +0.130 A 
ATOM     12  N   LIG    1        2.232   7.385   0.017  0.00  0.00    -0.460 NA
ATOM     13  C   LIG    1        1.163   2.591   0.005  0.00  0.00    +0.140 A 
ATOM     14  C   LIG    1       -0.024   1.887   0.012  0.00  0.00    -0.130 A 
ATOM     15  C   LIG    1       -1.235   2.562   0.022  0.00  0.00    +0.110 A 
ATOM     16 BR   LIG    1        0.002  -0.004   0.002  0.00  0.00    -0.040 Br
ATOM     17  C   LIG    1       -1.270   3.940   0.034  0.00  0.00    +0.000 A 
ATOM     18  C   LIG    1        1.530   6.266   0.019  0.00  0.00    +0.330 A 
ENDROOT
BRANCH   1  19
ATOM     19  C   LIG    1       -0.857   7.073   0.046  0.00  0.00    +0.360 C 
BRANCH  19  23
ATOM     20  C   LIG    1       -1.818   8.068   4.090  0.00  0.00    +0.140 A 
ATOM     21  C   LIG    1       -0.807   8.750   3.428  0.00  0.00    -0.030 A 
ATOM     22  C   LIG    1       -0.498   8.426   2.121  0.00  0.00    +0.080 A 
ATOM     23  C   LIG    1       -1.196   7.424   1.472  0.00  0.00    -0.160 A 
ATOM     24  C   LIG    1       -2.208   6.747   2.128  0.00  0.00    +0.070 A 
ATOM     25  C   LIG    1       -2.516   7.063   3.437  0.00  0.00    -0.080 A 
BRANCH  20  26
ATOM     26  O   LIG    1       -2.124   8.385   5.375  0.00  0.00    -0.310 OA
BRANCH  26  27
ATOM     27  C   LIG    1       -3.176   7.642   5.994  0.00  0.00    +0.180 C 
BRANCH  27  29
ATOM     28  C   LIG    1       -4.501   7.341   8.090  0.00  0.00    +0.040 C 
ATOM     29  C   LIG    1       -3.375   8.137   7.428  0.00  0.00    +0.020 C 
ENDBRANCH  27  29
ENDBRANCH  26  27
ENDBRANCH  20  26
ENDBRANCH  19  23
ENDBRANCH   1  19
TORSDOF 5
