REMARK  Name = ZINCpk00000FaUqR.0
REMARK                            x       y       z     vdW  Elec       q    Type
REMARK                         _______ _______ _______ _____ _____    ______ ____
ROOT
ATOM      1  C   LIG    1        1.788   1.563  -1.510  0.00  0.00    +0.150 C 
ATOM      2  C   LIG    1        1.432   1.645  -0.003  0.00  0.00    +0.070 C 
ATOM      3  C   LIG    1       -0.013   1.086   0.008  0.00  0.00    +0.170 C 
ATOM      4  N   LIG    1       -0.625   1.599  -1.236  0.00  0.00    -0.460 N 
ATOM      5  C   LIG    1        0.449   1.891  -2.203  0.00  0.00    +0.210 C 
ENDROOT
BRANCH   4   6
ATOM      6  C   LIG    1       -1.529   0.687  -1.757  0.00  0.00    +0.350 A 
ATOM      7  C   LIG    1       -2.229   0.974  -2.931  0.00  0.00    -0.090 A 
ATOM      8  C   LIG    1       -3.115   0.031  -3.413  0.00  0.00    +0.200 A 
ATOM      9  N   LIG    1       -3.279  -1.103  -2.745  0.00  0.00    -0.530 NA
ATOM     10  C   LIG    1       -2.606  -1.342  -1.637  0.00  0.00    +0.530 A 
ATOM     11  C   LIG    1       -3.891   0.289  -4.678  0.00  0.00    +0.150 C 
ATOM     12  N   LIG    1       -1.748  -0.473  -1.145  0.00  0.00    -0.570 NA
ENDBRANCH   4   6
BRANCH   1  14
ATOM     13  C   LIG    1        3.636   2.140  -2.925  0.00  0.00    +0.210 C 
ATOM     14  O   LIG    1        2.782   2.533  -1.848  0.00  0.00    -0.370 OA
ENDBRANCH   1  14
BRANCH   3  15
ATOM     15  C   LIG    1       -0.774   1.601   1.231  0.00  0.00    +0.300 C 
BRANCH  15  16
ATOM     16  N   LIG    1       -2.177   1.190   1.142  0.00  0.00    -0.710 N 
ATOM     17  H   LIG    1       -2.483   0.671   0.381  0.00  0.00    +0.410 HD
ATOM     18  C   LIG    1       -3.043   1.533   2.116  0.00  0.00    +0.610 C 
ATOM     19  O   LIG    1       -2.660   2.184   3.069  0.00  0.00    -0.510 OA
BRANCH  18  20
ATOM     20  C   LIG    1       -4.449   1.122   2.026  0.00  0.00    -0.130 A 
ATOM     21  C   LIG    1       -5.435   1.393   2.927  0.00  0.00    +0.090 A 
ATOM     22  N   LIG    1       -6.562   0.838   2.468  0.00  0.00    -0.490 NA
ATOM     23  C   LIG    1       -6.311   0.244   1.332  0.00  0.00    +0.220 A 
ATOM     24  C   LIG    1       -7.318  -0.499   0.494  0.00  0.00    +0.240 C 
ATOM     25  C   LIG    1       -5.283   2.173   4.208  0.00  0.00    +0.180 C 
ATOM     26  O   LIG    1       -5.019   0.406   1.029  0.00  0.00    -0.190 OA
ENDBRANCH  18  20
ENDBRANCH  15  16
ENDBRANCH   3  15
TORSDOF 5
