REMARK  Name = ZINCpe000000V2O0.0
REMARK                            x       y       z     vdW  Elec       q    Type
REMARK                         _______ _______ _______ _____ _____    ______ ____
ROOT
ATOM      1  N   LIG    1        2.442   5.117   0.006  0.00  0.00    -0.460 N 
ATOM      2  C   LIG    1        1.781   5.663   1.206  0.00  0.00    +0.210 C 
ATOM      3  C   LIG    1        2.815   6.543   1.937  0.00  0.00    +0.020 C 
ATOM      4  C   LIG    1        3.823   6.904   0.815  0.00  0.00    +0.050 C 
ATOM      5  C   LIG    1        3.839   5.601  -0.022  0.00  0.00    +0.160 C 
ENDROOT
BRANCH   1   8
ATOM      6  C   LIG    1        1.180   1.675  -0.000  0.00  0.00    +0.450 A 
ATOM      7  C   LIG    1        1.173   3.067   0.002  0.00  0.00    -0.160 A 
ATOM      8  C   LIG    1        2.395   3.732  -0.001  0.00  0.00    +0.370 A 
ATOM      9  N   LIG    1        3.519   3.018  -0.015  0.00  0.00    -0.600 NA
ATOM     10  C   LIG    1        3.484   1.701  -0.022  0.00  0.00    +0.560 A 
ATOM     11  N   LIG    1        2.348   1.035  -0.015  0.00  0.00    -0.590 NA
BRANCH   6  13
ATOM     12  C   LIG    1       -1.290   1.681   0.017  0.00  0.00    +0.290 C 
ATOM     13  N   LIG    1       -0.011   0.966   0.007  0.00  0.00    -0.710 N 
ATOM     14  H   LIG    1        0.002  -0.004   0.002  0.00  0.00    +0.410 HD
ENDBRANCH   6  13
ENDBRANCH   1   8
BRANCH   5  15
ATOM     15  C   LIG    1        4.271   5.896  -1.460  0.00  0.00    +0.280 C 
BRANCH  15  16
ATOM     16  N   LIG    1        4.060   4.706  -2.288  0.00  0.00    -0.720 N 
ATOM     17  H   LIG    1        3.695   3.899  -1.893  0.00  0.00    +0.400 HD
ATOM     18  C   LIG    1        4.372   4.733  -3.599  0.00  0.00    +0.600 C 
ATOM     19  O   LIG    1        4.829   5.746  -4.095  0.00  0.00    -0.570 OA
BRANCH  18  20
ATOM     20  C   LIG    1        4.160   3.542  -4.427  0.00  0.00    -0.340 A 
ATOM     21  C   LIG    1        4.429   3.420  -5.794  0.00  0.00    +0.320 A 
ATOM     22  N   LIG    1        4.908   4.063  -6.903  0.00  0.00    -0.570 N 
ATOM     23  H   LIG    1        5.227   4.979  -6.940  0.00  0.00    +0.450 HD
ATOM     24  C   LIG    1        4.852   3.176  -7.959  0.00  0.00    +0.240 A 
ATOM     25  C   LIG    1        4.358   2.026  -7.508  0.00  0.00    +0.190 A 
ATOM     26  N   LIG    1        4.093   2.164  -6.156  0.00  0.00    -0.310 N 
ATOM     27  N   LIG    1        3.606   1.496  -5.026  0.00  0.00    -0.290 NA
ATOM     28  C   LIG    1        3.641   2.301  -3.999  0.00  0.00    +0.320 A 
ENDBRANCH  18  20
ENDBRANCH  15  16
ENDBRANCH   5  15
TORSDOF 5
