REMARK  Name = ZINCrH00000No4CY.0
REMARK                            x       y       z     vdW  Elec       q    Type
REMARK                         _______ _______ _______ _____ _____    ______ ____
ROOT
ATOM      1  N   LIG    1       -4.856   3.913   0.067  0.00  0.00    -0.580 N 
ATOM      2  H   LIG    1       -4.864   4.883   0.072  0.00  0.00    +0.380 HD
ATOM      3  C   LIG    1       -6.018   3.230   0.074  0.00  0.00    +0.580 C 
ATOM      4  O   LIG    1       -6.009   2.014   0.068  0.00  0.00    -0.490 OA
ENDROOT
BRANCH   3   5
ATOM      5  C   LIG    1       -7.302   3.958   0.090  0.00  0.00    -0.150 A 
ATOM      6  C   LIG    1       -7.311   5.359   0.103  0.00  0.00    +0.050 A 
ATOM      7  C   LIG    1       -8.491   6.044   0.113  0.00  0.00    +0.020 A 
ATOM      8  C   LIG    1       -9.698   5.354   0.120  0.00  0.00    +0.070 A 
ATOM      9  C   LIG    1       -9.708   3.947   0.112  0.00  0.00    +0.040 A 
ATOM     10  N   LIG    1      -11.011   3.561   0.122  0.00  0.00    -0.480 NA
ATOM     11  C   LIG    1      -11.777   4.612   0.136  0.00  0.00    +0.290 A 
ATOM     12  C   LIG    1      -13.284   4.582   0.149  0.00  0.00    +0.190 C 
ATOM     13  N   LIG    1      -11.020   5.743   0.135  0.00  0.00    -0.490 N 
ATOM     14  C   LIG    1       -8.501   3.251   0.097  0.00  0.00    +0.170 A 
BRANCH  13  15
ATOM     15  C   LIG    1      -11.519   7.120   0.148  0.00  0.00    +0.290 C 
ATOM     16  C   LIG    1      -11.679   7.591   1.595  0.00  0.00    +0.030 C 
ENDBRANCH  13  15
ENDBRANCH   3   5
BRANCH   1  18
ATOM     17  C   LIG    1       -2.518   3.879   0.045  0.00  0.00    +0.120 C 
ATOM     18  N   LIG    1       -3.638   3.221   0.052  0.00  0.00    -0.190 NA
BRANCH  17  19
ATOM     19  C   LIG    1       -1.237   3.152   0.030  0.00  0.00    -0.040 A 
ATOM     20  C   LIG    1       -0.030   3.856   0.023  0.00  0.00    +0.030 A 
ATOM     21  C   LIG    1        1.167   3.168   0.008  0.00  0.00    +0.090 A 
ATOM     22  C   LIG    1        1.176   1.782   0.000  0.00  0.00    +0.020 A 
ATOM     23  C   LIG    1       -0.013   1.076   0.008  0.00  0.00    +0.030 A 
ATOM     24  F   LIG    1        2.334   3.849   0.001  0.00  0.00    -0.140 F 
ATOM     25  C   LIG    1       -1.222   1.750   0.017  0.00  0.00    +0.140 A 
BRANCH  25  26
ATOM     26  O   LIG    1       -2.389   1.056   0.019  0.00  0.00    -0.470 OA
ATOM     27  H   LIG    1       -2.723   0.851   0.904  0.00  0.00    +0.400 HD
ENDBRANCH  25  26
ENDBRANCH  17  19
BRANCH  17  29
ATOM     28  C   LIG    1       -2.673   5.903  -1.379  0.00  0.00    +0.050 C 
ATOM     29  C   LIG    1       -2.530   5.386   0.054  0.00  0.00    +0.040 C 
ENDBRANCH  17  29
ENDBRANCH   1  18
TORSDOF 6
