REMARK  Name = ZINCah0000003ZF0.0
REMARK                            x       y       z     vdW  Elec       q    Type
REMARK                         _______ _______ _______ _____ _____    ______ ____
ROOT
ATOM      1  C   LIG    1        0.613  -2.097  -1.041  0.00  0.00    -0.130 C 
ATOM      2  C   LIG    1        1.498  -2.602   0.122  0.00  0.00    +0.090 C 
ATOM      3  C   LIG    1        2.124  -3.876  -0.397  0.00  0.00    -0.050 C 
ATOM      4  C   LIG    1        2.020  -3.955  -1.695  0.00  0.00    -0.030 C 
ATOM      5  C   LIG    1        1.308  -2.748  -2.259  0.00  0.00    +0.080 C 
ENDROOT
BRANCH   1   6
ATOM      6  C   LIG    1       -0.803  -2.591  -0.898  0.00  0.00    +0.470 C 
ATOM      7  O   LIG    1       -1.265  -3.347  -1.719  0.00  0.00    -0.450 OA
ENDBRANCH   1   6
BRANCH   1   8
ATOM      8  C   LIG    1        0.652  -0.570  -1.138  0.00  0.00    +0.200 C 
BRANCH   8  10
ATOM      9  C   LIG    1       -0.017   1.425   0.010  0.00  0.00    +0.200 C 
ATOM     10  O   LIG    1        0.002  -0.004   0.002  0.00  0.00    -0.390 OA
ENDBRANCH   8  10
ENDBRANCH   1   8
TORSDOF 3
