REMARK  Name = ZINCpk00001AZj46.0
REMARK                            x       y       z     vdW  Elec       q    Type
REMARK                         _______ _______ _______ _____ _____    ______ ____
ROOT
ATOM      1  C   LIG    1        0.218   0.914  -2.770  0.00  0.00    +0.070 C 
ATOM      2  C   LIG    1       -0.148   2.250  -2.122  0.00  0.00    +0.100 C 
ENDROOT
BRANCH   2   3
ATOM      3  C   LIG    1       -1.022   3.041  -3.061  0.00  0.00    +0.520 C 
ATOM      4  N   LIG    1       -0.468   3.732  -4.077  0.00  0.00    -0.620 N 
ATOM      5  C   LIG    1        0.975   3.644  -4.342  0.00  0.00    +0.280 C 
ATOM      6  C   LIG    1        1.560   5.055  -4.379  0.00  0.00    +0.020 C 
ATOM      7  C   LIG    1        0.784   5.901  -5.391  0.00  0.00    -0.010 C 
ATOM      8  C   LIG    1       -0.682   5.995  -4.963  0.00  0.00    +0.050 C 
ATOM      9  C   LIG    1       -1.293   4.591  -4.936  0.00  0.00    +0.280 C 
ATOM     10  O   LIG    1       -2.224   3.057  -2.902  0.00  0.00    -0.510 OA
BRANCH   7  11
ATOM     11  C   LIG    1        1.380   7.284  -5.452  0.00  0.00    +0.520 C 
ATOM     12  O   LIG    1        0.700   8.249  -5.178  0.00  0.00    -0.540 OA
ATOM     13  N   LIG    1        2.670   7.447  -5.809  0.00  0.00    -0.860 N 
ATOM     14  H   LIG    1        3.053   8.337  -5.847  0.00  0.00    +0.400 HD
ATOM     15  H   LIG    1        3.214   6.674  -6.027  0.00  0.00    +0.400 HD
ENDBRANCH   7  11
ENDBRANCH   2   3
BRANCH   2  16
ATOM     16  N   LIG    1       -0.873   2.004  -0.868  0.00  0.00    -0.450 NA
ATOM     17  C   LIG    1        0.024   1.445   0.160  0.00  0.00    +0.160 C 
ATOM     18  C   LIG    1       -0.662   2.363   1.181  0.00  0.00    +0.000 C 
ATOM     19  C   LIG    1       -0.950   3.231  -0.053  0.00  0.00    +0.170 C 
BRANCH  18  20
ATOM     20  C   LIG    1        0.295   3.004   2.189  0.00  0.00    +0.090 C 
BRANCH  20  21
ATOM     21  C   LIG    1       -0.497   3.780   3.210  0.00  0.00    -0.120 A 
ATOM     22  C   LIG    1       -0.753   3.229   4.451  0.00  0.00    +0.040 A 
ATOM     23  C   LIG    1       -1.480   3.941   5.388  0.00  0.00    +0.000 A 
ATOM     24  C   LIG    1       -1.951   5.204   5.084  0.00  0.00    +0.040 A 
ATOM     25  C   LIG    1       -1.696   5.757   3.843  0.00  0.00    -0.020 A 
ATOM     26  C   LIG    1       -0.964   5.048   2.907  0.00  0.00    +0.100 A 
ATOM     27  F   LIG    1       -0.709   5.591   1.696  0.00  0.00    -0.140 F 
ENDBRANCH  20  21
ENDBRANCH  18  20
ENDBRANCH   2  16
TORSDOF 5
