REMARK  Name = ZINCqH0000003c3p.0
REMARK                            x       y       z     vdW  Elec       q    Type
REMARK                         _______ _______ _______ _____ _____    ______ ____
ROOT
ATOM      1  C   LIG    1        2.722   7.735  -0.291  0.00  0.00    +0.000 A 
ATOM      2  N   LIG    1        1.481   7.369  -0.200  0.00  0.00    -0.260 NA
ATOM      3  N   LIG    1        1.267   6.013  -0.093  0.00  0.00    -0.330 NA
ATOM      4  C   LIG    1        2.333   5.275  -0.096  0.00  0.00    +0.300 A 
ATOM      5  S   LIG    1        3.752   6.309  -0.236  0.00  0.00    +0.100 S 
ENDROOT
BRANCH   4   6
ATOM      6  N   LIG    1        2.353   3.888   0.001  0.00  0.00    -0.620 N 
ATOM      7  H   LIG    1        3.199   3.420   0.076  0.00  0.00    +0.430 HD
BRANCH   6   8
ATOM      8  C   LIG    1        1.155   3.170  -0.010  0.00  0.00    +0.150 A 
ATOM      9  C   LIG    1        0.053   3.663  -0.697  0.00  0.00    +0.020 A 
ATOM     10  C   LIG    1       -1.129   2.950  -0.706  0.00  0.00    +0.040 A 
ATOM     11  C   LIG    1       -1.219   1.749  -0.027  0.00  0.00    -0.090 A 
ATOM     12  C   LIG    1       -0.122   1.252   0.653  0.00  0.00    +0.040 A 
ATOM     13  C   LIG    1        1.063   1.960   0.666  0.00  0.00    -0.010 A 
BRANCH  11  14
ATOM     14  C   LIG    1       -2.513   0.977  -0.033  0.00  0.00    +0.020 C 
ATOM     15  C   LIG    1       -3.017   0.813   1.402  0.00  0.00    +0.030 C 
ATOM     16  C   LIG    1       -2.281  -0.403  -0.653  0.00  0.00    +0.030 C 
ENDBRANCH  11  14
ENDBRANCH   6   8
ENDBRANCH   4   6
BRANCH   1  17
ATOM     17  S   LIG    1        3.288   9.398  -0.439  0.00  0.00    +0.100 S 
BRANCH  17  18
ATOM     18  C   LIG    1        1.747  10.355  -0.427  0.00  0.00    +0.010 C 
ATOM     19  C   LIG    1        0.926  10.016  -1.673  0.00  0.00    +0.100 C 
BRANCH  18  25
ATOM     20  N   LIG    1        0.589  14.911   0.581  0.00  0.00    -0.740 N 
ATOM     21  H   LIG    1       -0.256  14.600   0.940  0.00  0.00    +0.400 HD
ATOM     22  C   LIG    1        1.475  14.027   0.080  0.00  0.00    +0.690 C 
ATOM     23  N   LIG    1        1.185  12.711   0.077  0.00  0.00    -0.680 N 
ATOM     24  H   LIG    1        0.340  12.400   0.436  0.00  0.00    +0.410 HD
ATOM     25  C   LIG    1        2.071  11.827  -0.424  0.00  0.00    +0.540 C 
ATOM     26  O   LIG    1        3.128  12.216  -0.873  0.00  0.00    -0.450 OA
ATOM     27  O   LIG    1        2.535  14.417  -0.370  0.00  0.00    -0.520 OA
BRANCH  20  29
ATOM     28  C   LIG    1       -0.260  17.119   1.202  0.00  0.00    +0.030 C 
ATOM     29  C   LIG    1        0.904  16.342   0.584  0.00  0.00    +0.270 C 
ENDBRANCH  20  29
ENDBRANCH  18  25
ENDBRANCH  17  18
ENDBRANCH   1  17
TORSDOF 7
