REMARK  Name = ZINCrH000004resg.0
REMARK                            x       y       z     vdW  Elec       q    Type
REMARK                         _______ _______ _______ _____ _____    ______ ____
ROOT
ATOM      1  C   LIG    1       -1.330   1.944   0.019  0.00  0.00    +0.010 C 
ATOM      2  C   LIG    1       -1.646   2.404   1.444  0.00  0.00    +0.090 C 
ENDROOT
BRANCH   1   5
ATOM      3  N   LIG    1        1.143   1.898   0.001  0.00  0.00    -0.720 N 
ATOM      4  H   LIG    1        1.130   2.868   0.007  0.00  0.00    +0.410 HD
ATOM      5  C   LIG    1       -0.014   1.209   0.009  0.00  0.00    +0.540 C 
ATOM      6  O   LIG    1        0.002  -0.004   0.002  0.00  0.00    -0.520 OA
BRANCH   3   7
ATOM      7  C   LIG    1        2.422   1.183  -0.015  0.00  0.00    +0.320 C 
BRANCH   7  12
ATOM      8  C   LIG    1        6.764   4.997  -0.036  0.00  0.00    +0.090 C 
ATOM      9  C   LIG    1        5.631   4.002  -0.030  0.00  0.00    -0.070 A 
ATOM     10  C   LIG    1        5.123   3.540   1.169  0.00  0.00    +0.000 A 
ATOM     11  C   LIG    1        4.085   2.628   1.174  0.00  0.00    +0.030 A 
ATOM     12  C   LIG    1        3.554   2.178  -0.020  0.00  0.00    -0.120 A 
ATOM     13  C   LIG    1        4.066   2.636  -1.220  0.00  0.00    +0.030 A 
ATOM     14  C   LIG    1        5.100   3.553  -1.225  0.00  0.00    +0.000 A 
ENDBRANCH   7  12
ENDBRANCH   3   7
ENDBRANCH   1   5
BRANCH   1  15
ATOM     15  S   LIG    1       -2.642   0.843  -0.565  0.00  0.00    +0.070 S 
BRANCH  15  16
ATOM     16  C   LIG    1       -3.996   1.969  -0.596  0.00  0.00    +0.150 A 
ATOM     17  N   LIG    1       -3.963   3.239  -0.262  0.00  0.00    -0.290 NA
ATOM     18  N   LIG    1       -5.130   3.758  -0.407  0.00  0.00    -0.280 NA
ATOM     19  C   LIG    1       -5.971   2.858  -0.831  0.00  0.00    +0.190 A 
ATOM     20  C   LIG    1       -7.435   3.069  -1.118  0.00  0.00    +0.200 C 
ATOM     21  N   LIG    1       -5.279   1.686  -0.966  0.00  0.00    -0.460 N 
BRANCH  21  22
ATOM     22  C   LIG    1       -5.806   0.395  -1.415  0.00  0.00    +0.370 C 
BRANCH  22  23
ATOM     23  C   LIG    1       -6.299  -0.388  -0.225  0.00  0.00    -0.120 A 
ATOM     24  C   LIG    1       -5.441  -1.239   0.446  0.00  0.00    +0.040 A 
ATOM     25  C   LIG    1       -5.891  -1.953   1.540  0.00  0.00    +0.010 A 
ATOM     26  C   LIG    1       -7.203  -1.825   1.957  0.00  0.00    +0.030 A 
ATOM     27  C   LIG    1       -8.062  -0.978   1.283  0.00  0.00    +0.010 A 
ATOM     28  C   LIG    1       -7.610  -0.259   0.192  0.00  0.00    +0.020 A 
ENDBRANCH  22  23
ENDBRANCH  21  22
ENDBRANCH  15  16
ENDBRANCH   1  15
TORSDOF 7
