REMARK  Name = ZINCvU0000000Hje.0
REMARK                            x       y       z     vdW  Elec       q    Type
REMARK                         _______ _______ _______ _____ _____    ______ ____
ROOT
ATOM      1  C   LIG    1        1.507   3.327   0.174  0.00  0.00    +0.600 C 
ATOM      2  N   LIG    1        2.774   3.752  -0.005  0.00  0.00    -0.670 N 
ATOM      3  H   LIG    1        3.497   3.108  -0.063  0.00  0.00    +0.410 HD
ATOM      4  O   LIG    1        0.613   4.135   0.344  0.00  0.00    -0.500 OA
ENDROOT
BRANCH   1   7
ATOM      5  C   LIG    1       -1.268   2.141   0.551  0.00  0.00    +0.180 C 
ATOM      6  C   LIG    1       -0.017   1.330   0.332  0.00  0.00    +0.170 A 
ATOM      7  C   LIG    1        1.207   1.892   0.165  0.00  0.00    -0.310 A 
ATOM      8  S   LIG    1        2.369   0.588  -0.066  0.00  0.00    +0.160 S 
ATOM      9  C   LIG    1        1.118  -0.567   0.082  0.00  0.00    +0.090 A 
ATOM     10  N   LIG    1       -0.018   0.021   0.280  0.00  0.00    -0.470 NA
BRANCH   9  11
ATOM     11  C   LIG    1        1.310  -2.059  -0.006  0.00  0.00    +0.200 C 
BRANCH  11  12
ATOM     12  C   LIG    1        1.157  -2.502  -1.438  0.00  0.00    -0.090 A 
ATOM     13  C   LIG    1       -0.086  -2.872  -1.918  0.00  0.00    +0.030 A 
ATOM     14  C   LIG    1       -0.228  -3.273  -3.233  0.00  0.00    +0.000 A 
ATOM     15  C   LIG    1        0.875  -3.315  -4.066  0.00  0.00    +0.010 A 
ATOM     16  C   LIG    1        2.119  -2.950  -3.584  0.00  0.00    +0.000 A 
ATOM     17  C   LIG    1        2.259  -2.544  -2.271  0.00  0.00    +0.010 A 
ENDBRANCH  11  12
ENDBRANCH   9  11
ENDBRANCH   1   7
BRANCH   2  18
ATOM     18  C   LIG    1        3.045   5.119  -0.106  0.00  0.00    +0.160 A 
ATOM     19  C   LIG    1        2.121   5.967  -0.705  0.00  0.00    +0.020 A 
ATOM     20  C   LIG    1        2.385   7.317  -0.801  0.00  0.00    +0.050 A 
ATOM     21  C   LIG    1        3.583   7.830  -0.307  0.00  0.00    -0.030 A 
ATOM     22  C   LIG    1        4.511   6.976   0.289  0.00  0.00    +0.080 A 
ATOM     23  C   LIG    1        4.241   5.628   0.388  0.00  0.00    -0.010 A 
BRANCH  21  24
ATOM     24  C   LIG    1        3.871   9.281  -0.415  0.00  0.00    +0.120 A 
ATOM     25  C   LIG    1        3.057  10.216  -0.977  0.00  0.00    +0.110 A 
ATOM     26  N   LIG    1        3.695  11.420  -0.868  0.00  0.00    -0.400 N 
ATOM     27  C   LIG    1        3.353  12.684  -1.251  0.00  0.00    +0.290 A 
ATOM     28  C   LIG    1        4.214  13.703  -1.008  0.00  0.00    -0.040 A 
ATOM     29  C   LIG    1        5.433  13.434  -0.370  0.00  0.00    +0.360 A 
ATOM     30  N   LIG    1        5.739  12.209  -0.012  0.00  0.00    -0.440 NA
ATOM     31  C   LIG    1        4.897  11.192  -0.246  0.00  0.00    +0.380 A 
ATOM     32  N   LIG    1        4.984   9.897   0.018  0.00  0.00    -0.460 NA
ENDBRANCH  21  24
ENDBRANCH   2  18
TORSDOF 5
