REMARK  Name = ZINCpe000000Ybcx.0
REMARK                            x       y       z     vdW  Elec       q    Type
REMARK                         _______ _______ _______ _____ _____    ______ ____
ROOT
ATOM      1  N   LIG    1       -3.624   3.006  -0.576  0.00  0.00    -0.530 NA
ATOM      2  C   LIG    1       -3.459   1.558  -0.759  0.00  0.00    +0.190 C 
ATOM      3  C   LIG    1       -2.447   1.029   0.264  0.00  0.00    +0.300 C 
ATOM      4  N   LIG    1       -1.210   1.816   0.146  0.00  0.00    -0.610 N 
ATOM      5  C   LIG    1       -1.311   3.282   0.188  0.00  0.00    +0.280 C 
ATOM      6  C   LIG    1       -0.014   1.209   0.009  0.00  0.00    +0.530 C 
ATOM      7  O   LIG    1        0.044   0.002  -0.102  0.00  0.00    -0.500 OA
ATOM      8  C   LIG    1       -2.368   3.722  -0.837  0.00  0.00    +0.180 C 
ENDROOT
BRANCH   6   9
ATOM      9  C   LIG    1        1.249   2.029  -0.014  0.00  0.00    +0.140 C 
ATOM     10  C   LIG    1        1.398   2.712  -1.380  0.00  0.00    +0.250 C 
ATOM     11  O   LIG    1        2.613   3.471  -1.372  0.00  0.00    -0.300 OA
ATOM     12  C   LIG    1        3.719   2.849  -0.880  0.00  0.00    +0.040 A 
ATOM     13  C   LIG    1        4.974   3.366  -1.164  0.00  0.00    +0.030 A 
ATOM     14  C   LIG    1        6.106   2.748  -0.669  0.00  0.00    +0.030 A 
ATOM     15  C   LIG    1        5.992   1.612   0.110  0.00  0.00    +0.030 A 
ATOM     16  C   LIG    1        4.744   1.091   0.397  0.00  0.00    +0.030 A 
ATOM     17  C   LIG    1        3.604   1.706  -0.098  0.00  0.00    +0.050 A 
ATOM     18  O   LIG    1        2.382   1.177   0.187  0.00  0.00    -0.280 OA
ENDBRANCH   6   9
BRANCH   1  19
ATOM     19  C   LIG    1       -4.710   3.523  -1.419  0.00  0.00    +0.360 C 
BRANCH  19  24
ATOM     20  C   LIG    1       -4.747   8.520  -1.102  0.00  0.00    +0.200 C 
ATOM     21  C   LIG    1       -5.040   7.058  -0.886  0.00  0.00    +0.170 A 
ATOM     22  N   LIG    1       -5.895   6.561  -0.043  0.00  0.00    -0.380 NA
ATOM     23  O   LIG    1       -5.899   5.350  -0.114  0.00  0.00    +0.090 OA
ATOM     24  C   LIG    1       -5.014   4.947  -1.030  0.00  0.00    +0.190 A 
ATOM     25  N   LIG    1       -4.464   6.027  -1.530  0.00  0.00    -0.480 NA
ENDBRANCH  19  24
ENDBRANCH   1  19
TORSDOF 3
