REMARK  Name = ZINCrH000004stdO.0
REMARK                            x       y       z     vdW  Elec       q    Type
REMARK                         _______ _______ _______ _____ _____    ______ ____
ROOT
ATOM      1  C   LIG    1       -1.239   3.160   0.030  0.00  0.00    +0.190 A 
ATOM      2  C   LIG    1       -0.039   3.855   0.023  0.00  0.00    -0.080 A 
ATOM      3  C   LIG    1        1.158   3.167   0.007  0.00  0.00    +0.080 A 
ATOM      4  C   LIG    1        1.171   1.782   0.000  0.00  0.00    -0.030 A 
ATOM      5  C   LIG    1       -0.013   1.076   0.008  0.00  0.00    +0.080 A 
ATOM      6  C   LIG    1       -1.231   1.759   0.017  0.00  0.00    -0.170 A 
ENDROOT
BRANCH   6   7
ATOM      7  C   LIG    1       -2.502   1.009   0.019  0.00  0.00    +0.560 C 
ATOM      8  N   LIG    1       -2.489  -0.339   0.012  0.00  0.00    -0.730 N 
ATOM      9  H   LIG    1       -1.644  -0.816   0.005  0.00  0.00    +0.400 HD
ATOM     10  O   LIG    1       -3.560   1.607   0.028  0.00  0.00    -0.510 OA
BRANCH   8  11
ATOM     11  C   LIG    1       -3.751  -1.083   0.014  0.00  0.00    +0.290 C 
ATOM     12  C   LIG    1       -4.247  -1.242   1.453  0.00  0.00    +0.040 C 
BRANCH  11  13
ATOM     13  C   LIG    1       -3.532  -2.444  -0.595  0.00  0.00    -0.070 A 
ATOM     14  C   LIG    1       -2.375  -3.148  -0.315  0.00  0.00    +0.040 A 
ATOM     15  C   LIG    1       -2.175  -4.399  -0.868  0.00  0.00    +0.030 A 
ATOM     16  C   LIG    1       -3.127  -4.944  -1.711  0.00  0.00    +0.070 A 
ATOM     17  C   LIG    1       -4.285  -4.235  -1.996  0.00  0.00    +0.080 A 
ATOM     18  F   LIG    1       -5.217  -4.765  -2.819  0.00  0.00    -0.120 F 
ATOM     19  F   LIG    1       -2.930  -6.164  -2.256  0.00  0.00    -0.130 F 
ATOM     20  C   LIG    1       -4.486  -2.986  -1.437  0.00  0.00    +0.040 A 
ENDBRANCH  11  13
ENDBRANCH   8  11
ENDBRANCH   6   7
BRANCH   1  21
ATOM     21  O   LIG    1       -2.417   3.834   0.044  0.00  0.00    -0.270 OA
BRANCH  21  22
ATOM     22  C   LIG    1       -2.347   5.262   0.050  0.00  0.00    +0.340 C 
BRANCH  22  26
ATOM     23  C   LIG    1       -6.798   7.088  -1.337  0.00  0.00    +0.260 C 
ATOM     24  C   LIG    1       -5.618   6.604  -0.535  0.00  0.00    +0.180 A 
ATOM     25  N   LIG    1       -4.485   6.145  -1.010  0.00  0.00    -0.470 NA
ATOM     26  C   LIG    1       -3.741   5.833   0.066  0.00  0.00    +0.170 A 
ATOM     27  N   LIG    1       -4.443   6.119   1.121  0.00  0.00    -0.360 NA
ATOM     28  O   LIG    1       -5.525   6.563   0.798  0.00  0.00    +0.090 OA
ENDBRANCH  22  26
ENDBRANCH  21  22
ENDBRANCH   1  21
TORSDOF 6
