REMARK  Name = ZINCrD000000AAKH.0
REMARK                            x       y       z     vdW  Elec       q    Type
REMARK                         _______ _______ _______ _____ _____    ______ ____
ROOT
ATOM      1  C   LIG    1       -0.292   1.272  -4.870  0.00  0.00    +0.530 C 
ATOM      2  N   LIG    1       -0.768   1.597  -6.088  0.00  0.00    -0.610 N 
ATOM      3  C   LIG    1       -1.968   2.413  -6.351  0.00  0.00    +0.260 C 
ATOM      4  C   LIG    1       -2.432   1.994  -7.766  0.00  0.00    +0.060 C 
ATOM      5  C   LIG    1       -1.077   1.773  -8.489  0.00  0.00    +0.060 C 
ATOM      6  C   LIG    1       -0.181   1.193  -7.374  0.00  0.00    +0.320 C 
ATOM      7  O   LIG    1        0.705   0.587  -4.772  0.00  0.00    -0.520 OA
ENDROOT
BRANCH   6   8
ATOM      8  C   LIG    1        1.216   1.744  -7.496  0.00  0.00    +0.090 A 
ATOM      9  N   LIG    1        2.222   1.071  -7.909  0.00  0.00    -0.450 NA
ATOM     10  C   LIG    1        3.414   1.693  -7.967  0.00  0.00    +0.080 A 
ATOM     11  C   LIG    1        4.669   1.199  -8.378  0.00  0.00    +0.080 A 
ATOM     12  C   LIG    1        5.767   2.005  -8.361  0.00  0.00    +0.030 A 
ATOM     13  C   LIG    1        5.673   3.324  -7.941  0.00  0.00    +0.040 A 
ATOM     14  C   LIG    1        4.461   3.834  -7.534  0.00  0.00    +0.060 A 
ATOM     15  C   LIG    1        3.327   3.025  -7.544  0.00  0.00    -0.180 A 
ATOM     16  S   LIG    1        1.652   3.348  -7.107  0.00  0.00    +0.110 S 
ENDBRANCH   6   8
BRANCH   1  17
ATOM     17  C   LIG    1       -0.997   1.758  -3.630  0.00  0.00    +0.310 C 
BRANCH  17  20
ATOM     18  O   LIG    1       -1.736   2.268  -1.088  0.00  0.00    -0.530 OA
ATOM     19  C   LIG    1       -0.742   1.585  -1.213  0.00  0.00    +0.520 C 
ATOM     20  N   LIG    1       -0.288   1.272  -2.443  0.00  0.00    -0.720 N 
ATOM     21  H   LIG    1        0.507   0.726  -2.543  0.00  0.00    +0.410 HD
BRANCH  19  22
ATOM     22  C   LIG    1       -0.013   1.086   0.008  0.00  0.00    +0.120 C 
BRANCH  22  23
ATOM     23  C   LIG    1       -0.718   1.572   1.248  0.00  0.00    -0.070 A 
ATOM     24  C   LIG    1       -0.360   2.779   1.819  0.00  0.00    +0.010 A 
ATOM     25  C   LIG    1       -1.010   3.227   2.953  0.00  0.00    +0.000 A 
ATOM     26  C   LIG    1       -2.012   2.463   3.523  0.00  0.00    +0.000 A 
ATOM     27  C   LIG    1       -2.366   1.254   2.955  0.00  0.00    +0.000 A 
ATOM     28  C   LIG    1       -1.719   0.808   1.818  0.00  0.00    +0.010 A 
ENDBRANCH  22  23
ENDBRANCH  19  22
ENDBRANCH  17  20
ENDBRANCH   1  17
TORSDOF 5
