REMARK  Name = ZINCrg00000SjSti.0
REMARK                            x       y       z     vdW  Elec       q    Type
REMARK                         _______ _______ _______ _____ _____    ______ ____
ROOT
ATOM      1  N   LIG    1       -2.057   3.995  -0.360  0.00  0.00    -0.390 N 
ATOM      2  C   LIG    1       -0.973   3.378  -0.870  0.00  0.00    +0.300 A 
ATOM      3  N   LIG    1       -0.092   4.271  -1.242  0.00  0.00    -0.490 NA
ATOM      4  C   LIG    1       -0.556   5.498  -0.989  0.00  0.00    +0.320 A 
ATOM      5  N   LIG    1       -0.051   6.774  -1.178  0.00  0.00    -0.510 N 
ATOM      6  C   LIG    1        1.275   6.955  -1.776  0.00  0.00    +0.340 C 
ATOM      7  C   LIG    1       -0.775   7.848  -0.812  0.00  0.00    +0.710 A 
ATOM      8  O   LIG    1       -0.315   8.960  -0.985  0.00  0.00    -0.540 OA
ATOM      9  N   LIG    1       -1.994   7.722  -0.260  0.00  0.00    -0.550 N 
ATOM     10  C   LIG    1       -2.742   8.924   0.120  0.00  0.00    +0.340 C 
ATOM     11  C   LIG    1       -2.540   6.506  -0.051  0.00  0.00    +0.580 A 
ATOM     12  O   LIG    1       -3.646   6.405   0.450  0.00  0.00    -0.470 OA
ATOM     13  C   LIG    1       -1.815   5.353  -0.420  0.00  0.00    -0.150 A 
ENDROOT
BRANCH   1  14
ATOM     14  C   LIG    1       -3.264   3.347   0.161  0.00  0.00    +0.220 C 
ATOM     15  C   LIG    1       -3.489   3.780   1.611  0.00  0.00    +0.080 C 
BRANCH  14  17
ATOM     16  C   LIG    1       -4.838   2.932  -1.879  0.00  0.00    +0.070 C 
ATOM     17  C   LIG    1       -4.451   3.751  -0.674  0.00  0.00    +0.330 C 
ATOM     18  O   LIG    1       -5.093   4.729  -0.378  0.00  0.00    -0.390 OA
ENDBRANCH  14  17
ENDBRANCH   1  14
BRANCH   2  19
ATOM     19  C   LIG    1       -0.804   1.887  -0.998  0.00  0.00    +0.310 C 
BRANCH  19  20
ATOM     20  N   LIG    1       -0.147   1.363   0.207  0.00  0.00    -0.530 NA
ATOM     21  C   LIG    1        1.227   1.868   0.320  0.00  0.00    +0.180 C 
ATOM     22  C   LIG    1        1.829   1.422   1.654  0.00  0.00    -0.010 C 
ATOM     23  C   LIG    1        1.819  -0.108   1.727  0.00  0.00    +0.020 C 
ATOM     24  C   LIG    1        0.382  -0.610   1.560  0.00  0.00    -0.010 C 
ATOM     25  C   LIG    1       -0.481  -0.084   2.708  0.00  0.00    +0.030 C 
ATOM     26  C   LIG    1        3.268   1.929   1.762  0.00  0.00    +0.020 C 
ATOM     27  C   LIG    1       -0.177  -0.105   0.228  0.00  0.00    +0.180 C 
ENDBRANCH  19  20
ENDBRANCH   2  19
TORSDOF 4
