REMARK  Name = ZINCrH000004qfgr.0
REMARK                            x       y       z     vdW  Elec       q    Type
REMARK                         _______ _______ _______ _____ _____    ______ ____
ROOT
ATOM      1  C   LIG    1       -2.946   2.090  -0.016  0.00  0.00    +0.170 C 
ATOM      2  C   LIG    1       -1.960   2.085   1.125  0.00  0.00    +0.190 A 
ATOM      3  C   LIG    1       -2.275   2.074   2.439  0.00  0.00    -0.090 A 
ATOM      4  C   LIG    1       -1.017   2.078   3.187  0.00  0.00    +0.550 A 
ATOM      5  N   LIG    1       -0.020   2.086   2.278  0.00  0.00    -0.370 N 
ATOM      6  O   LIG    1       -0.893   2.075   4.398  0.00  0.00    -0.510 OA
ATOM      7  N   LIG    1       -0.596   2.087   1.002  0.00  0.00    -0.390 N 
ATOM      8  C   LIG    1        0.143   2.095  -0.263  0.00  0.00    +0.360 C 
ENDROOT
BRANCH   5   9
ATOM      9  C   LIG    1        1.349   2.091   2.560  0.00  0.00    +0.150 A 
ATOM     10  C   LIG    1        2.194   1.190   1.926  0.00  0.00    +0.000 A 
ATOM     11  C   LIG    1        3.547   1.202   2.203  0.00  0.00    +0.030 A 
ATOM     12  C   LIG    1        4.059   2.102   3.120  0.00  0.00    +0.010 A 
ATOM     13  C   LIG    1        3.219   2.997   3.758  0.00  0.00    +0.030 A 
ATOM     14  C   LIG    1        1.866   2.994   3.481  0.00  0.00    +0.030 A 
ENDBRANCH   5   9
BRANCH   3  15
ATOM     15  N   LIG    1       -3.573   2.067   2.988  0.00  0.00    -0.630 N 
ATOM     16  H   LIG    1       -4.193   2.782   2.776  0.00  0.00    +0.400 HD
ATOM     17  C   LIG    1       -3.952   1.066   3.807  0.00  0.00    +0.550 C 
ATOM     18  O   LIG    1       -3.211   0.122   3.997  0.00  0.00    -0.490 OA
BRANCH  17  19
ATOM     19  C   LIG    1       -5.270   1.117   4.474  0.00  0.00    -0.080 A 
ATOM     20  C   LIG    1       -6.124   2.200   4.258  0.00  0.00    +0.050 A 
ATOM     21  C   LIG    1       -7.353   2.241   4.884  0.00  0.00    +0.050 A 
ATOM     22  C   LIG    1       -7.740   1.212   5.724  0.00  0.00    +0.050 A 
ATOM     23  C   LIG    1       -6.898   0.136   5.943  0.00  0.00    +0.070 A 
ATOM     24  C   LIG    1       -5.669   0.080   5.319  0.00  0.00    -0.130 A 
BRANCH  24  25
ATOM     25  C   LIG    1       -4.756  -1.096   5.553  0.00  0.00    +0.510 C 
ATOM     26  F   LIG    1       -3.554  -0.649   6.113  0.00  0.00    -0.160 F 
ATOM     27  F   LIG    1       -4.496  -1.734   4.336  0.00  0.00    -0.170 F 
ATOM     28  F   LIG    1       -5.372  -1.997   6.430  0.00  0.00    -0.190 F 
ENDBRANCH  24  25
ENDBRANCH  17  19
ENDBRANCH   3  15
TORSDOF 4
