REMARK  Name = ZINCrH000004nqTl.1
REMARK                            x       y       z     vdW  Elec       q    Type
REMARK                         _______ _______ _______ _____ _____    ______ ____
ROOT
ATOM      1  N   LIG    1        4.058   0.485  -3.072  0.00  0.00    -0.730 N 
ATOM      2  H   LIG    1        4.344   0.048  -2.255  0.00  0.00    +0.410 HD
ATOM      3  C   LIG    1        4.934   0.667  -4.081  0.00  0.00    +0.700 C 
ATOM      4  N   LIG    1        6.205   0.239  -3.954  0.00  0.00    -0.740 N 
ATOM      5  H   LIG    1        6.491  -0.198  -3.137  0.00  0.00    +0.410 HD
ATOM      6  O   LIG    1        4.576   1.216  -5.105  0.00  0.00    -0.580 OA
ENDROOT
BRANCH   1   7
ATOM      7  C   LIG    1        2.676   0.950  -3.210  0.00  0.00    +0.300 C 
BRANCH   7   8
ATOM      8  C   LIG    1        1.898   0.624  -1.933  0.00  0.00    +0.210 C 
BRANCH   8  13
ATOM      9  C   LIG    1       -0.929   3.082  -2.423  0.00  0.00    +0.130 A 
ATOM     10  C   LIG    1       -2.035   2.277  -2.193  0.00  0.00    -0.070 A 
ATOM     11  C   LIG    1       -1.864   0.944  -1.875  0.00  0.00    +0.050 A 
ATOM     12  C   LIG    1       -0.592   0.410  -1.791  0.00  0.00    -0.020 A 
ATOM     13  C   LIG    1        0.513   1.209  -2.025  0.00  0.00    -0.080 A 
ATOM     14  C   LIG    1        0.347   2.543  -2.344  0.00  0.00    +0.000 A 
BRANCH   9  16
ATOM     15  C   LIG    1       -2.437   4.882  -2.795  0.00  0.00    +0.250 C 
ATOM     16  O   LIG    1       -1.095   4.395  -2.731  0.00  0.00    -0.320 OA
ENDBRANCH   9  16
ENDBRANCH   8  13
BRANCH   8  17
ATOM     17  N   LIG    1        2.596   1.198  -0.775  0.00  0.00    -0.530 NA
ATOM     18  C   LIG    1        1.926   0.830   0.479  0.00  0.00    +0.190 C 
ATOM     19  C   LIG    1        2.714   2.656  -0.901  0.00  0.00    +0.180 C 
ENDBRANCH   8  17
ENDBRANCH   7   8
ENDBRANCH   1   7
BRANCH   4  20
ATOM     20  C   LIG    1        7.157   0.436  -5.051  0.00  0.00    +0.270 C 
BRANCH  20  21
ATOM     21  C   LIG    1        8.264  -0.615  -4.960  0.00  0.00    -0.020 C 
ATOM     22  C   LIG    1        9.150  -0.560  -6.222  0.00  0.00    +0.040 C 
ATOM     23  C   LIG    1        9.499  -2.043  -6.505  0.00  0.00    +0.020 C 
ATOM     24  C   LIG    1        8.183  -2.779  -6.150  0.00  0.00    +0.010 C 
ATOM     25  C   LIG    1        7.650  -2.025  -4.914  0.00  0.00    +0.020 C 
ENDBRANCH  20  21
BRANCH  20  26
ATOM     26  C   LIG    1        7.771   1.834  -4.948  0.00  0.00    +0.430 C 
ATOM     27  F   LIG    1        6.751   2.791  -4.927  0.00  0.00    -0.170 F 
ATOM     28  F   LIG    1        8.601   2.061  -6.052  0.00  0.00    -0.180 F 
ATOM     29  F   LIG    1        8.523   1.928  -3.772  0.00  0.00    -0.180 F 
ENDBRANCH  20  26
ENDBRANCH   4  20
TORSDOF 8
