REMARK  Name = ZINCqH0000033meu.1
REMARK                            x       y       z     vdW  Elec       q    Type
REMARK                         _______ _______ _______ _____ _____    ______ ____
ROOT
ATOM      1  C   LIG    1        6.050   1.715   0.141  0.00  0.00    +0.060 A 
ATOM      2  C   LIG    1        7.230   0.993   0.224  0.00  0.00    +0.020 A 
ATOM      3  C   LIG    1        7.198  -0.390   0.208  0.00  0.00    +0.020 A 
ATOM      4  C   LIG    1        5.989  -1.056   0.116  0.00  0.00    -0.010 A 
ATOM      5  C   LIG    1        4.806  -0.343   0.040  0.00  0.00    +0.040 A 
ATOM      6 CL   LIG    1        5.957  -2.792   0.098  0.00  0.00    -0.060 Cl
ATOM      7  C   LIG    1        4.830   1.043   0.054  0.00  0.00    +0.190 A 
ENDROOT
BRANCH   1  11
ATOM      8  N   LIG    1        7.338   5.668   0.210  0.00  0.00    -0.540 NA
ATOM      9  C   LIG    1        6.639   5.148   1.393  0.00  0.00    +0.180 C 
ATOM     10  C   LIG    1        6.696   3.619   1.386  0.00  0.00    +0.190 C 
ATOM     11  N   LIG    1        6.081   3.114   0.150  0.00  0.00    -0.500 N 
ATOM     12  C   LIG    1        6.780   3.633  -1.033  0.00  0.00    +0.190 C 
ATOM     13  C   LIG    1        6.723   5.163  -1.026  0.00  0.00    +0.180 C 
BRANCH   8  15
ATOM     14  C   LIG    1        7.878   7.644  -1.132  0.00  0.00    +0.020 C 
ATOM     15  C   LIG    1        7.371   7.136   0.220  0.00  0.00    +0.160 C 
ENDBRANCH   8  15
ENDBRANCH   1  11
BRANCH   7  16
ATOM     16  N   LIG    1        3.633   1.767  -0.023  0.00  0.00    -0.650 N 
ATOM     17  H   LIG    1        3.587   2.667   0.336  0.00  0.00    +0.420 HD
ATOM     18  C   LIG    1        2.546   1.213  -0.596  0.00  0.00    +0.560 C 
ATOM     19  O   LIG    1        2.631   0.126  -1.135  0.00  0.00    -0.520 OA
BRANCH  18  20
ATOM     20  C   LIG    1        1.254   1.925  -0.569  0.00  0.00    -0.180 A 
ATOM     21  C   LIG    1        0.126   1.353  -1.163  0.00  0.00    +0.130 A 
ATOM     22  C   LIG    1       -1.076   2.023  -1.141  0.00  0.00    -0.080 A 
ATOM     23  C   LIG    1       -1.172   3.263  -0.520  0.00  0.00    +0.160 A 
ATOM     24  C   LIG    1       -0.052   3.836   0.071  0.00  0.00    -0.020 A 
ATOM     25  C   LIG    1        1.156   3.175   0.049  0.00  0.00    +0.090 A 
BRANCH  23  26
ATOM     26  O   LIG    1       -2.360   3.919  -0.496  0.00  0.00    -0.310 OA
ATOM     27  C   LIG    1       -3.470   3.272  -1.123  0.00  0.00    +0.240 C 
ENDBRANCH  23  26
ENDBRANCH  18  20
ENDBRANCH   7  16
TORSDOF 5
