REMARK  Name = ZINCqH0000007QE4.0
REMARK                            x       y       z     vdW  Elec       q    Type
REMARK                         _______ _______ _______ _____ _____    ______ ____
ROOT
ATOM      1  C   LIG    1       -3.553   7.930   3.128  0.00  0.00    +0.450 A 
ATOM      2  N   LIG    1       -3.371   8.594   4.260  0.00  0.00    -0.530 NA
ATOM      3  C   LIG    1       -2.670   8.089   5.256  0.00  0.00    +0.360 A 
ATOM      4  C   LIG    1       -2.096   6.834   5.166  0.00  0.00    -0.090 A 
ATOM      5  C   LIG    1       -2.257   6.092   4.010  0.00  0.00    +0.180 A 
ATOM      6  C   LIG    1       -3.005   6.645   2.963  0.00  0.00    -0.250 A 
ENDROOT
BRANCH   1   7
ATOM      7  N   LIG    1       -4.290   8.500   2.107  0.00  0.00    -0.620 N 
ATOM      8  H   LIG    1       -4.347   8.059   1.245  0.00  0.00    +0.440 HD
BRANCH   7  14
ATOM      9  C   LIG    1       -5.485  10.416   1.236  0.00  0.00    +0.090 A 
ATOM     10  C   LIG    1       -6.146  11.614   1.450  0.00  0.00    -0.060 A 
ATOM     11  C   LIG    1       -6.268  12.118   2.732  0.00  0.00    +0.010 A 
ATOM     12  C   LIG    1       -5.737  11.425   3.804  0.00  0.00    +0.000 A 
ATOM     13  C   LIG    1       -5.081  10.226   3.600  0.00  0.00    +0.070 A 
ATOM     14  C   LIG    1       -4.954   9.715   2.316  0.00  0.00    +0.130 A 
BRANCH   9  16
ATOM     15  C   LIG    1       -5.928  10.696  -1.084  0.00  0.00    +0.250 C 
ATOM     16  O   LIG    1       -5.360   9.923  -0.025  0.00  0.00    -0.320 OA
ENDBRANCH   9  16
ENDBRANCH   7  14
ENDBRANCH   1   7
BRANCH   6  17
ATOM     17  C   LIG    1       -3.208   5.899   1.710  0.00  0.00    +0.530 C 
ATOM     18  O   LIG    1       -3.918   6.358   0.837  0.00  0.00    -0.510 OA
BRANCH  17  19
ATOM     19  O   LIG    1       -2.607   4.706   1.531  0.00  0.00    -0.340 OA
BRANCH  19  20
ATOM     20  C   LIG    1       -2.853   4.026   0.272  0.00  0.00    +0.400 C 
BRANCH  20  21
ATOM     21  C   LIG    1       -2.104   2.719   0.252  0.00  0.00    +0.170 A 
ATOM     22  N   LIG    1       -2.567   1.573   0.663  0.00  0.00    -0.450 NA
ATOM     23  C   LIG    1       -1.616   0.637   0.494  0.00  0.00    -0.020 A 
ATOM     24  C   LIG    1       -0.544   1.239  -0.047  0.00  0.00    -0.030 A 
ATOM     25  C   LIG    1        0.761   0.581  -0.417  0.00  0.00    +0.200 C 
ATOM     26  C   LIG    1       -1.734  -0.824   0.842  0.00  0.00    +0.170 C 
ATOM     27  O   LIG    1       -0.854   2.542  -0.196  0.00  0.00    -0.190 OA
ENDBRANCH  20  21
ENDBRANCH  19  20
ENDBRANCH  17  19
ENDBRANCH   6  17
TORSDOF 7
