REMARK  Name = ZINCpe000000WBii.0
REMARK                            x       y       z     vdW  Elec       q    Type
REMARK                         _______ _______ _______ _____ _____    ______ ____
ROOT
ATOM      1  N   LIG    1        2.022  -0.175  -3.704  0.00  0.00    -0.480 N 
ATOM      2  C   LIG    1        0.647  -0.689  -3.645  0.00  0.00    +0.220 C 
ATOM      3  C   LIG    1       -0.059  -0.110  -2.417  0.00  0.00    +0.190 C 
ATOM      4  N   LIG    1        0.690  -0.478  -1.207  0.00  0.00    -0.520 NA
ATOM      5  C   LIG    1        2.065   0.036  -1.265  0.00  0.00    +0.190 C 
ATOM      6  C   LIG    1        2.771  -0.543  -2.494  0.00  0.00    +0.220 C 
ENDROOT
BRANCH   1  11
ATOM      7  C   LIG    1        4.625  -0.700  -6.232  0.00  0.00    +0.190 A 
ATOM      8  C   LIG    1        3.914  -1.524  -7.103  0.00  0.00    -0.150 A 
ATOM      9  C   LIG    1        2.611  -1.858  -6.801  0.00  0.00    +0.320 A 
ATOM     10  N   LIG    1        2.033  -1.409  -5.702  0.00  0.00    -0.540 NA
ATOM     11  C   LIG    1        2.673  -0.624  -4.848  0.00  0.00    +0.350 A 
ATOM     12  C   LIG    1        3.986  -0.240  -5.087  0.00  0.00    -0.080 A 
BRANCH   7  14
ATOM     13  C   LIG    1        6.485  -0.866  -7.701  0.00  0.00    +0.250 C 
ATOM     14  O   LIG    1        5.910  -0.351  -6.498  0.00  0.00    -0.310 OA
ENDBRANCH   7  14
ENDBRANCH   1  11
BRANCH   4  15
ATOM     15  C   LIG    1        0.002  -0.004   0.002  0.00  0.00    +0.180 C 
ATOM     16  C   LIG    1       -0.019   1.526   0.010  0.00  0.00    +0.020 C 
BRANCH  15  17
ATOM     17  C   LIG    1        0.731  -0.503   1.223  0.00  0.00    +0.520 C 
ATOM     18  N   LIG    1        0.278  -0.191   2.453  0.00  0.00    -0.720 N 
ATOM     19  H   LIG    1       -0.517   0.356   2.553  0.00  0.00    +0.400 HD
ATOM     20  O   LIG    1        1.725  -1.187   1.099  0.00  0.00    -0.520 OA
BRANCH  18  21
ATOM     21  C   LIG    1        0.986  -0.676   3.640  0.00  0.00    +0.260 C 
BRANCH  21  22
ATOM     22  C   LIG    1        0.270  -0.182   4.899  0.00  0.00    +0.160 C 
ATOM     23  C   LIG    1        1.076  -0.587   6.152  0.00  0.00    +0.020 C 
ATOM     24  C   LIG    1       -0.048  -0.984   7.151  0.00  0.00    +0.010 C 
ATOM     25  C   LIG    1       -1.097  -1.594   6.187  0.00  0.00    +0.200 C 
ATOM     26  O   LIG    1       -1.021  -0.796   4.995  0.00  0.00    -0.380 OA
ENDBRANCH  21  22
ENDBRANCH  18  21
ENDBRANCH  15  17
ENDBRANCH   4  15
TORSDOF 6
