REMARK  Name = ZINCvU0000000A2B.0
REMARK                            x       y       z     vdW  Elec       q    Type
REMARK                         _______ _______ _______ _____ _____    ______ ____
ROOT
ATOM      1  C   LIG    1       -4.961   3.285  -0.068  0.00  0.00    +0.580 C 
ATOM      2  N   LIG    1       -4.521   2.413   0.861  0.00  0.00    -0.510 N 
ATOM      3  O   LIG    1       -6.137   3.303  -0.376  0.00  0.00    -0.480 OA
ENDROOT
BRANCH   2   4
ATOM      4  C   LIG    1       -5.388   1.477   1.397  0.00  0.00    +0.320 A 
ATOM      5  N   LIG    1       -5.067   0.599   2.284  0.00  0.00    -0.510 NA
ATOM      6  C   LIG    1       -6.025  -0.245   2.713  0.00  0.00    +0.110 A 
ATOM      7  C   LIG    1       -5.928  -1.280   3.667  0.00  0.00    +0.060 A 
ATOM      8  C   LIG    1       -7.024  -2.047   3.974  0.00  0.00    +0.030 A 
ATOM      9  C   LIG    1       -8.242  -1.820   3.351  0.00  0.00    +0.020 A 
ATOM     10  C   LIG    1       -8.360  -0.816   2.416  0.00  0.00    +0.070 A 
ATOM     11  C   LIG    1       -7.259  -0.027   2.092  0.00  0.00    -0.220 A 
ATOM     12  S   LIG    1       -7.083   1.312   0.960  0.00  0.00    +0.170 S 
ENDBRANCH   2   4
BRANCH   1  19
ATOM     13  C   LIG    1       -4.632   3.236  -2.940  0.00  0.00    +0.130 C 
ATOM     14  C   LIG    1       -3.844   4.207  -2.099  0.00  0.00    +0.210 A 
ATOM     15  N   LIG    1       -3.007   5.040  -2.677  0.00  0.00    -0.480 NA
ATOM     16  C   LIG    1       -2.288   5.908  -1.976  0.00  0.00    +0.200 A 
ATOM     17  C   LIG    1       -2.400   5.974  -0.587  0.00  0.00    -0.020 A 
ATOM     18  C   LIG    1       -3.272   5.121   0.059  0.00  0.00    +0.100 A 
ATOM     19  C   LIG    1       -4.015   4.217  -0.712  0.00  0.00    -0.170 A 
BRANCH  16  20
ATOM     20  C   LIG    1       -1.354   6.820  -2.678  0.00  0.00    -0.060 A 
ATOM     21  C   LIG    1       -0.598   7.741  -1.954  0.00  0.00    +0.030 A 
ATOM     22  C   LIG    1        0.273   8.585  -2.613  0.00  0.00    +0.010 A 
ATOM     23  C   LIG    1        0.390   8.524  -3.990  0.00  0.00    +0.030 A 
ATOM     24  C   LIG    1       -0.362   7.617  -4.715  0.00  0.00    +0.000 A 
ATOM     25  C   LIG    1       -1.233   6.765  -4.066  0.00  0.00    +0.070 A 
ENDBRANCH  16  20
ENDBRANCH   1  19
BRANCH   2  26
ATOM     26  C   LIG    1       -3.126   2.457   1.304  0.00  0.00    +0.320 C 
BRANCH  26  27
ATOM     27  C   LIG    1       -2.305   1.443   0.503  0.00  0.00    +0.150 C 
ATOM     28  C   LIG    1       -0.830   1.432   0.996  0.00  0.00    +0.020 C 
ATOM     29  C   LIG    1       -0.107   0.904  -0.273  0.00  0.00    +0.010 C 
ATOM     30  C   LIG    1       -0.949   1.515  -1.414  0.00  0.00    +0.190 C 
ATOM     31  O   LIG    1       -2.238   1.835  -0.877  0.00  0.00    -0.370 OA
ENDBRANCH  26  27
ENDBRANCH   2  26
TORSDOF 5
