REMARK  Name = ZINCkj00000cxWje.0
REMARK                            x       y       z     vdW  Elec       q    Type
REMARK                         _______ _______ _______ _____ _____    ______ ____
ROOT
ATOM      1  C   LIG    1       -1.151   1.604   0.016  0.00  0.00    +0.420 C 
ATOM      2  N   LIG    1       -2.399   1.055   0.019  0.00  0.00    -0.590 N 
ATOM      3  H   LIG    1       -2.521   0.092   0.015  0.00  0.00    +0.440 HD
ATOM      4  C   LIG    1       -3.484   1.908   0.029  0.00  0.00    +0.130 A 
ATOM      5  C   LIG    1       -4.847   1.560   0.034  0.00  0.00    +0.060 A 
ATOM      6  C   LIG    1       -5.822   2.524   0.044  0.00  0.00    +0.120 A 
ATOM      7  C   LIG    1       -5.482   3.880   0.050  0.00  0.00    -0.100 A 
ATOM      8  C   LIG    1       -4.133   4.243   0.045  0.00  0.00    +0.190 A 
ATOM      9  C   LIG    1       -3.159   3.267   0.035  0.00  0.00    -0.180 A 
ATOM     10  S   LIG    1       -1.392   3.358   0.035  0.00  0.00    +0.290 S 
ENDROOT
BRANCH   7  11
ATOM     11  C   LIG    1       -6.535   4.915   0.060  0.00  0.00    +0.560 C 
ATOM     12  N   LIG    1       -7.833   4.554   0.065  0.00  0.00    -0.720 N 
ATOM     13  H   LIG    1       -8.076   3.615   0.061  0.00  0.00    +0.400 HD
ATOM     14  O   LIG    1       -6.230   6.092   0.065  0.00  0.00    -0.510 OA
BRANCH  12  15
ATOM     15  C   LIG    1       -8.878   5.581   0.076  0.00  0.00    +0.270 C 
BRANCH  15  16
ATOM     16  C   LIG    1      -10.253   4.910   0.079  0.00  0.00    +0.300 C 
BRANCH  16  17
ATOM     17  N   LIG    1      -11.298   5.936   0.089  0.00  0.00    -0.460 N 
ATOM     18  C   LIG    1      -11.883   6.511  -1.006  0.00  0.00    +0.120 A 
ATOM     19  C   LIG    1      -12.786   7.398  -0.546  0.00  0.00    +0.150 A 
ATOM     20  N   LIG    1      -12.753   7.366   0.794  0.00  0.00    -0.490 NA
ATOM     21  C   LIG    1      -11.868   6.488   1.182  0.00  0.00    +0.400 A 
ENDBRANCH  16  17
ENDBRANCH  15  16
ENDBRANCH  12  15
ENDBRANCH   7  11
BRANCH   1  22
ATOM     22  N   LIG    1       -0.011   0.966   0.007  0.00  0.00    -0.700 NA
ATOM     23  H   LIG    1        0.822   1.462   0.002  0.00  0.00    +0.460 HD
ATOM     24  H   LIG    1        0.002  -0.004   0.002  0.00  0.00    +0.440 HD
ENDBRANCH   1  22
TORSDOF 5
