REMARK  Name = ZINCpk00000FhQzZ.0
REMARK                            x       y       z     vdW  Elec       q    Type
REMARK                         _______ _______ _______ _____ _____    ______ ____
ROOT
ATOM      1  C   LIG    1        0.083  -4.173   2.589  0.00  0.00    +0.250 C 
ATOM      2  C   LIG    1        1.332  -4.663   1.853  0.00  0.00    +0.060 C 
ENDROOT
BRANCH   1   3
ATOM      3  C   LIG    1        0.063  -2.667   2.597  0.00  0.00    +0.520 C 
ATOM      4  N   LIG    1        0.043  -1.987   1.434  0.00  0.00    -0.730 N 
ATOM      5  H   LIG    1        0.041  -2.467   0.591  0.00  0.00    +0.400 HD
ATOM      6  O   LIG    1        0.065  -2.066   3.651  0.00  0.00    -0.520 OA
BRANCH   4   7
ATOM      7  C   LIG    1        0.023  -0.522   1.442  0.00  0.00    +0.260 C 
BRANCH   7   8
ATOM      8  C   LIG    1        0.002  -0.004   0.002  0.00  0.00    +0.070 C 
BRANCH   8   9
ATOM      9  C   LIG    1       -0.018   1.503   0.010  0.00  0.00    -0.100 A 
ATOM     10  C   LIG    1       -1.225   2.177   0.020  0.00  0.00    +0.050 A 
ATOM     11  C   LIG    1       -1.245   3.559   0.033  0.00  0.00    -0.010 A 
ATOM     12  C   LIG    1       -0.056   4.268   0.025  0.00  0.00    +0.100 A 
ATOM     13  C   LIG    1        1.152   3.591   0.010  0.00  0.00    -0.010 A 
ATOM     14  F   LIG    1       -0.074   5.619   0.032  0.00  0.00    -0.140 F 
ATOM     15  C   LIG    1        1.170   2.210   0.003  0.00  0.00    +0.050 A 
ENDBRANCH   8   9
ENDBRANCH   7   8
ENDBRANCH   4   7
ENDBRANCH   1   3
BRANCH   1  16
ATOM     16  N   LIG    1        0.103  -4.669   3.967  0.00  0.00    -1.100 NA
ATOM     17  H   LIG    1        0.585  -4.179   4.652  0.00  0.00    +0.430 HD
BRANCH  16  18
ATOM     18  S   LIG    1       -0.697  -6.066   4.356  0.00  0.00    +2.730 S 
ATOM     19  O   LIG    1       -1.999  -5.951   3.799  0.00  0.00    -0.940 OA
ATOM     20  O   LIG    1       -0.461  -6.292   5.739  0.00  0.00    -0.940 OA
BRANCH  18  27
ATOM     21  C   LIG    1       -1.275  -7.395   1.274  0.00  0.00    +0.180 C 
ATOM     22  C   LIG    1       -0.197  -7.882   2.207  0.00  0.00    +0.110 A 
ATOM     23  N   LIG    1        0.648  -8.847   1.985  0.00  0.00    -0.360 NA
ATOM     24  O   LIG    1        1.393  -9.012   2.924  0.00  0.00    +0.100 OA
ATOM     25  C   LIG    1        1.133  -8.148   3.915  0.00  0.00    +0.120 A 
ATOM     26  C   LIG    1        1.850  -8.050   5.237  0.00  0.00    +0.220 C 
ATOM     27  C   LIG    1        0.099  -7.380   3.495  0.00  0.00    -0.800 A 
ENDBRANCH  18  27
ENDBRANCH  16  18
ENDBRANCH   1  16
TORSDOF 7
