REMARK  Name = ZINCpe000000SYih.0
REMARK                            x       y       z     vdW  Elec       q    Type
REMARK                         _______ _______ _______ _____ _____    ______ ____
ROOT
ATOM      1  N   LIG    1        1.362   1.590  -0.006  0.00  0.00    -0.740 N 
ATOM      2  H   LIG    1        1.575   2.405  -0.488  0.00  0.00    +0.390 HD
ATOM      3  C   LIG    1        2.331   0.926   0.654  0.00  0.00    +0.710 C 
ATOM      4  N   LIG    1        3.612   1.335   0.562  0.00  0.00    -0.630 N 
ATOM      5  C   LIG    1        3.954   2.565  -0.165  0.00  0.00    +0.270 C 
ATOM      6  C   LIG    1        4.741   3.486   0.782  0.00  0.00    +0.300 C 
ATOM      7  N   LIG    1        5.822   2.707   1.402  0.00  0.00    -1.000 NA
ATOM      8  C   LIG    1        5.481   1.473   2.125  0.00  0.00    +0.290 C 
ATOM      9  C   LIG    1        4.693   0.555   1.182  0.00  0.00    +0.290 C 
ATOM     10  O   LIG    1        2.050  -0.043   1.333  0.00  0.00    -0.580 OA
ENDROOT
BRANCH   1  12
ATOM     11  C   LIG    1       -0.751   1.585  -1.237  0.00  0.00    +0.040 C 
ATOM     12  C   LIG    1       -0.012   1.083   0.005  0.00  0.00    +0.240 C 
ATOM     13  C   LIG    1       -0.730   1.581   1.261  0.00  0.00    +0.020 C 
ENDBRANCH   1  12
BRANCH   7  14
ATOM     14  S   LIG    1        7.396   3.209   1.288  0.00  0.00    +2.700 S 
ATOM     15  O   LIG    1        8.085   2.622   2.383  0.00  0.00    -0.950 OA
ATOM     16  O   LIG    1        7.354   4.610   1.057  0.00  0.00    -0.950 OA
BRANCH  14  17
ATOM     17  C   LIG    1        8.070   2.485  -0.170  0.00  0.00    -0.680 A 
ATOM     18  C   LIG    1        7.984   3.154  -1.376  0.00  0.00    +0.130 A 
ATOM     19  C   LIG    1        8.510   2.589  -2.522  0.00  0.00    +0.020 A 
ATOM     20  C   LIG    1        9.127   1.348  -2.465  0.00  0.00    +0.110 A 
ATOM     21  O   LIG    1        9.634   0.800  -3.603  0.00  0.00    -0.300 OA
ATOM     22  C   LIG    1       10.570  -0.271  -3.440  0.00  0.00    +0.230 C 
ATOM     23  C   LIG    1       10.004  -1.250  -2.402  0.00  0.00    +0.230 C 
ATOM     24  O   LIG    1        9.821  -0.541  -1.172  0.00  0.00    -0.300 OA
ATOM     25  C   LIG    1        9.216   0.676  -1.251  0.00  0.00    +0.030 A 
ATOM     26  C   LIG    1        8.689   1.250  -0.105  0.00  0.00    +0.140 A 
ENDBRANCH  14  17
ENDBRANCH   7  14
TORSDOF 3
