REMARK  Name = ZINCqH00000075Do.0
REMARK                            x       y       z     vdW  Elec       q    Type
REMARK                         _______ _______ _______ _____ _____    ______ ____
ROOT
ATOM      1  N   LIG    1        4.808   0.116  -0.044  0.00  0.00    -0.470 N 
ATOM      2  C   LIG    1        3.699  -0.658  -0.037  0.00  0.00    +0.560 A 
ATOM      3  C   LIG    1        2.397   0.022  -0.021  0.00  0.00    -0.200 A 
ATOM      4  C   LIG    1        1.197  -0.689  -0.013  0.00  0.00    +0.100 A 
ATOM      5  C   LIG    1        0.002  -0.004   0.002  0.00  0.00    -0.010 A 
ATOM      6  C   LIG    1       -0.017   1.385   0.010  0.00  0.00    +0.070 A 
ATOM      7  C   LIG    1        1.155   2.106   0.002  0.00  0.00    +0.030 A 
ATOM      8  C   LIG    1        2.381   1.435  -0.013  0.00  0.00    +0.170 A 
ATOM      9  N   LIG    1        3.551   2.106  -0.021  0.00  0.00    -0.530 NA
ATOM     10  O   LIG    1        3.776  -1.873  -0.044  0.00  0.00    -0.490 OA
ATOM     11  C   LIG    1        4.702   1.479  -0.036  0.00  0.00    +0.380 A 
ENDROOT
BRANCH   1  18
ATOM     12  C   LIG    1        6.693  -0.780  -1.274  0.00  0.00    +0.150 A 
ATOM     13  C   LIG    1        7.948  -1.367  -1.284  0.00  0.00    -0.060 A 
ATOM     14  C   LIG    1        8.580  -1.667  -0.092  0.00  0.00    +0.080 A 
ATOM     15  C   LIG    1        7.966  -1.378   1.113  0.00  0.00    -0.110 A 
ATOM     16  C   LIG    1        6.717  -0.788   1.131  0.00  0.00    +0.080 A 
ATOM     17  C   LIG    1        8.661  -1.708   2.409  0.00  0.00    +0.100 C 
ATOM     18  C   LIG    1        6.076  -0.483  -0.061  0.00  0.00    +0.060 A 
BRANCH  12  20
ATOM     19  C   LIG    1        6.759  -0.823  -3.651  0.00  0.00    +0.250 C 
ATOM     20  O   LIG    1        6.067  -0.490  -2.446  0.00  0.00    -0.310 OA
ENDBRANCH  12  20
ENDBRANCH   1  18
BRANCH  11  21
ATOM     21  S   LIG    1        6.180   2.438  -0.045  0.00  0.00    +0.050 S 
BRANCH  21  22
ATOM     22  C   LIG    1        5.475   4.104  -0.029  0.00  0.00    -0.010 C 
ATOM     23  C   LIG    1        4.727   4.329   1.287  0.00  0.00    +0.100 C 
BRANCH  22  24
ATOM     24  C   LIG    1        6.581   5.120  -0.159  0.00  0.00    +0.370 C 
ATOM     25  O   LIG    1        7.702   4.839   0.192  0.00  0.00    -0.440 OA
ATOM     26  C   LIG    1        6.288   6.485  -0.726  0.00  0.00    +0.100 C 
ENDBRANCH  22  24
ENDBRANCH  21  22
ENDBRANCH  11  21
TORSDOF 5
