REMARK  Name = ZINCpk00000ebIXr.0
REMARK                            x       y       z     vdW  Elec       q    Type
REMARK                         _______ _______ _______ _____ _____    ______ ____
ROOT
ATOM      1  O   LIG    1        0.958   7.164   0.018  0.00  0.00    -0.510 OA
ATOM      2  C   LIG    1        1.016   5.947   0.018  0.00  0.00    +0.550 A 
ATOM      3  N   LIG    1       -0.118   5.221   0.027  0.00  0.00    -0.620 N 
ATOM      4  H   LIG    1       -0.976   5.673   0.033  0.00  0.00    +0.430 HD
ATOM      5  C   LIG    1       -0.076   3.843   0.027  0.00  0.00    +0.200 A 
ATOM      6  C   LIG    1       -1.259   3.108   0.035  0.00  0.00    +0.040 A 
ATOM      7  C   LIG    1       -1.213   1.731   0.029  0.00  0.00    -0.120 A 
ATOM      8  C   LIG    1        0.005   1.063   0.026  0.00  0.00    +0.040 A 
ATOM      9  C   LIG    1        1.178   1.760   0.018  0.00  0.00    +0.110 A 
ATOM     10  C   LIG    1        1.158   3.163   0.018  0.00  0.00    -0.110 A 
ATOM     11  C   LIG    1        2.370   3.895   0.009  0.00  0.00    +0.180 A 
ATOM     12  C   LIG    1        2.321   5.277   0.010  0.00  0.00    -0.210 A 
ENDROOT
BRANCH  12  13
ATOM     13  C   LIG    1        3.563   6.067   0.001  0.00  0.00    +0.590 C 
ATOM     14  N   LIG    1        4.284   6.177  -1.133  0.00  0.00    -0.620 N 
ATOM     15  C   LIG    1        3.770   5.602  -2.378  0.00  0.00    +0.340 C 
ATOM     16  C   LIG    1        3.503   6.731  -3.385  0.00  0.00    -0.340 C 
ATOM     17  S   LIG    1        5.049   7.640  -3.673  0.00  0.00    +2.420 S 
ATOM     18  C   LIG    1        5.501   8.123  -1.981  0.00  0.00    -0.330 C 
ATOM     19  O   LIG    1        6.027   6.734  -4.164  0.00  0.00    -0.930 OA
ATOM     20  O   LIG    1        4.753   8.815  -4.417  0.00  0.00    -0.930 OA
ATOM     21  C   LIG    1        5.575   6.866  -1.108  0.00  0.00    +0.340 C 
ATOM     22  O   LIG    1        3.940   6.620   1.016  0.00  0.00    -0.500 OA
ENDBRANCH  12  13
BRANCH   7  23
ATOM     23  C   LIG    1       -2.496   0.942   0.032  0.00  0.00    +0.510 C 
ATOM     24  F   LIG    1       -3.242   1.260  -1.108  0.00  0.00    -0.170 F 
ATOM     25  F   LIG    1       -3.236   1.259   1.177  0.00  0.00    -0.170 F 
ATOM     26  F   LIG    1       -2.203  -0.426   0.031  0.00  0.00    -0.170 F 
ENDBRANCH   7  23
TORSDOF 2
