REMARK  Name = ZINCrD000000fzAG.0
REMARK                            x       y       z     vdW  Elec       q    Type
REMARK                         _______ _______ _______ _____ _____    ______ ____
ROOT
ATOM      1  C   LIG    1        2.377  -1.248   1.794  0.00  0.00    +0.190 C 
ATOM      2  C   LIG    1        0.881  -0.927   1.798  0.00  0.00    +0.080 C 
ATOM      3  C   LIG    1        1.552  -1.467   3.061  0.00  0.00    -0.130 C 
ATOM      4  C   LIG    1        1.763  -0.494   4.226  0.00  0.00    +0.060 C 
ATOM      5  C   LIG    1        0.531  -0.541   5.137  0.00  0.00    +0.300 C 
ATOM      6  N   LIG    1        0.246  -1.941   5.477  0.00  0.00    -0.600 N 
ATOM      7  C   LIG    1        0.020  -2.909   4.396  0.00  0.00    +0.270 C 
ATOM      8  C   LIG    1        0.193  -2.333   6.766  0.00  0.00    +0.560 C 
ATOM      9  O   LIG    1        0.490  -1.554   7.650  0.00  0.00    -0.510 OA
ATOM     10  C   LIG    1        1.242  -2.910   3.470  0.00  0.00    +0.050 C 
ENDROOT
BRANCH   8  11
ATOM     11  C   LIG    1       -0.228  -3.711   7.103  0.00  0.00    -0.120 A 
ATOM     12  C   LIG    1       -1.399  -4.257   6.568  0.00  0.00    +0.030 A 
ATOM     13  C   LIG    1       -1.754  -5.547   6.910  0.00  0.00    +0.260 A 
ATOM     14  N   LIG    1       -1.007  -6.262   7.727  0.00  0.00    -0.440 NA
ATOM     15  C   LIG    1        0.104  -5.790   8.255  0.00  0.00    +0.260 A 
ATOM     16  C   LIG    1        0.539  -4.508   7.963  0.00  0.00    +0.090 A 
ATOM     17  F   LIG    1        1.682  -4.031   8.504  0.00  0.00    -0.110 F 
ENDBRANCH   8  11
BRANCH   1  20
ATOM     18  C   LIG    1        4.024   2.105   0.969  0.00  0.00    +0.080 C 
ATOM     19  C   LIG    1        3.010   0.997   1.089  0.00  0.00    +0.520 C 
ATOM     20  N   LIG    1        3.312  -0.120   1.781  0.00  0.00    -0.580 N 
ATOM     21  O   LIG    1        1.923   1.109   0.563  0.00  0.00    -0.530 OA
BRANCH  20  22
ATOM     22  C   LIG    1        4.573  -0.205   2.521  0.00  0.00    +0.350 C 
BRANCH  22  23
ATOM     23  C   LIG    1        5.651  -0.742   1.615  0.00  0.00    -0.130 A 
ATOM     24  C   LIG    1        6.421   0.050   0.868  0.00  0.00    -0.040 A 
ATOM     25  S   LIG    1        7.557  -0.928  -0.052  0.00  0.00    +0.110 S 
ATOM     26  C   LIG    1        6.904  -2.402   0.651  0.00  0.00    -0.040 A 
ATOM     27  C   LIG    1        5.921  -2.095   1.500  0.00  0.00    +0.020 A 
ENDBRANCH  22  23
ENDBRANCH  20  22
ENDBRANCH   1  20
TORSDOF 4
