REMARK  Name = ZINCpe00000MJLWH.0
REMARK                            x       y       z     vdW  Elec       q    Type
REMARK                         _______ _______ _______ _____ _____    ______ ____
ROOT
ATOM      1  C   LIG    1       -3.100   1.687   0.323  0.00  0.00    +0.180 C 
ENDROOT
BRANCH   1   2
ATOM      2  C   LIG    1       -3.675   0.294   0.371  0.00  0.00    +0.520 C 
ATOM      3  N   LIG    1       -4.646  -0.065  -0.492  0.00  0.00    -0.600 N 
ATOM      4  C   LIG    1       -5.129   0.919  -1.464  0.00  0.00    +0.280 C 
ATOM      5  C   LIG    1       -6.653   0.922  -1.408  0.00  0.00    +0.040 C 
ATOM      6  C   LIG    1       -7.148  -0.475  -1.757  0.00  0.00    +0.050 C 
ATOM      7  C   LIG    1       -6.662  -1.525  -0.776  0.00  0.00    -0.020 C 
ATOM      8  C   LIG    1       -6.772  -2.899  -1.417  0.00  0.00    +0.530 C 
ATOM      9  N   LIG    1       -5.553  -3.316  -1.808  0.00  0.00    -0.730 N 
ATOM     10  H   LIG    1       -5.380  -4.160  -2.252  0.00  0.00    +0.410 HD
ATOM     11  C   LIG    1       -4.534  -2.320  -1.486  0.00  0.00    +0.260 C 
ATOM     12  O   LIG    1       -7.802  -3.524  -1.556  0.00  0.00    -0.520 OA
ATOM     13  C   LIG    1       -5.180  -1.405  -0.425  0.00  0.00    +0.250 C 
ATOM     14  O   LIG    1       -3.264  -0.503   1.187  0.00  0.00    -0.520 OA
ENDBRANCH   1   2
BRANCH   1  17
ATOM     15  C   LIG    1       -0.013   1.086   0.008  0.00  0.00    +0.170 C 
ATOM     16  C   LIG    1       -0.718   1.572   1.248  0.00  0.00    +0.000 A 
ATOM     17  C   LIG    1       -2.040   1.830   1.384  0.00  0.00    -0.000 A 
ATOM     18  N   LIG    1       -2.221   2.233   2.647  0.00  0.00    -0.250 NA
ATOM     19  N   LIG    1       -1.087   2.236   3.254  0.00  0.00    -0.070 NA
ATOM     20  N   LIG    1       -0.154   1.846   2.456  0.00  0.00    -0.240 N 
BRANCH  20  21
ATOM     21  C   LIG    1        1.206   1.726   2.776  0.00  0.00    +0.120 A 
ATOM     22  C   LIG    1        1.964   0.705   2.220  0.00  0.00    +0.030 A 
ATOM     23  C   LIG    1        3.304   0.593   2.533  0.00  0.00    +0.040 A 
ATOM     24  C   LIG    1        3.889   1.489   3.408  0.00  0.00    +0.020 A 
ATOM     25  C   LIG    1        3.135   2.504   3.968  0.00  0.00    +0.040 A 
ATOM     26  C   LIG    1        1.795   2.625   3.655  0.00  0.00    +0.040 A 
ENDBRANCH  20  21
ENDBRANCH   1  17
TORSDOF 3
