REMARK  Name = ZINCqH0000007uvS.0
REMARK                            x       y       z     vdW  Elec       q    Type
REMARK                         _______ _______ _______ _____ _____    ______ ____
ROOT
ATOM      1  C   LIG    1        2.446   4.362   0.002  0.00  0.00    +0.540 C 
ATOM      2  N   LIG    1        3.471   3.579  -0.699  0.00  0.00    -0.750 N 
ATOM      3  H   LIG    1        4.164   3.115  -0.203  0.00  0.00    +0.410 HD
ATOM      4  C   LIG    1        3.430   3.512  -2.083  0.00  0.00    +0.240 A 
ATOM      5  C   LIG    1        3.895   2.411  -2.780  0.00  0.00    -0.050 A 
ATOM      6  C   LIG    1        3.819   2.393  -4.160  0.00  0.00    +0.070 A 
ATOM      7  C   LIG    1        3.283   3.468  -4.850  0.00  0.00    -0.040 A 
ATOM      8  C   LIG    1        2.818   4.576  -4.171  0.00  0.00    +0.110 A 
ATOM      9  C   LIG    1        2.890   4.608  -2.781  0.00  0.00    -0.190 A 
ATOM     10  C   LIG    1        2.414   5.768  -2.005  0.00  0.00    +0.580 C 
ATOM     11  O   LIG    1        2.177   6.824  -2.561  0.00  0.00    -0.520 OA
ATOM     12  N   LIG    1        2.243   5.644  -0.673  0.00  0.00    -0.620 N 
ENDROOT
BRANCH   1  16
ATOM     13  C   LIG    1       -1.229   2.181   0.020  0.00  0.00    +0.130 A 
ATOM     14  C   LIG    1       -1.244   3.568   0.033  0.00  0.00    -0.080 A 
ATOM     15  C   LIG    1       -0.055   4.271   0.026  0.00  0.00    +0.060 A 
ATOM     16  C   LIG    1        1.150   3.593   0.010  0.00  0.00    -0.160 A 
ATOM     17  C   LIG    1        1.168   2.210   0.003  0.00  0.00    +0.080 A 
ATOM     18  C   LIG    1       -0.018   1.503   0.010  0.00  0.00    -0.120 A 
ATOM     19  C   LIG    1        0.002  -0.004   0.002  0.00  0.00    +0.110 C 
BRANCH  13  21
ATOM     20  C   LIG    1       -3.605   2.251   0.031  0.00  0.00    +0.250 C 
ATOM     21  O   LIG    1       -2.398   1.487   0.021  0.00  0.00    -0.310 OA
ENDBRANCH  13  21
ENDBRANCH   1  16
BRANCH  12  22
ATOM     22  C   LIG    1        1.849   6.816   0.113  0.00  0.00    +0.290 C 
BRANCH  22  23
ATOM     23  C   LIG    1        3.100   7.552   0.595  0.00  0.00    +0.140 C 
ATOM     24  C   LIG    1        2.698   8.718   1.523  0.00  0.00    +0.010 C 
ATOM     25  C   LIG    1        3.694   9.834   1.101  0.00  0.00    +0.000 C 
ATOM     26  C   LIG    1        3.839   9.542  -0.414  0.00  0.00    +0.190 C 
ATOM     27  O   LIG    1        3.797   8.110  -0.526  0.00  0.00    -0.360 OA
ENDBRANCH  22  23
ENDBRANCH  12  22
TORSDOF 4
