REMARK  Name = ZINCkj000005lod7.0
REMARK                            x       y       z     vdW  Elec       q    Type
REMARK                         _______ _______ _______ _____ _____    ______ ____
ROOT
ATOM      1  N   LIG    1       -0.686   1.554  -1.216  0.00  0.00    -0.380 N 
ATOM      2  C   LIG    1       -0.013   1.086   0.008  0.00  0.00    +0.250 C 
ATOM      3  C   LIG    1       -0.656   1.537   1.238  0.00  0.00    +0.050 C 
ATOM      4  C   LIG    1       -2.098   0.991   1.349  0.00  0.00    +0.040 C 
ATOM      5  C   LIG    1       -2.991   1.762   0.412  0.00  0.00    +0.020 C 
ATOM      6  C   LIG    1       -3.100   1.125  -0.987  0.00  0.00    +0.060 C 
ATOM      7  C   LIG    1       -1.747   0.621  -1.517  0.00  0.00    +0.240 C 
ATOM      8  H   LIG    1       -1.072   2.474  -1.064  0.00  0.00    +0.420 HD
ENDROOT
BRANCH   5   9
ATOM      9  C   LIG    1       -4.369   1.840   1.017  0.00  0.00    -0.050 A 
ATOM     10  C   LIG    1       -5.120   0.693   1.222  0.00  0.00    -0.040 A 
ATOM     11  C   LIG    1       -6.378   0.804   1.784  0.00  0.00    +0.270 A 
ATOM     12  N   LIG    1       -6.869   1.983   2.114  0.00  0.00    -0.480 NA
ATOM     13  C   LIG    1       -6.184   3.095   1.928  0.00  0.00    +0.270 A 
ATOM     14  C   LIG    1       -4.918   3.062   1.377  0.00  0.00    -0.030 A 
ENDBRANCH   5   9
BRANCH   1  15
ATOM     15  C   LIG    1        0.274   1.595  -2.328  0.00  0.00    +0.280 C 
BRANCH  15  16
ATOM     16  C   LIG    1        1.349   2.643  -2.035  0.00  0.00    +0.080 C 
BRANCH  16  17
ATOM     17  C   LIG    1        2.348   2.685  -3.193  0.00  0.00    -0.340 C 
BRANCH  17  18
ATOM     18  S   LIG    1        3.623   3.929  -2.847  0.00  0.00    +2.620 S 
ATOM     19  O   LIG    1        4.443   3.513  -1.763  0.00  0.00    -0.950 OA
ATOM     20  O   LIG    1        3.068   5.236  -2.887  0.00  0.00    -0.950 OA
BRANCH  18  21
ATOM     21  N   LIG    1        4.626   3.870  -4.163  0.00  0.00    -1.250 NA
ATOM     22  H   LIG    1        5.398   4.455  -4.211  0.00  0.00    +0.430 HD
ATOM     23  H   LIG    1        4.441   3.251  -4.887  0.00  0.00    +0.410 HD
ENDBRANCH  18  21
ENDBRANCH  17  18
ENDBRANCH  16  17
ENDBRANCH  15  16
ENDBRANCH   1  15
TORSDOF 6
