REMARK  Name = ZINCkj000005lod7.1
REMARK                            x       y       z     vdW  Elec       q    Type
REMARK                         _______ _______ _______ _____ _____    ______ ____
ROOT
ATOM      1  N   LIG    1        2.110   1.728  -1.200  0.00  0.00    -0.380 N 
ATOM      2  C   LIG    1        2.713   0.437  -0.963  0.00  0.00    +0.230 C 
ATOM      3  C   LIG    1        1.873  -0.694  -1.581  0.00  0.00    +0.060 C 
ATOM      4  C   LIG    1        0.359  -0.487  -1.379  0.00  0.00    +0.030 C 
ATOM      5  C   LIG    1        0.002  -0.004   0.002  0.00  0.00    +0.050 C 
ATOM      6  C   LIG    1       -0.019   1.544   0.011  0.00  0.00    +0.060 C 
ATOM      7  C   LIG    1        1.336   2.088   0.001  0.00  0.00    +0.260 C 
ATOM      8  H   LIG    1        1.498   1.678  -2.001  0.00  0.00    +0.420 HD
ENDROOT
BRANCH   5   9
ATOM      9  C   LIG    1       -1.358  -0.528   0.384  0.00  0.00    -0.050 A 
ATOM     10  C   LIG    1       -2.478  -0.210  -0.368  0.00  0.00    -0.040 A 
ATOM     11  C   LIG    1       -3.709  -0.713   0.010  0.00  0.00    +0.270 A 
ATOM     12  N   LIG    1       -3.825  -1.478   1.078  0.00  0.00    -0.480 NA
ATOM     13  C   LIG    1       -2.783  -1.796   1.820  0.00  0.00    +0.270 A 
ATOM     14  C   LIG    1       -1.520  -1.335   1.500  0.00  0.00    -0.030 A 
ENDBRANCH   5   9
BRANCH   1  15
ATOM     15  C   LIG    1        3.157   2.731  -1.436  0.00  0.00    +0.280 C 
BRANCH  15  16
ATOM     16  C   LIG    1        3.904   2.394  -2.728  0.00  0.00    +0.080 C 
BRANCH  16  17
ATOM     17  C   LIG    1        4.995   3.438  -2.974  0.00  0.00    -0.340 C 
BRANCH  17  18
ATOM     18  S   LIG    1        5.881   3.039  -4.506  0.00  0.00    +2.620 S 
ATOM     19  O   LIG    1        5.036   3.222  -5.633  0.00  0.00    -0.950 OA
ATOM     20  O   LIG    1        6.641   1.849  -4.346  0.00  0.00    -0.950 OA
BRANCH  18  21
ATOM     21  N   LIG    1        7.018   4.234  -4.649  0.00  0.00    -1.250 NA
ATOM     22  H   LIG    1        6.841   5.118  -4.292  0.00  0.00    +0.420 HD
ATOM     23  H   LIG    1        7.862   4.050  -5.091  0.00  0.00    +0.430 HD
ENDBRANCH  18  21
ENDBRANCH  17  18
ENDBRANCH  16  17
ENDBRANCH  15  16
ENDBRANCH   1  15
TORSDOF 6
