REMARK  Name = ZINCqH0000033EXq.0
REMARK                            x       y       z     vdW  Elec       q    Type
REMARK                         _______ _______ _______ _____ _____    ______ ____
ROOT
ATOM      1  C   LIG    1       -0.339   6.485  -1.966  0.00  0.00    +0.570 C 
ATOM      2  N   LIG    1        0.827   6.205  -1.351  0.00  0.00    -0.600 N 
ATOM      3  C   LIG    1        2.094   6.406  -2.058  0.00  0.00    +0.290 C 
ATOM      4  O   LIG    1       -1.393   6.242  -1.410  0.00  0.00    -0.520 OA
ENDROOT
BRANCH   1   8
ATOM      5  C   LIG    1       -0.331   8.215  -5.848  0.00  0.00    +0.100 A 
ATOM      6  C   LIG    1        0.564   7.199  -5.539  0.00  0.00    -0.030 A 
ATOM      7  C   LIG    1        0.564   6.635  -4.280  0.00  0.00    +0.040 A 
ATOM      8  C   LIG    1       -0.338   7.087  -3.313  0.00  0.00    -0.080 A 
ATOM      9  C   LIG    1       -1.241   8.106  -3.626  0.00  0.00    +0.010 A 
ATOM     10 CL   LIG    1        1.685   6.637  -6.739  0.00  0.00    -0.040 Cl
ATOM     11  C   LIG    1       -1.233   8.670  -4.887  0.00  0.00    +0.120 A 
BRANCH  11  12
ATOM     12  O   LIG    1       -2.108   9.665  -5.193  0.00  0.00    -0.300 OA
ATOM     13  C   LIG    1       -3.004  10.081  -4.160  0.00  0.00    +0.250 C 
ENDBRANCH  11  12
BRANCH   5  14
ATOM     14  O   LIG    1       -0.327   8.767  -7.089  0.00  0.00    -0.310 OA
BRANCH  14  16
ATOM     15  C   LIG    1       -1.037   8.918  -9.394  0.00  0.00    +0.070 C 
ATOM     16  C   LIG    1       -1.175   8.165  -8.069  0.00  0.00    +0.180 C 
ENDBRANCH  14  16
ENDBRANCH   5  14
ENDBRANCH   1   8
BRANCH   2  17
ATOM     17  C   LIG    1        0.827   5.699   0.024  0.00  0.00    +0.350 C 
BRANCH  17  18
ATOM     18  C   LIG    1        0.765   4.194   0.006  0.00  0.00    -0.110 A 
ATOM     19  C   LIG    1       -0.459   3.554   0.015  0.00  0.00    +0.070 A 
ATOM     20  C   LIG    1       -0.521   2.172  -0.006  0.00  0.00    +0.040 A 
ATOM     21  C   LIG    1        0.645   1.427  -0.029  0.00  0.00    +0.040 A 
ATOM     22  O   LIG    1        0.858   0.078  -0.050  0.00  0.00    -0.310 OA
ATOM     23  C   LIG    1        2.232  -0.101   0.339  0.00  0.00    +0.430 C 
ATOM     24  O   LIG    1        2.865   1.127  -0.066  0.00  0.00    -0.310 OA
ATOM     25  C   LIG    1        1.880   2.072  -0.038  0.00  0.00    +0.030 A 
ATOM     26  C   LIG    1        1.935   3.455  -0.021  0.00  0.00    +0.040 A 
ENDBRANCH  17  18
ENDBRANCH   2  17
TORSDOF 6
