REMARK  Name = ZINCrH000004r3Mn.0
REMARK                            x       y       z     vdW  Elec       q    Type
REMARK                         _______ _______ _______ _____ _____    ______ ____
ROOT
ATOM      1  C   LIG    1       -4.740  -0.778  -1.546  0.00  0.00    +0.570 C 
ATOM      2  N   LIG    1       -4.126  -0.491  -0.381  0.00  0.00    -0.600 N 
ATOM      3  C   LIG    1       -4.796  -0.745   0.901  0.00  0.00    +0.260 C 
ATOM      4  C   LIG    1       -4.788   0.546   1.726  0.00  0.00    +0.030 C 
ATOM      5  C   LIG    1       -3.350   1.053   1.858  0.00  0.00    +0.040 C 
ATOM      6  C   LIG    1       -2.787   1.364   0.469  0.00  0.00    +0.100 C 
ATOM      7  C   LIG    1       -2.773   0.082  -0.370  0.00  0.00    +0.300 C 
ATOM      8  O   LIG    1       -4.219  -0.470  -2.600  0.00  0.00    -0.520 OA
ENDROOT
BRANCH   6   9
ATOM      9  C   LIG    1       -1.383   1.893   0.603  0.00  0.00    +0.290 A 
ATOM     10  N   LIG    1       -1.062   3.154   0.647  0.00  0.00    -0.480 NA
ATOM     11  C   LIG    1        0.285   3.278   0.764  0.00  0.00    +0.050 A 
ATOM     12  C   LIG    1        1.147   4.374   0.848  0.00  0.00    +0.070 A 
ATOM     13  C   LIG    1        2.494   4.174   0.962  0.00  0.00    +0.000 A 
ATOM     14  C   LIG    1        3.018   2.889   0.996  0.00  0.00    +0.030 A 
ATOM     15  C   LIG    1        2.185   1.793   0.916  0.00  0.00    +0.010 A 
ATOM     16  C   LIG    1        0.815   1.977   0.799  0.00  0.00    +0.050 A 
ATOM     17  N   LIG    1       -0.265   1.123   0.699  0.00  0.00    -0.600 N 
ATOM     18  H   LIG    1       -0.233   0.154   0.694  0.00  0.00    +0.420 HD
ENDBRANCH   6   9
BRANCH   1  23
ATOM     19  C   LIG    1       -9.831  -3.461  -1.528  0.00  0.00    +0.140 C 
ATOM     20  C   LIG    1       -8.497  -2.759  -1.533  0.00  0.00    +0.010 A 
ATOM     21  C   LIG    1       -7.569  -3.037  -0.546  0.00  0.00    +0.030 A 
ATOM     22  C   LIG    1       -6.346  -2.397  -0.544  0.00  0.00    +0.120 A 
ATOM     23  C   LIG    1       -6.048  -1.468  -1.542  0.00  0.00    -0.140 A 
ATOM     24  C   LIG    1       -6.991  -1.188  -2.532  0.00  0.00    +0.170 A 
ATOM     25  C   LIG    1       -8.207  -1.839  -2.525  0.00  0.00    -0.050 A 
BRANCH  25  26
ATOM     26  N   LIG    1       -9.207  -1.547  -3.577  0.00  0.00    +0.030 N 
ATOM     27  O   LIG    1      -10.278  -2.126  -3.576  0.00  0.00    -0.150 OA
ATOM     28  O   LIG    1       -8.957  -0.729  -4.444  0.00  0.00    -0.160 OA
ENDBRANCH  25  26
ENDBRANCH   1  23
TORSDOF 3
