REMARK  Name = ZINCnE000001JGPh.0
REMARK                            x       y       z     vdW  Elec       q    Type
REMARK                         _______ _______ _______ _____ _____    ______ ____
ROOT
ATOM      1  S   LIG    1        4.112  -1.368  -0.044  0.00  0.00    +2.590 S 
ATOM      2  O   LIG    1        3.705  -1.912  -1.292  0.00  0.00    -1.020 OA
ATOM      3  O   LIG    1        3.730  -1.924   1.207  0.00  0.00    -1.020 OA
ENDROOT
BRANCH   1   4
ATOM      4  C   LIG    1        5.873  -1.345  -0.061  0.00  0.00    -0.610 A 
ATOM      5  C   LIG    1        6.555  -1.342   1.117  0.00  0.00    +0.150 A 
ATOM      6  C   LIG    1        7.960  -1.323   1.107  0.00  0.00    -0.080 A 
ATOM      7  C   LIG    1        8.698  -1.320   2.303  0.00  0.00    +0.040 A 
ATOM      8  C   LIG    1       10.059  -1.302   2.255  0.00  0.00    -0.010 A 
ATOM      9  C   LIG    1       10.733  -1.287   1.035  0.00  0.00    +0.010 A 
ATOM     10  C   LIG    1       10.051  -1.289  -0.143  0.00  0.00    +0.010 A 
ATOM     11  C   LIG    1        8.646  -1.308  -0.133  0.00  0.00    -0.020 A 
ATOM     12  C   LIG    1        7.908  -1.312  -1.329  0.00  0.00    +0.000 A 
ATOM     13  C   LIG    1        6.548  -1.335  -1.280  0.00  0.00    +0.110 A 
ENDBRANCH   1   4
BRANCH   1  14
ATOM     14  N   LIG    1        3.601   0.207  -0.031  0.00  0.00    -1.010 NA
BRANCH  14  16
ATOM     15  C   LIG    1        1.735   1.777  -0.005  0.00  0.00    -0.370 A 
ATOM     16  C   LIG    1        2.240   0.497  -0.017  0.00  0.00    +0.340 A 
ATOM     17  C   LIG    1        1.253  -0.471  -0.012  0.00  0.00    -0.100 A 
ATOM     18  C   LIG    1        0.002  -0.004   0.002  0.00  0.00    -0.020 A 
ATOM     19  S   LIG    1       -0.021   1.701   0.011  0.00  0.00    +0.130 S 
BRANCH  15  20
ATOM     20  C   LIG    1        2.505   2.962  -0.006  0.00  0.00    +0.540 C 
ATOM     21  O   LIG    1        3.720   2.898  -0.018  0.00  0.00    -0.500 OA
BRANCH  20  23
ATOM     22  C   LIG    1        2.732   5.321   0.005  0.00  0.00    +0.230 C 
ATOM     23  O   LIG    1        1.892   4.165   0.007  0.00  0.00    -0.380 OA
ENDBRANCH  20  23
ENDBRANCH  15  20
ENDBRANCH  14  16
ENDBRANCH   1  14
TORSDOF 5
