REMARK  Name = ZINCtj00000q9j23.0
REMARK                            x       y       z     vdW  Elec       q    Type
REMARK                         _______ _______ _______ _____ _____    ______ ____
ROOT
ATOM      1  C   LIG    1       -2.965   0.481   1.313  0.00  0.00    +0.530 C 
ATOM      2  N   LIG    1       -1.995  -0.020   0.522  0.00  0.00    -0.600 N 
ATOM      3  C   LIG    1       -2.154  -1.028  -0.548  0.00  0.00    +0.260 C 
ATOM      4  C   LIG    1       -0.713  -1.272  -1.094  0.00  0.00    +0.280 C 
ATOM      5  C   LIG    1        0.107  -1.063   0.230  0.00  0.00    +0.060 C 
ATOM      6  N   LIG    1       -0.387  -0.017  -1.833  0.00  0.00    -0.630 N 
ATOM      7  C   LIG    1       -0.207   0.117  -3.162  0.00  0.00    +0.530 C 
ATOM      8  O   LIG    1       -0.307  -0.850  -3.888  0.00  0.00    -0.500 OA
ATOM      9  C   LIG    1       -0.301   1.051  -0.812  0.00  0.00    +0.260 C 
ATOM     10  C   LIG    1       -0.542   0.331   0.551  0.00  0.00    +0.280 C 
ATOM     11  O   LIG    1       -2.680   1.240   2.216  0.00  0.00    -0.520 OA
ENDROOT
BRANCH   7  12
ATOM     12  C   LIG    1        0.119   1.467  -3.746  0.00  0.00    +0.290 C 
ATOM     13  C   LIG    1        1.428   1.964  -3.191  0.00  0.00    -0.030 C 
ATOM     14  C   LIG    1        2.287   2.139  -4.156  0.00  0.00    +0.040 C 
ATOM     15  C   LIG    1        1.661   1.782  -5.478  0.00  0.00    +0.300 C 
ATOM     16  N   LIG    1        0.277   1.357  -5.204  0.00  0.00    -0.590 N 
ATOM     17  C   LIG    1       -0.648   0.951  -6.096  0.00  0.00    +0.690 C 
ATOM     18  O   LIG    1       -1.756   0.627  -5.718  0.00  0.00    -0.550 OA
BRANCH  17  19
ATOM     19  O   LIG    1       -0.344   0.906  -7.407  0.00  0.00    -0.360 OA
BRANCH  19  20
ATOM     20  C   LIG    1       -1.389   0.459  -8.311  0.00  0.00    +0.140 C 
ATOM     21  C   LIG    1       -1.812  -0.963  -7.937  0.00  0.00    +0.040 C 
ATOM     22  C   LIG    1       -0.861   0.474  -9.747  0.00  0.00    +0.080 C 
ATOM     23  C   LIG    1       -2.593   1.396  -8.200  0.00  0.00    +0.030 C 
ENDBRANCH  19  20
ENDBRANCH  17  19
ENDBRANCH   7  12
BRANCH   1  24
ATOM     24  C   LIG    1       -4.403   0.098   1.077  0.00  0.00    +0.170 C 
BRANCH  24  25
ATOM     25  N   LIG    1       -5.171   0.293   2.314  0.00  0.00    -0.380 N 
ATOM     26  C   LIG    1       -4.696  -0.645   3.339  0.00  0.00    +0.330 C 
ATOM     27  C   LIG    1       -6.596   0.050   2.049  0.00  0.00    +0.340 C 
ATOM     28  H   LIG    1       -5.047   1.240   2.641  0.00  0.00    +0.430 HD
ENDBRANCH  24  25
BRANCH  24  30
ATOM     29  C   LIG    1       -4.950   2.442   0.405  0.00  0.00    +0.030 C 
ATOM     30  C   LIG    1       -4.989   0.976  -0.031  0.00  0.00    +0.080 C 
ENDBRANCH  24  30
ENDBRANCH   1  24
TORSDOF 6
