REMARK  Name = ZINCpk000004APeU.0
REMARK                            x       y       z     vdW  Elec       q    Type
REMARK                         _______ _______ _______ _____ _____    ______ ____
ROOT
ATOM      1  C   LIG    1       -0.026   4.129  -0.264  0.00  0.00    +0.550 C 
ATOM      2  N   LIG    1        1.166   3.502  -0.205  0.00  0.00    -0.550 N 
ATOM      3  C   LIG    1        2.414   4.276  -0.169  0.00  0.00    +0.280 C 
ATOM      4  C   LIG    1        3.398   3.626  -1.150  0.00  0.00    +0.020 C 
ATOM      5  C   LIG    1        3.710   2.209  -0.669  0.00  0.00    +0.090 C 
ATOM      6  C   LIG    1        2.436   1.450  -0.404  0.00  0.00    -0.120 A 
ATOM      7  C   LIG    1        2.476   0.071  -0.382  0.00  0.00    +0.110 A 
ATOM      8  C   LIG    1        1.314  -0.661  -0.130  0.00  0.00    -0.160 A 
ATOM      9  C   LIG    1        0.108   0.005   0.101  0.00  0.00    +0.060 A 
ATOM     10  C   LIG    1        0.072   1.381   0.075  0.00  0.00    +0.010 A 
ATOM     11  C   LIG    1        1.234   2.108  -0.178  0.00  0.00    +0.190 A 
ATOM     12  O   LIG    1       -1.046   3.482  -0.408  0.00  0.00    -0.520 OA
ENDROOT
BRANCH   8  13
ATOM     13  C   LIG    1        1.360  -2.136  -0.106  0.00  0.00    +0.570 C 
ATOM     14  N   LIG    1        0.237  -2.842   0.137  0.00  0.00    -0.700 N 
ATOM     15  H   LIG    1       -0.601  -2.380   0.297  0.00  0.00    +0.410 HD
ATOM     16  O   LIG    1        2.410  -2.715  -0.307  0.00  0.00    -0.530 OA
BRANCH  14  17
ATOM     17  C   LIG    1        0.283  -4.306   0.160  0.00  0.00    +0.320 C 
ATOM     18  C   LIG    1        0.228  -4.887   1.574  0.00  0.00    -0.340 C 
ATOM     19  S   LIG    1       -0.652  -6.341   0.939  0.00  0.00    +2.410 S 
ATOM     20  O   LIG    1       -1.737  -6.733   1.769  0.00  0.00    -0.910 OA
ATOM     21  O   LIG    1        0.215  -7.284   0.326  0.00  0.00    -0.900 OA
ATOM     22  C   LIG    1       -1.067  -4.955  -0.157  0.00  0.00    -0.550 C 
ATOM     23  C   LIG    1       -1.207  -5.367  -1.623  0.00  0.00    +0.100 C 
ATOM     24  C   LIG    1       -2.260  -4.133   0.338  0.00  0.00    +0.100 C 
ENDBRANCH  14  17
ENDBRANCH   8  13
BRANCH   1  26
ATOM     25  C   LIG    1       -1.255   6.220  -0.318  0.00  0.00    +0.160 C 
ATOM     26  C   LIG    1       -0.094   5.593  -0.153  0.00  0.00    -0.100 C 
ENDBRANCH   1  26
TORSDOF 3
