REMARK  Name = ZINCqH0000036wYa.0
REMARK                            x       y       z     vdW  Elec       q    Type
REMARK                         _______ _______ _______ _____ _____    ______ ____
ROOT
ATOM      1  N   LIG    1       -4.947   0.823  -1.910  0.00  0.00    -0.550 N 
ATOM      2  C   LIG    1       -4.347  -0.495  -2.147  0.00  0.00    +0.320 C 
ATOM      3  C   LIG    1       -3.549  -0.821  -0.865  0.00  0.00    +0.010 C 
ATOM      4  C   LIG    1       -4.297   0.021   0.195  0.00  0.00    +0.100 C 
ATOM      5  C   LIG    1       -4.938   1.136  -0.603  0.00  0.00    +0.520 C 
ATOM      6  O   LIG    1       -5.379   2.163  -0.131  0.00  0.00    -0.500 OA
ENDROOT
BRANCH   3   7
ATOM      7  C   LIG    1       -2.115  -0.376  -0.994  0.00  0.00    +0.530 C 
ATOM      8  N   LIG    1       -1.259  -0.557   0.031  0.00  0.00    -0.550 N 
ATOM      9  C   LIG    1        0.061  -0.090   0.069  0.00  0.00    +0.140 A 
ATOM     10  C   LIG    1        0.771   0.635  -0.890  0.00  0.00    +0.010 A 
ATOM     11  C   LIG    1        2.079   1.002  -0.656  0.00  0.00    +0.040 A 
ATOM     12  C   LIG    1        2.697   0.656   0.532  0.00  0.00    -0.010 A 
ATOM     13  C   LIG    1        2.000  -0.061   1.487  0.00  0.00    +0.050 A 
ATOM     14  C   LIG    1        0.690  -0.432   1.256  0.00  0.00    -0.130 A 
ATOM     15  C   LIG    1       -0.287  -1.206   2.113  0.00  0.00    +0.110 C 
ATOM     16  C   LIG    1       -1.572  -1.272   1.271  0.00  0.00    +0.220 C 
ATOM     17  C   LIG    1       -1.932  -2.728   0.967  0.00  0.00    +0.050 C 
ATOM     18  O   LIG    1       -1.732   0.145  -2.020  0.00  0.00    -0.500 OA
ENDBRANCH   3   7
BRANCH   1  22
ATOM     19  C   LIG    1       -6.487   3.281  -4.908  0.00  0.00    -0.110 A 
ATOM     20  C   LIG    1       -5.819   2.110  -5.244  0.00  0.00    +0.060 A 
ATOM     21  C   LIG    1       -5.310   1.296  -4.252  0.00  0.00    +0.000 A 
ATOM     22  C   LIG    1       -5.465   1.649  -2.917  0.00  0.00    +0.160 A 
ATOM     23  C   LIG    1       -6.136   2.817  -2.581  0.00  0.00    +0.020 A 
ATOM     24  C   LIG    1       -6.642   3.633  -3.572  0.00  0.00    +0.030 A 
BRANCH  19  26
ATOM     25  C   LIG    1       -7.892   5.679  -5.240  0.00  0.00    +0.130 C 
ATOM     26  S   LIG    1       -7.137   4.319  -6.174  0.00  0.00    -0.120 S 
ENDBRANCH  19  26
ENDBRANCH   1  22
TORSDOF 3
