REMARK  Name = ZINCrD00000l3jUB.0
REMARK                            x       y       z     vdW  Elec       q    Type
REMARK                         _______ _______ _______ _____ _____    ______ ____
ROOT
ATOM      1  C   LIG    1       -2.239   0.473  -0.225  0.00  0.00    +0.550 C 
ATOM      2  N   LIG    1       -3.443   1.042  -0.429  0.00  0.00    -0.600 N 
ATOM      3  O   LIG    1       -2.166  -0.696   0.105  0.00  0.00    -0.510 OA
ENDROOT
BRANCH   2   4
ATOM      4  C   LIG    1       -3.533   2.464  -0.770  0.00  0.00    +0.280 C 
ATOM      5  C   LIG    1       -2.906   3.307   0.355  0.00  0.00    +0.060 C 
ATOM      6  C   LIG    1       -2.737   4.741  -0.206  0.00  0.00    -0.290 C 
ATOM      7  S   LIG    1       -2.104   4.432  -1.899  0.00  0.00    +2.380 S 
ATOM      8  O   LIG    1       -2.766   5.291  -2.817  0.00  0.00    -0.930 OA
ATOM      9  O   LIG    1       -0.684   4.388  -1.869  0.00  0.00    -0.920 OA
ATOM     10  C   LIG    1       -2.759   2.734  -2.076  0.00  0.00    -0.330 C 
ENDBRANCH   2   4
BRANCH   1  12
ATOM     11  C   LIG    1        0.189   0.670  -0.285  0.00  0.00    +0.150 C 
ATOM     12  C   LIG    1       -1.017   1.262  -0.399  0.00  0.00    -0.120 C 
BRANCH  11  17
ATOM     13  C   LIG    1        4.976   3.848  -0.469  0.00  0.00    +0.090 C 
ATOM     14  C   LIG    1        3.721   3.015  -0.420  0.00  0.00    -0.070 A 
ATOM     15  C   LIG    1        3.812   1.634  -0.398  0.00  0.00    +0.000 A 
ATOM     16  C   LIG    1        2.668   0.865  -0.353  0.00  0.00    +0.040 A 
ATOM     17  C   LIG    1        1.415   1.484  -0.332  0.00  0.00    -0.100 A 
ATOM     18  C   LIG    1        1.331   2.879  -0.360  0.00  0.00    +0.060 A 
ATOM     19  C   LIG    1        2.484   3.635  -0.399  0.00  0.00    +0.010 A 
ENDBRANCH  11  17
ENDBRANCH   1  12
BRANCH   2  20
ATOM     20  C   LIG    1       -4.663   0.239  -0.310  0.00  0.00    +0.350 C 
BRANCH  20  21
ATOM     21  C   LIG    1       -5.161   0.290   1.112  0.00  0.00    -0.150 A 
ATOM     22  C   LIG    1       -6.264   1.059   1.431  0.00  0.00    +0.050 A 
ATOM     23  C   LIG    1       -6.721   1.105   2.735  0.00  0.00    -0.010 A 
ATOM     24  C   LIG    1       -6.075   0.383   3.721  0.00  0.00    +0.050 A 
ATOM     25  C   LIG    1       -4.972  -0.386   3.404  0.00  0.00    -0.030 A 
ATOM     26  C   LIG    1       -4.517  -0.439   2.098  0.00  0.00    +0.120 A 
ATOM     27  F   LIG    1       -3.442  -1.196   1.786  0.00  0.00    -0.110 F 
ENDBRANCH  20  21
ENDBRANCH   2  20
TORSDOF 5
