REMARK  Name = ZINCqH0000051jSy.0
REMARK                            x       y       z     vdW  Elec       q    Type
REMARK                         _______ _______ _______ _____ _____    ______ ____
ROOT
ATOM      1  C   LIG    1        4.964  -2.798  -0.045  0.00  0.00    +0.290 C 
ENDROOT
BRANCH   1   2
ATOM      2  C   LIG    1        4.686  -4.302  -0.065  0.00  0.00    +0.000 C 
ATOM      3  C   LIG    1        4.017  -4.759   1.253  0.00  0.00    +0.080 C 
ATOM      4  C   LIG    1        4.620  -6.120   1.523  0.00  0.00    +0.520 C 
ATOM      5  N   LIG    1        5.727  -6.290   0.780  0.00  0.00    -0.560 N 
ATOM      6  O   LIG    1        4.171  -6.937   2.298  0.00  0.00    -0.500 OA
ATOM      7  C   LIG    1        6.004  -5.108  -0.045  0.00  0.00    +0.290 C 
BRANCH   5   8
ATOM      8  C   LIG    1        6.515  -7.448   0.790  0.00  0.00    +0.170 A 
ATOM      9  C   LIG    1        6.243  -8.466   1.695  0.00  0.00    +0.020 A 
ATOM     10  C   LIG    1        7.019  -9.608   1.701  0.00  0.00    +0.060 A 
ATOM     11  C   LIG    1        8.073  -9.735   0.812  0.00  0.00    -0.060 A 
ATOM     12  C   LIG    1        8.349  -8.720  -0.087  0.00  0.00    +0.060 A 
ATOM     13 CL   LIG    1        9.050 -11.169   0.826  0.00  0.00    -0.070 Cl
ATOM     14  C   LIG    1        7.573  -7.577  -0.100  0.00  0.00    -0.010 A 
ENDBRANCH   5   8
ENDBRANCH   1   2
BRANCH   1  17
ATOM     15  O   LIG    1        4.745  -0.110  -0.011  0.00  0.00    -0.500 OA
ATOM     16  C   LIG    1        3.692  -0.719  -0.019  0.00  0.00    +0.560 C 
ATOM     17  N   LIG    1        3.694  -2.067  -0.037  0.00  0.00    -0.730 N 
ATOM     18  H   LIG    1        2.855  -2.553  -0.043  0.00  0.00    +0.400 HD
BRANCH  16  19
ATOM     19  C   LIG    1        2.415   0.016  -0.011  0.00  0.00    -0.090 A 
ATOM     20  C   LIG    1        2.413   1.439   0.007  0.00  0.00    +0.130 A 
ATOM     21  N   LIG    1        3.441   2.292   0.018  0.00  0.00    -0.440 NA
ATOM     22  C   LIG    1        3.181   3.547   0.034  0.00  0.00    +0.290 A 
ATOM     23  S   LIG    1        1.499   3.834   0.036  0.00  0.00    +0.110 S 
ATOM     24  C   LIG    1        1.181   2.102   0.014  0.00  0.00    -0.200 A 
ATOM     25  C   LIG    1       -0.009   1.380   0.004  0.00  0.00    +0.100 A 
ATOM     26  C   LIG    1        0.010   0.001  -0.013  0.00  0.00    +0.040 A 
ATOM     27  C   LIG    1        1.213  -0.679  -0.021  0.00  0.00    +0.070 A 
ENDBRANCH  16  19
ENDBRANCH   1  17
TORSDOF 4
