REMARK  Name = ZINCvU0000000IVH.1
REMARK                            x       y       z     vdW  Elec       q    Type
REMARK                         _______ _______ _______ _____ _____    ______ ____
ROOT
ATOM      1  N   LIG    1       -0.862   7.230  -1.345  0.00  0.00    -1.050 N 
ATOM      2  H   LIG    1       -1.021   7.200  -2.301  0.00  0.00    +0.430 HD
ENDROOT
BRANCH   1   3
ATOM      3  C   LIG    1       -1.646   8.048  -0.534  0.00  0.00    +0.170 A 
ATOM      4  C   LIG    1       -2.158   7.554   0.661  0.00  0.00    +0.020 A 
ATOM      5  C   LIG    1       -2.929   8.362   1.468  0.00  0.00    +0.060 A 
ATOM      6  C   LIG    1       -3.206   9.674   1.079  0.00  0.00    -0.050 A 
ATOM      7  C   LIG    1       -2.695  10.166  -0.124  0.00  0.00    +0.090 A 
ATOM      8  C   LIG    1       -1.920   9.355  -0.924  0.00  0.00    +0.010 A 
BRANCH   6   9
ATOM      9  C   LIG    1       -4.037  10.541   1.939  0.00  0.00    +0.160 A 
ATOM     10  N   LIG    1       -4.350  11.765   1.670  0.00  0.00    -0.460 NA
ATOM     11  C   LIG    1       -5.117  12.427   2.553  0.00  0.00    +0.080 A 
ATOM     12  C   LIG    1       -5.590  13.757   2.491  0.00  0.00    +0.080 A 
ATOM     13  C   LIG    1       -6.370  14.264   3.498  0.00  0.00    +0.030 A 
ATOM     14  C   LIG    1       -6.706  13.483   4.594  0.00  0.00    -0.060 A 
ATOM     15  C   LIG    1       -6.257  12.184   4.678  0.00  0.00    +0.050 A 
ATOM     16  C   LIG    1       -7.564  14.056   5.693  0.00  0.00    +0.100 C 
ATOM     17  C   LIG    1       -5.464  11.650   3.664  0.00  0.00    -0.170 A 
ATOM     18  S   LIG    1       -4.748  10.052   3.471  0.00  0.00    +0.070 S 
ENDBRANCH   6   9
ENDBRANCH   1   3
BRANCH   1  19
ATOM     19  S   LIG    1        0.342   6.310  -0.676  0.00  0.00    +2.700 S 
ATOM     20  O   LIG    1       -0.250   5.597   0.401  0.00  0.00    -0.950 OA
ATOM     21  O   LIG    1        1.007   5.672  -1.758  0.00  0.00    -0.930 OA
BRANCH  19  24
ATOM     22  C   LIG    1        2.605   8.313   1.977  0.00  0.00    +0.090 A 
ATOM     23  C   LIG    1        1.687   7.441   1.412  0.00  0.00    +0.110 A 
ATOM     24  C   LIG    1        1.508   7.419   0.042  0.00  0.00    -0.670 A 
ATOM     25  C   LIG    1        2.247   8.268  -0.769  0.00  0.00    +0.210 A 
ATOM     26  C   LIG    1        3.166   9.140  -0.204  0.00  0.00    -0.020 A 
ATOM     27  C   LIG    1        3.341   9.167   1.167  0.00  0.00    +0.030 A 
ATOM     28 CL   LIG    1        4.484  10.264   1.874  0.00  0.00    -0.030 Cl
BRANCH  22  30
ATOM     29  C   LIG    1        1.986   7.434   4.098  0.00  0.00    +0.250 C 
ATOM     30  O   LIG    1        2.780   8.335   3.325  0.00  0.00    -0.300 OA
ENDBRANCH  22  30
BRANCH  25  31
ATOM     31  O   LIG    1        2.071   8.245  -2.117  0.00  0.00    -0.310 OA
ATOM     32  C   LIG    1        2.941   9.065  -2.899  0.00  0.00    +0.260 C 
ENDBRANCH  25  31
ENDBRANCH  19  24
ENDBRANCH   1  19
TORSDOF 6
