REMARK  Name = ZINCrD000000ADON.0
REMARK                            x       y       z     vdW  Elec       q    Type
REMARK                         _______ _______ _______ _____ _____    ______ ____
ROOT
ATOM      1  O   LIG    1        3.512   1.801   0.027  0.00  0.00    -0.490 OA
ATOM      2  C   LIG    1        3.721   2.987  -0.112  0.00  0.00    +0.490 C 
ATOM      3  N   LIG    1        2.688   3.843  -0.236  0.00  0.00    -0.670 N 
ATOM      4  H   LIG    1        2.854   4.781  -0.423  0.00  0.00    +0.420 HD
ENDROOT
BRANCH   3   5
ATOM      5  C   LIG    1        1.375   3.380  -0.097  0.00  0.00    +0.180 A 
ATOM      6  C   LIG    1        1.094   2.344   0.784  0.00  0.00    -0.010 A 
ATOM      7  C   LIG    1       -0.205   1.886   0.923  0.00  0.00    +0.130 A 
ATOM      8  C   LIG    1       -1.225   2.455   0.181  0.00  0.00    -0.060 A 
ATOM      9  C   LIG    1       -0.948   3.496  -0.697  0.00  0.00    +0.130 A 
ATOM     10  F   LIG    1       -0.476   0.878   1.780  0.00  0.00    -0.130 F 
ATOM     11  C   LIG    1        0.353   3.957  -0.838  0.00  0.00    +0.010 A 
BRANCH   9  12
ATOM     12  N   LIG    1       -1.979   4.074  -1.442  0.00  0.00    -0.480 N 
ATOM     13  C   LIG    1       -2.583   3.085  -2.372  0.00  0.00    +0.180 C 
ATOM     14  C   LIG    1       -3.968   3.701  -2.692  0.00  0.00    +0.040 C 
ATOM     15  C   LIG    1       -4.392   4.322  -1.341  0.00  0.00    +0.020 C 
ATOM     16  C   LIG    1       -3.079   4.526  -0.563  0.00  0.00    +0.170 C 
ENDBRANCH   9  12
ENDBRANCH   3   5
BRANCH   2  17
ATOM     17  C   LIG    1        5.136   3.504  -0.145  0.00  0.00    +0.340 C 
BRANCH  17  18
ATOM     18  N   LIG    1        6.069   2.385   0.010  0.00  0.00    -0.490 N 
ATOM     19  C   LIG    1        6.514   1.739  -1.095  0.00  0.00    +0.340 A 
ATOM     20  C   LIG    1        7.373   0.700  -1.031  0.00  0.00    -0.160 A 
ATOM     21  C   LIG    1        7.845   0.246   0.223  0.00  0.00    +0.420 A 
ATOM     22  C   LIG    1        7.367   0.943   1.430  0.00  0.00    -0.190 A 
ATOM     23  C   LIG    1        7.782   0.559   2.705  0.00  0.00    +0.110 A 
ATOM     24  C   LIG    1        7.315   1.232   3.800  0.00  0.00    -0.030 A 
ATOM     25  C   LIG    1        6.431   2.292   3.652  0.00  0.00    +0.080 A 
ATOM     26  C   LIG    1        6.009   2.687   2.402  0.00  0.00    -0.050 A 
ATOM     27  O   LIG    1        8.622  -0.691   0.302  0.00  0.00    -0.490 OA
ATOM     28  C   LIG    1        6.476   2.020   1.273  0.00  0.00    +0.200 A 
ENDBRANCH  17  18
ENDBRANCH   2  17
TORSDOF 4
