REMARK  Name = ZINCqH0000000y0P.0
REMARK                            x       y       z     vdW  Elec       q    Type
REMARK                         _______ _______ _______ _____ _____    ______ ____
ROOT
ATOM      1  C   LIG    1       -2.866   4.307  -1.467  0.00  0.00    +0.060 C 
ENDROOT
BRANCH   1   2
ATOM      2  C   LIG    1       -2.375   4.211  -0.021  0.00  0.00    +0.320 C 
ATOM      3  C   LIG    1       -1.059   3.477   0.017  0.00  0.00    -0.100 A 
ATOM      4  C   LIG    1        0.128   4.153  -0.155  0.00  0.00    +0.030 A 
ATOM      5  C   LIG    1        1.326   3.458  -0.158  0.00  0.00    +0.010 A 
ATOM      6  C   LIG    1        1.339   2.085   0.011  0.00  0.00    +0.020 A 
ATOM      7  C   LIG    1        0.156   1.397   0.193  0.00  0.00    +0.020 A 
ATOM      8  C   LIG    1       -1.052   2.091   0.201  0.00  0.00    -0.030 A 
ATOM      9  C   LIG    1       -2.332   1.383   0.398  0.00  0.00    -0.040 C 
ATOM     10  C   LIG    1       -3.438   2.088   0.660  0.00  0.00    +0.240 C 
ATOM     11  N   LIG    1       -3.361   3.471   0.767  0.00  0.00    -0.560 N 
ATOM     12  C   LIG    1       -4.187   4.133   1.602  0.00  0.00    +0.510 C 
ATOM     13  O   LIG    1       -4.117   5.340   1.694  0.00  0.00    -0.480 OA
ATOM     14  C   LIG    1       -5.197   3.371   2.421  0.00  0.00    +0.100 C 
ENDBRANCH   1   2
BRANCH   1  17
ATOM     15  N   LIG    1       -4.731   5.369  -2.697  0.00  0.00    -0.680 N 
ATOM     16  H   LIG    1       -4.327   5.056  -3.521  0.00  0.00    +0.410 HD
ATOM     17  C   LIG    1       -4.117   5.146  -1.518  0.00  0.00    +0.500 C 
ATOM     18  O   LIG    1       -4.572   5.620  -0.498  0.00  0.00    -0.480 OA
BRANCH  15  23
ATOM     19  C   LIG    1       -8.072   6.598  -1.731  0.00  0.00    -0.150 A 
ATOM     20  C   LIG    1       -8.368   7.422  -2.822  0.00  0.00    +0.050 A 
ATOM     21  C   LIG    1       -7.460   7.554  -3.852  0.00  0.00    +0.020 A 
ATOM     22  C   LIG    1       -6.257   6.875  -3.811  0.00  0.00    +0.010 A 
ATOM     23  C   LIG    1       -5.951   6.054  -2.732  0.00  0.00    +0.140 A 
ATOM     24  C   LIG    1       -6.857   5.909  -1.693  0.00  0.00    +0.080 A 
BRANCH  19  26
ATOM     25  C   LIG    1      -10.350   7.195  -0.676  0.00  0.00    +0.080 C 
ATOM     26  C   LIG    1       -9.038   6.454  -0.630  0.00  0.00    +0.390 C 
ATOM     27  O   LIG    1       -8.778   5.739   0.314  0.00  0.00    -0.450 OA
ENDBRANCH  19  26
ENDBRANCH  15  23
ENDBRANCH   1  17
TORSDOF 4
