REMARK  Name = ZINCpk00000xTGdQ.0
REMARK                            x       y       z     vdW  Elec       q    Type
REMARK                         _______ _______ _______ _____ _____    ______ ____
ROOT
ATOM      1  C   LIG    1        2.460  -0.894  -2.690  0.00  0.00    +0.270 C 
ENDROOT
BRANCH   1   2
ATOM      2  N   LIG    1        2.184  -1.008  -4.124  0.00  0.00    -0.720 N 
ATOM      3  H   LIG    1        1.291  -1.228  -4.430  0.00  0.00    +0.400 HD
ATOM      4  C   LIG    1        3.172  -0.805  -5.018  0.00  0.00    +0.570 C 
ATOM      5  O   LIG    1        4.292  -0.528  -4.635  0.00  0.00    -0.530 OA
BRANCH   4   6
ATOM      6  C   LIG    1        2.895  -0.919  -6.463  0.00  0.00    -0.170 A 
ATOM      7  C   LIG    1        3.895  -0.714  -7.369  0.00  0.00    +0.320 A 
ATOM      8  N   LIG    1        3.650  -0.818  -8.702  0.00  0.00    -0.370 N 
ATOM      9  C   LIG    1        4.451  -0.667  -9.803  0.00  0.00    +0.100 A 
ATOM     10  C   LIG    1        3.680  -0.886 -10.889  0.00  0.00    +0.230 A 
ATOM     11  N   LIG    1        2.438  -1.165 -10.483  0.00  0.00    -0.490 NA
ATOM     12  C   LIG    1        2.395  -1.130  -9.160  0.00  0.00    +0.230 A 
ATOM     13  C   LIG    1        1.345  -1.346  -8.241  0.00  0.00    +0.090 A 
ATOM     14  C   LIG    1        1.590  -1.248  -6.911  0.00  0.00    +0.050 A 
ENDBRANCH   4   6
ENDBRANCH   1   2
BRANCH   1  16
ATOM     15  C   LIG    1        0.680  -2.582  -2.214  0.00  0.00    +0.040 C 
ATOM     16  C   LIG    1        1.178  -1.169  -1.901  0.00  0.00    -0.050 C 
ATOM     17  C   LIG    1        0.107  -0.151  -2.296  0.00  0.00    +0.050 C 
BRANCH  16  18
ATOM     18  C   LIG    1        1.466  -1.051  -0.403  0.00  0.00    -0.030 C 
ATOM     19  C   LIG    1        1.958   0.373  -0.056  0.00  0.00    +0.210 C 
ATOM     20  O   LIG    1        1.362   0.668   1.227  0.00  0.00    -0.360 OA
ATOM     21  C   LIG    1        0.020   0.137   1.157  0.00  0.00    +0.230 C 
ATOM     22  C   LIG    1        0.168  -1.201   0.410  0.00  0.00    +0.240 C 
ATOM     23  O   LIG    1       -0.947  -1.416  -0.460  0.00  0.00    -0.350 OA
ATOM     24  C   LIG    1       -1.154  -2.850  -0.441  0.00  0.00    +0.200 C 
ATOM     25  C   LIG    1       -0.798  -3.203   1.026  0.00  0.00    +0.200 C 
ATOM     26  O   LIG    1        0.273  -2.285   1.332  0.00  0.00    -0.360 OA
ENDBRANCH  16  18
ENDBRANCH   1  16
TORSDOF 4
