REMARK  Name = ZINCqH0000038KMT.1
REMARK                            x       y       z     vdW  Elec       q    Type
REMARK                         _______ _______ _______ _____ _____    ______ ____
ROOT
ATOM      1  S   LIG    1        2.718   0.893  -0.018  0.00  0.00    +2.700 S 
ATOM      2  O   LIG    1        2.449  -0.394   0.523  0.00  0.00    -0.930 OA
ATOM      3  O   LIG    1        3.692   1.774   0.522  0.00  0.00    -0.940 OA
ENDROOT
BRANCH   1  11
ATOM      4  C   LIG    1        0.446   6.389   0.030  0.00  0.00    +0.190 C 
ATOM      5  C   LIG    1       -0.469   5.192   0.033  0.00  0.00    +0.130 A 
ATOM      6  N   LIG    1       -1.771   5.219   0.045  0.00  0.00    -0.240 NA
ATOM      7  N   LIG    1       -2.280   3.917   0.043  0.00  0.00    -0.390 N 
ATOM      8  C   LIG    1       -1.240   3.027   0.029  0.00  0.00    +0.360 A 
ATOM      9  N   LIG    1       -1.169   1.702   0.017  0.00  0.00    -0.500 NA
ATOM     10  C   LIG    1       -0.013   1.076   0.008  0.00  0.00    +0.440 A 
ATOM     11  C   LIG    1        1.189   1.769   0.000  0.00  0.00    -0.780 A 
ATOM     12  C   LIG    1        1.181   3.140   0.007  0.00  0.00    +0.280 A 
ATOM     13  C   LIG    1       -3.700   3.560   0.054  0.00  0.00    +0.370 C 
ATOM     14  C   LIG    1       -0.056   3.793   0.022  0.00  0.00    -0.240 A 
ENDBRANCH   1  11
BRANCH   1  15
ATOM     15  N   LIG    1        3.128   0.656  -1.605  0.00  0.00    -1.050 N 
ATOM     16  H   LIG    1        3.165  -0.243  -1.967  0.00  0.00    +0.440 HD
BRANCH  15  17
ATOM     17  C   LIG    1        3.422   1.751  -2.421  0.00  0.00    +0.160 A 
ATOM     18  C   LIG    1        4.247   2.765  -1.953  0.00  0.00    +0.060 A 
ATOM     19  C   LIG    1        4.536   3.848  -2.764  0.00  0.00    -0.010 A 
ATOM     20  C   LIG    1        4.003   3.920  -4.039  0.00  0.00    +0.090 A 
ATOM     21  C   LIG    1        3.181   2.911  -4.506  0.00  0.00    -0.150 A 
ATOM     22 CL   LIG    1        5.566   5.117  -2.181  0.00  0.00    -0.040 Cl
ATOM     23  C   LIG    1        2.894   1.825  -3.704  0.00  0.00    +0.070 A 
BRANCH  21  24
ATOM     24  C   LIG    1        2.603   2.994  -5.896  0.00  0.00    +0.510 C 
ATOM     25  F   LIG    1        1.206   2.995  -5.820  0.00  0.00    -0.170 F 
ATOM     26  F   LIG    1        3.029   1.892  -6.645  0.00  0.00    -0.170 F 
ATOM     27  F   LIG    1        3.037   4.173  -6.511  0.00  0.00    -0.170 F 
ENDBRANCH  21  24
ENDBRANCH  15  17
ENDBRANCH   1  15
TORSDOF 4
