REMARK  Name = ZINCqH00000098PC.0
REMARK                            x       y       z     vdW  Elec       q    Type
REMARK                         _______ _______ _______ _____ _____    ______ ____
ROOT
ATOM      1  C   LIG    1       -3.839   2.554   0.574  0.00  0.00    -0.110 A 
ATOM      2  C   LIG    1       -3.677   1.185   0.687  0.00  0.00    +0.040 A 
ATOM      3  C   LIG    1       -2.424   0.622   0.543  0.00  0.00    +0.030 A 
ATOM      4  C   LIG    1       -1.327   1.432   0.283  0.00  0.00    +0.160 A 
ATOM      5  C   LIG    1       -1.492   2.807   0.175  0.00  0.00    -0.010 A 
ATOM      6  C   LIG    1       -2.748   3.363   0.315  0.00  0.00    +0.030 A 
ENDROOT
BRANCH   4   7
ATOM      7  N   LIG    1       -0.056   0.865   0.136  0.00  0.00    -0.680 N 
ATOM      8  H   LIG    1        0.727   1.337   0.462  0.00  0.00    +0.410 HD
ATOM      9  C   LIG    1        0.081  -0.339  -0.453  0.00  0.00    +0.700 C 
ATOM     10  N   LIG    1        1.310  -0.846  -0.674  0.00  0.00    -0.680 N 
ATOM     11  H   LIG    1        2.093  -0.380  -0.343  0.00  0.00    +0.410 HD
ATOM     12  O   LIG    1       -0.905  -0.969  -0.786  0.00  0.00    -0.550 OA
BRANCH  10  13
ATOM     13  C   LIG    1        1.456  -2.045  -1.382  0.00  0.00    +0.160 A 
ATOM     14  C   LIG    1        2.490  -2.916  -1.068  0.00  0.00    -0.020 A 
ATOM     15  C   LIG    1        2.629  -4.100  -1.766  0.00  0.00    +0.030 A 
ATOM     16  C   LIG    1        1.745  -4.413  -2.782  0.00  0.00    -0.010 A 
ATOM     17  C   LIG    1        0.717  -3.545  -3.100  0.00  0.00    +0.030 A 
ATOM     18  C   LIG    1        0.570  -2.362  -2.403  0.00  0.00    +0.020 A 
ENDBRANCH  10  13
ENDBRANCH   4   7
BRANCH   1  20
ATOM     19  C   LIG    1       -5.799   3.456  -0.648  0.00  0.00    +0.040 C 
ATOM     20  C   LIG    1       -5.208   3.164   0.732  0.00  0.00    +0.290 C 
BRANCH  20  21
ATOM     21  N   LIG    1       -5.100   4.413   1.491  0.00  0.00    -0.720 N 
ATOM     22  H   LIG    1       -4.266   4.908   1.494  0.00  0.00    +0.400 HD
ATOM     23  C   LIG    1       -6.160   4.873   2.185  0.00  0.00    +0.530 C 
ATOM     24  O   LIG    1       -7.203   4.253   2.181  0.00  0.00    -0.510 OA
BRANCH  23  25
ATOM     25  C   LIG    1       -6.050   6.157   2.966  0.00  0.00    +0.100 C 
BRANCH  25  26
ATOM     26  S   LIG    1       -7.630   6.505   3.784  0.00  0.00    -0.130 S 
BRANCH  26  27
ATOM     27  C   LIG    1       -7.304   8.061   4.657  0.00  0.00    +0.240 C 
BRANCH  27  28
ATOM     28  C   LIG    1       -8.515   8.481   5.382  0.00  0.00    +0.220 C 
ATOM     29  N   LIG    1       -9.449   8.804   5.941  0.00  0.00    -0.400 NA
ENDBRANCH  27  28
ENDBRANCH  26  27
ENDBRANCH  25  26
ENDBRANCH  23  25
ENDBRANCH  20  21
ENDBRANCH   1  20
TORSDOF 8
