REMARK  Name = ZINCpk000000pC8n.0
REMARK                            x       y       z     vdW  Elec       q    Type
REMARK                         _______ _______ _______ _____ _____    ______ ____
ROOT
ATOM      1  N   LIG    1       -0.078   0.875  -0.296  0.00  0.00    -0.740 N 
ATOM      2  H   LIG    1       -0.156  -0.090  -0.357  0.00  0.00    +0.400 HD
ATOM      3  C   LIG    1        1.129   1.462  -0.422  0.00  0.00    +0.710 C 
ATOM      4  N   LIG    1        2.239   0.705  -0.531  0.00  0.00    -0.630 N 
ATOM      5  C   LIG    1        2.140  -0.759  -0.618  0.00  0.00    +0.270 C 
ATOM      6  C   LIG    1        2.872  -1.219  -1.891  0.00  0.00    +0.300 C 
ATOM      7  N   LIG    1        4.202  -0.596  -1.917  0.00  0.00    -1.000 NA
ATOM      8  C   LIG    1        4.301   0.868  -1.824  0.00  0.00    +0.300 C 
ATOM      9  C   LIG    1        3.569   1.328  -0.557  0.00  0.00    +0.290 C 
ATOM     10  O   LIG    1        1.216   2.675  -0.437  0.00  0.00    -0.580 OA
ENDROOT
BRANCH   7  11
ATOM     11  S   LIG    1        5.566  -1.526  -2.051  0.00  0.00    +2.610 S 
ATOM     12  O   LIG    1        6.522  -0.661  -2.650  0.00  0.00    -0.950 OA
ATOM     13  O   LIG    1        5.124  -2.702  -2.715  0.00  0.00    -0.950 OA
ATOM     14  C   LIG    1        6.030  -1.897  -0.337  0.00  0.00    -0.280 C 
ENDBRANCH   7  11
BRANCH   1  15
ATOM     15  C   LIG    1       -1.272   1.694  -0.075  0.00  0.00    +0.310 C 
BRANCH  15  16
ATOM     16  C   LIG    1       -2.501   0.788   0.024  0.00  0.00    +0.160 C 
BRANCH  16  18
ATOM     17  C   LIG    1       -4.998   0.747   0.104  0.00  0.00    +0.020 C 
ATOM     18  C   LIG    1       -3.762   1.648   0.131  0.00  0.00    +0.020 C 
ENDBRANCH  16  18
BRANCH  16  19
ATOM     19  O   LIG    1       -2.390  -0.040   1.184  0.00  0.00    -0.300 OA
BRANCH  19  20
ATOM     20  C   LIG    1       -2.830  -1.321   1.072  0.00  0.00    +0.130 A 
ATOM     21  C   LIG    1       -3.438  -1.746  -0.100  0.00  0.00    -0.090 A 
ATOM     22  C   LIG    1       -3.885  -3.049  -0.211  0.00  0.00    +0.050 A 
ATOM     23  C   LIG    1       -3.727  -3.928   0.845  0.00  0.00    -0.040 A 
ATOM     24  C   LIG    1       -3.122  -3.506   2.014  0.00  0.00    -0.050 A 
ATOM     25  C   LIG    1       -2.952  -4.466   3.163  0.00  0.00    +0.090 C 
ATOM     26  C   LIG    1       -2.668  -2.206   2.128  0.00  0.00    -0.030 A 
ENDBRANCH  19  20
ENDBRANCH  16  19
ENDBRANCH  15  16
ENDBRANCH   1  15
TORSDOF 6
