REMARK  Name = ZINCvU00000009Kl.0
REMARK                            x       y       z     vdW  Elec       q    Type
REMARK                         _______ _______ _______ _____ _____    ______ ____
ROOT
ATOM      1  N   LIG    1       -2.478   1.318  -0.388  0.00  0.00    -0.730 N 
ATOM      2  H   LIG    1       -2.341   0.358  -0.401  0.00  0.00    +0.400 HD
ATOM      3  C   LIG    1       -3.525   1.858  -1.044  0.00  0.00    +0.700 C 
ATOM      4  N   LIG    1       -4.381   1.063  -1.716  0.00  0.00    -0.690 N 
ATOM      5  H   LIG    1       -4.290   0.099  -1.665  0.00  0.00    +0.410 HD
ATOM      6  O   LIG    1       -3.696   3.061  -1.028  0.00  0.00    -0.560 OA
ENDROOT
BRANCH   4   7
ATOM      7  C   LIG    1       -5.403   1.630  -2.487  0.00  0.00    +0.160 A 
ATOM      8  C   LIG    1       -6.620   0.974  -2.616  0.00  0.00    +0.010 A 
ATOM      9  C   LIG    1       -7.635   1.532  -3.372  0.00  0.00    +0.040 A 
ATOM     10  C   LIG    1       -7.441   2.739  -4.012  0.00  0.00    +0.020 A 
ATOM     11  C   LIG    1       -6.219   3.403  -3.893  0.00  0.00    -0.120 A 
ATOM     12  C   LIG    1       -5.198   2.843  -3.125  0.00  0.00    +0.090 A 
BRANCH  11  13
ATOM     13  C   LIG    1       -6.008   4.696  -4.577  0.00  0.00    +0.550 C 
ATOM     14  N   LIG    1       -6.996   5.236  -5.318  0.00  0.00    -0.660 N 
ATOM     15  H   LIG    1       -7.869   4.813  -5.344  0.00  0.00    +0.420 HD
ATOM     16  O   LIG    1       -4.943   5.273  -4.472  0.00  0.00    -0.460 OA
BRANCH  14  17
ATOM     17  C   LIG    1       -6.764   6.401  -6.046  0.00  0.00    +0.370 A 
ATOM     18  C   LIG    1       -7.817   7.016  -6.714  0.00  0.00    -0.050 A 
ATOM     19  C   LIG    1       -7.574   8.173  -7.434  0.00  0.00    +0.110 A 
ATOM     20  C   LIG    1       -6.280   8.676  -7.461  0.00  0.00    -0.120 A 
ATOM     21  C   LIG    1       -5.281   8.012  -6.774  0.00  0.00    +0.320 A 
ATOM     22 CL   LIG    1       -5.920  10.124  -8.349  0.00  0.00    -0.050 Cl
ATOM     23  N   LIG    1       -5.545   6.914  -6.092  0.00  0.00    -0.460 NA
ENDBRANCH  14  17
ENDBRANCH  11  13
ENDBRANCH   4   7
BRANCH   1  25
ATOM     24  C   LIG    1       -2.045   2.371   1.776  0.00  0.00    +0.040 C 
ATOM     25  C   LIG    1       -1.546   2.181   0.342  0.00  0.00    +0.300 C 
BRANCH  25  26
ATOM     26  C   LIG    1       -0.182   1.543   0.365  0.00  0.00    -0.100 A 
ATOM     27  C   LIG    1        0.958   2.335   0.450  0.00  0.00    +0.110 A 
ATOM     28  N   LIG    1        1.164   3.694   0.529  0.00  0.00    -0.590 N 
ATOM     29  H   LIG    1        0.463   4.364   0.539  0.00  0.00    +0.420 HD
ATOM     30  C   LIG    1        2.505   3.958   0.592  0.00  0.00    +0.230 A 
ATOM     31  C   LIG    1        3.200   2.810   0.557  0.00  0.00    -0.060 A 
ATOM     32  C   LIG    1        2.224   1.722   0.463  0.00  0.00    -0.100 A 
ATOM     33  C   LIG    1        2.326   0.331   0.393  0.00  0.00    +0.050 A 
ATOM     34  C   LIG    1        1.192  -0.428   0.311  0.00  0.00    -0.020 A 
ATOM     35  C   LIG    1       -0.059   0.172   0.297  0.00  0.00    +0.020 A 
ENDBRANCH  25  26
ENDBRANCH   1  25
TORSDOF 5
