REMARK  Name = ZINCqH00000607si.0
REMARK                            x       y       z     vdW  Elec       q    Type
REMARK                         _______ _______ _______ _____ _____    ______ ____
ROOT
ATOM      1  N   LIG    1       -1.016  -0.987  -0.114  0.00  0.00    -0.450 N 
ATOM      2  C   LIG    1       -1.664  -0.724   1.177  0.00  0.00    +0.180 C 
ATOM      3  C   LIG    1       -3.076  -1.321   1.169  0.00  0.00    +0.100 C 
ATOM      4  C   LIG    1       -2.970  -2.782   0.787  0.00  0.00    -0.100 C 
ATOM      5  C   LIG    1       -2.148  -3.135  -0.435  0.00  0.00    +0.100 C 
ATOM      6  C   LIG    1       -3.578  -3.722   1.499  0.00  0.00    +0.010 C 
ATOM      7  C   LIG    1       -0.795  -2.423  -0.325  0.00  0.00    +0.230 C 
ENDROOT
BRANCH   6   8
ATOM      8  C   LIG    1       -4.517  -3.342   2.575  0.00  0.00    -0.020 A 
ATOM      9  C   LIG    1       -5.321  -2.210   2.436  0.00  0.00    +0.010 A 
ATOM     10  C   LIG    1       -6.196  -1.860   3.444  0.00  0.00    +0.050 A 
ATOM     11  C   LIG    1       -6.279  -2.628   4.591  0.00  0.00    -0.020 A 
ATOM     12  C   LIG    1       -5.484  -3.754   4.736  0.00  0.00    +0.100 A 
ATOM     13  F   LIG    1       -5.569  -4.500   5.859  0.00  0.00    -0.140 F 
ATOM     14  C   LIG    1       -4.606  -4.117   3.732  0.00  0.00    -0.010 A 
ENDBRANCH   6   8
BRANCH   1  18
ATOM     15  C   LIG    1        1.661   1.307  -0.285  0.00  0.00    +0.140 A 
ATOM     16  N   LIG    1        2.230   0.159  -0.520  0.00  0.00    -0.270 NA
ATOM     17  N   LIG    1        1.356  -0.782  -0.487  0.00  0.00    -0.320 NA
ATOM     18  C   LIG    1        0.171  -0.280  -0.228  0.00  0.00    +0.360 A 
ATOM     19  N   LIG    1        0.329   1.068  -0.091  0.00  0.00    -0.480 N 
ATOM     20  C   LIG    1       -0.715   2.055   0.198  0.00  0.00    +0.340 C 
BRANCH  15  21
ATOM     21  C   LIG    1        2.343   2.650  -0.238  0.00  0.00    +0.320 C 
BRANCH  21  22
ATOM     22  C   LIG    1        2.673   3.105  -1.661  0.00  0.00    -0.040 C 
ATOM     23  C   LIG    1        3.601   2.084  -2.321  0.00  0.00    +0.030 C 
BRANCH  22  25
ATOM     24  C   LIG    1        3.583   4.980  -3.039  0.00  0.00    +0.020 C 
ATOM     25  C   LIG    1        3.366   4.468  -1.613  0.00  0.00    +0.020 C 
ENDBRANCH  22  25
ENDBRANCH  21  22
BRANCH  21  26
ATOM     26  O   LIG    1        3.550   2.545   0.520  0.00  0.00    -0.540 OA
ATOM     27  H   LIG    1        4.187   1.913   0.158  0.00  0.00    +0.390 HD
ENDBRANCH  21  26
ENDBRANCH  15  21
ENDBRANCH   1  18
TORSDOF 6
