REMARK  Name = ZINCrH000004jL8M.0
REMARK                            x       y       z     vdW  Elec       q    Type
REMARK                         _______ _______ _______ _____ _____    ______ ____
ROOT
ATOM      1  C   LIG    1       -1.023   0.715   2.201  0.00  0.00    +0.560 C 
ATOM      2  N   LIG    1       -1.368   1.176   0.983  0.00  0.00    -0.610 N 
ATOM      3  C   LIG    1       -0.584   0.812  -0.205  0.00  0.00    +0.280 C 
ATOM      4  C   LIG    1       -1.526   0.224  -1.260  0.00  0.00    +0.040 C 
ATOM      5  C   LIG    1       -2.660   1.214  -1.535  0.00  0.00    -0.030 C 
ATOM      6  C   LIG    1       -3.459   1.447  -0.251  0.00  0.00    +0.040 C 
ATOM      7  C   LIG    1       -2.539   2.049   0.816  0.00  0.00    +0.280 C 
ATOM      8  O   LIG    1       -0.120  -0.091   2.313  0.00  0.00    -0.530 OA
ENDROOT
BRANCH   1  13
ATOM      9  C   LIG    1       -2.636   0.778   5.599  0.00  0.00    +0.210 A 
ATOM     10  C   LIG    1       -3.094   2.089   5.652  0.00  0.00    -0.050 A 
ATOM     11  C   LIG    1       -2.878   2.946   4.589  0.00  0.00    +0.050 A 
ATOM     12  C   LIG    1       -2.202   2.506   3.469  0.00  0.00    -0.030 A 
ATOM     13  C   LIG    1       -1.743   1.190   3.403  0.00  0.00    -0.080 A 
ATOM     14  C   LIG    1       -1.960   0.325   4.475  0.00  0.00    -0.010 A 
BRANCH   9  16
ATOM     15  C   LIG    1       -2.485  -1.497   6.571  0.00  0.00    +0.290 C 
ATOM     16  N   LIG    1       -2.855  -0.084   6.676  0.00  0.00    -0.640 N 
ATOM     17  C   LIG    1       -3.456   0.426   7.911  0.00  0.00    +0.280 C 
ENDBRANCH   9  16
ENDBRANCH   1  13
BRANCH   5  18
ATOM     18  C   LIG    1       -3.570   0.653  -2.597  0.00  0.00    +0.400 C 
ATOM     19  O   LIG    1       -3.706  -0.547  -2.707  0.00  0.00    -0.420 OA
BRANCH  18  20
ATOM     20  C   LIG    1       -4.292   1.561  -3.501  0.00  0.00    -0.180 A 
ATOM     21  C   LIG    1       -4.141   2.946  -3.374  0.00  0.00    +0.080 A 
ATOM     22  C   LIG    1       -4.819   3.791  -4.229  0.00  0.00    +0.080 A 
ATOM     23  C   LIG    1       -5.655   3.271  -5.206  0.00  0.00    +0.060 A 
ATOM     24  C   LIG    1       -5.814   1.904  -5.335  0.00  0.00    +0.020 A 
ATOM     25  F   LIG    1       -4.671   5.129  -4.111  0.00  0.00    -0.130 F 
ATOM     26  C   LIG    1       -5.139   1.044  -4.490  0.00  0.00    +0.150 A 
ATOM     27  F   LIG    1       -5.295  -0.292  -4.617  0.00  0.00    -0.110 F 
ENDBRANCH  18  20
ENDBRANCH   5  18
TORSDOF 4
