REMARK  Name = ZINCrg000000sFn3.0
REMARK                            x       y       z     vdW  Elec       q    Type
REMARK                         _______ _______ _______ _____ _____    ______ ____
ROOT
ATOM      1  C   LIG    1        1.237   4.292   2.121  0.00  0.00    +0.520 C 
ATOM      2  N   LIG    1        0.812   4.051   0.865  0.00  0.00    -0.610 N 
ATOM      3  C   LIG    1       -0.487   4.528   0.420  0.00  0.00    +0.280 C 
ATOM      4  C   LIG    1       -1.067   3.534  -0.598  0.00  0.00    +0.030 C 
ATOM      5  C   LIG    1       -1.258   2.169   0.058  0.00  0.00    +0.280 C 
ATOM      6  N   LIG    1       -0.017   1.380   0.010  0.00  0.00    -0.480 N 
ATOM      7  C   LIG    1        1.275   1.844  -0.000  0.00  0.00    +0.050 A 
ATOM      8  C   LIG    1        2.140   0.818   0.031  0.00  0.00    -0.030 A 
ATOM      9  C   LIG    1        1.346  -0.411   0.036  0.00  0.00    -0.110 A 
ATOM     10  C   LIG    1        1.662  -1.772   0.057  0.00  0.00    +0.050 A 
ATOM     11  C   LIG    1        0.659  -2.700   0.035  0.00  0.00    -0.030 A 
ATOM     12  C   LIG    1       -0.670  -2.302  -0.008  0.00  0.00    +0.020 A 
ATOM     13  C   LIG    1       -1.003  -0.965  -0.025  0.00  0.00    -0.010 A 
ATOM     14  C   LIG    1        0.002  -0.004   0.002  0.00  0.00    +0.100 A 
ATOM     15  C   LIG    1        1.654   3.303  -0.075  0.00  0.00    +0.380 C 
ATOM     16  O   LIG    1        0.533   4.911   2.890  0.00  0.00    -0.520 OA
ENDROOT
BRANCH   1  17
ATOM     17  C   LIG    1        2.586   3.792   2.570  0.00  0.00    +0.320 C 
BRANCH  17  18
ATOM     18  N   LIG    1        2.811   4.180   3.964  0.00  0.00    -1.110 NA
ATOM     19  H   LIG    1        2.251   4.856   4.377  0.00  0.00    +0.430 HD
BRANCH  18  20
ATOM     20  S   LIG    1        4.023   3.464   4.837  0.00  0.00    +2.730 S 
ATOM     21  O   LIG    1        3.888   2.064   4.638  0.00  0.00    -0.950 OA
ATOM     22  O   LIG    1        4.005   4.072   6.121  0.00  0.00    -0.960 OA
BRANCH  20  26
ATOM     23  C   LIG    1        8.450   6.014   3.605  0.00  0.00    +0.380 C 
ATOM     24  N   LIG    1        7.380   5.014   3.603  0.00  0.00    -0.360 N 
ATOM     25  C   LIG    1        6.290   5.017   4.399  0.00  0.00    +0.370 A 
ATOM     26  C   LIG    1        5.549   3.928   4.088  0.00  0.00    -0.820 A 
ATOM     27  C   LIG    1        6.212   3.233   3.071  0.00  0.00    +0.330 A 
ATOM     28  N   LIG    1        7.306   3.886   2.776  0.00  0.00    -0.290 NA
ENDBRANCH  20  26
ENDBRANCH  18  20
ENDBRANCH  17  18
ENDBRANCH   1  17
TORSDOF 4
