REMARK  Name = ZINCrH000004joFA.0
REMARK                            x       y       z     vdW  Elec       q    Type
REMARK                         _______ _______ _______ _____ _____    ______ ____
ROOT
ATOM      1  C   LIG    1        0.378   5.160  -2.713  0.00  0.00    +0.000 C 
ATOM      2  C   LIG    1        0.807   4.581  -4.063  0.00  0.00    +0.090 C 
ENDROOT
BRANCH   1   3
ATOM      3  C   LIG    1        1.228   6.362  -2.389  0.00  0.00    +0.420 C 
ATOM      4  O   LIG    1        2.215   6.237  -1.695  0.00  0.00    -0.430 OA
BRANCH   3   5
ATOM      5  C   LIG    1        0.861   7.682  -2.913  0.00  0.00    -0.180 A 
ATOM      6  C   LIG    1       -0.276   7.827  -3.720  0.00  0.00    +0.100 A 
ATOM      7  C   LIG    1       -0.615   9.059  -4.203  0.00  0.00    +0.000 A 
ATOM      8  C   LIG    1        0.171  10.168  -3.901  0.00  0.00    +0.180 A 
ATOM      9  C   LIG    1        1.305  10.028  -3.104  0.00  0.00    -0.010 A 
ATOM     10  C   LIG    1        1.649   8.801  -2.613  0.00  0.00    +0.100 A 
BRANCH   8  11
ATOM     11  N   LIG    1       -0.175  11.418  -4.398  0.00  0.00    -1.060 N 
ATOM     12  H   LIG    1       -0.170  12.191  -3.813  0.00  0.00    +0.430 HD
BRANCH  11  13
ATOM     13  S   LIG    1       -0.598  11.588  -5.990  0.00  0.00    +2.610 S 
ATOM     14  O   LIG    1       -0.817  12.983  -6.148  0.00  0.00    -0.950 OA
ATOM     15  O   LIG    1       -1.654  10.655  -6.174  0.00  0.00    -0.940 OA
ATOM     16  C   LIG    1        0.878  11.068  -6.909  0.00  0.00    -0.270 C 
ENDBRANCH  11  13
ENDBRANCH   8  11
ENDBRANCH   3   5
ENDBRANCH   1   3
BRANCH   1  17
ATOM     17  S   LIG    1        0.589   3.906  -1.424  0.00  0.00    +0.040 S 
BRANCH  17  26
ATOM     18  N   LIG    1       -0.858   1.532  -1.328  0.00  0.00    -0.470 N 
ATOM     19  C   LIG    1       -1.841   0.887  -2.061  0.00  0.00    +0.060 A 
ATOM     20  C   LIG    1       -2.510  -0.319  -1.918  0.00  0.00    +0.010 A 
ATOM     21  C   LIG    1       -3.469  -0.686  -2.839  0.00  0.00    +0.030 A 
ATOM     22  C   LIG    1       -3.774   0.147  -3.905  0.00  0.00    +0.000 A 
ATOM     23  C   LIG    1       -3.124   1.351  -4.059  0.00  0.00    +0.060 A 
ATOM     24  C   LIG    1       -2.149   1.737  -3.136  0.00  0.00    +0.060 A 
ATOM     25  N   LIG    1       -1.355   2.833  -3.020  0.00  0.00    -0.490 NA
ATOM     26  C   LIG    1       -0.595   2.716  -1.958  0.00  0.00    +0.250 A 
BRANCH  18  28
ATOM     27  C   LIG    1       -1.004   1.512   1.113  0.00  0.00    +0.040 C 
ATOM     28  C   LIG    1       -0.216   1.036  -0.108  0.00  0.00    +0.300 C 
ENDBRANCH  18  28
ENDBRANCH  17  26
ENDBRANCH   1  17
TORSDOF 7
