REMARK  Name = ZINCrH000004soMJ.0
REMARK                            x       y       z     vdW  Elec       q    Type
REMARK                         _______ _______ _______ _____ _____    ______ ____
ROOT
ATOM      1  C   LIG    1        3.745   3.560  -0.522  0.00  0.00    +0.610 C 
ATOM      2  N   LIG    1        3.360   2.665   0.410  0.00  0.00    -0.550 N 
ATOM      3  C   LIG    1        2.037   2.206   0.471  0.00  0.00    +0.100 A 
ATOM      4  C   LIG    1        1.008   3.068   0.815  0.00  0.00    +0.040 A 
ATOM      5  C   LIG    1       -0.287   2.591   0.903  0.00  0.00    +0.010 A 
ATOM      6  C   LIG    1       -0.557   1.259   0.650  0.00  0.00    +0.050 A 
ATOM      7  C   LIG    1        0.464   0.394   0.298  0.00  0.00    -0.020 A 
ATOM      8  C   LIG    1        1.762   0.870   0.198  0.00  0.00    +0.110 A 
ATOM      9  N   LIG    1        2.796   0.009  -0.218  0.00  0.00    -0.490 N 
ATOM     10  C   LIG    1        3.722  -0.271   0.879  0.00  0.00    +0.190 C 
ATOM     11  C   LIG    1        4.821   0.781   0.959  0.00  0.00    +0.040 C 
ATOM     12  C   LIG    1        2.251  -1.236  -0.778  0.00  0.00    +0.220 C 
ATOM     13  C   LIG    1        4.314   2.136   1.399  0.00  0.00    +0.230 C 
ATOM     14  C   LIG    1        5.494   3.101   1.532  0.00  0.00    +0.050 C 
ATOM     15  O   LIG    1        4.869   4.026  -0.489  0.00  0.00    -0.500 OA
ENDROOT
BRANCH   1  18
ATOM     16  C   LIG    1        4.276   5.790  -2.544  0.00  0.00    +0.180 C 
ATOM     17  C   LIG    1        3.016   4.964  -2.496  0.00  0.00    +0.150 A 
ATOM     18  C   LIG    1        2.809   3.971  -1.575  0.00  0.00    -0.320 A 
ATOM     19  S   LIG    1        1.223   3.272  -1.887  0.00  0.00    +0.310 S 
ATOM     20  C   LIG    1        0.986   4.357  -3.185  0.00  0.00    +0.050 A 
ATOM     21  N   LIG    1        2.023   5.132  -3.327  0.00  0.00    -0.440 NA
BRANCH  20  22
ATOM     22  C   LIG    1       -0.225   4.406  -4.034  0.00  0.00    +0.380 A 
ATOM     23  N   LIG    1       -1.218   3.559  -3.795  0.00  0.00    -0.510 NA
ATOM     24  C   LIG    1       -2.315   3.579  -4.531  0.00  0.00    +0.330 A 
ATOM     25  C   LIG    1       -2.416   4.494  -5.570  0.00  0.00    -0.060 A 
ATOM     26  C   LIG    1       -1.357   5.362  -5.795  0.00  0.00    +0.330 A 
ATOM     27  N   LIG    1       -0.290   5.292  -5.019  0.00  0.00    -0.480 NA
ENDBRANCH  20  22
ENDBRANCH   1  18
TORSDOF 2
