REMARK  Name = ZINCpk00000xI6rm.0
REMARK                            x       y       z     vdW  Elec       q    Type
REMARK                         _______ _______ _______ _____ _____    ______ ____
ROOT
ATOM      1  N   LIG    1        2.410   1.044  -0.015  0.00  0.00    -0.510 NA
ATOM      2  C   LIG    1        2.515   0.320   1.270  0.00  0.00    +0.180 C 
ATOM      3  C   LIG    1        4.035   0.101   1.477  0.00  0.00    +0.030 C 
ATOM      4  C   LIG    1        4.621   1.424   0.917  0.00  0.00    -0.040 C 
ATOM      5  C   LIG    1        3.680   1.749  -0.263  0.00  0.00    +0.190 C 
ENDROOT
BRANCH   1   6
ATOM      6  C   LIG    1        1.280   1.983   0.001  0.00  0.00    +0.220 C 
BRANCH   6   7
ATOM      7  C   LIG    1       -0.014   1.212   0.009  0.00  0.00    +0.500 C 
ATOM      8  O   LIG    1        0.002  -0.004   0.002  0.00  0.00    -0.550 OA
BRANCH   7  15
ATOM      9  N   LIG    1       -3.584   1.712   0.028  0.00  0.00    -0.380 N 
ATOM     10  N   LIG    1       -4.489   0.641   0.027  0.00  0.00    -0.490 N 
ATOM     11  H   LIG    1       -5.456   0.714   0.032  0.00  0.00    +0.450 HD
ATOM     12  C   LIG    1       -3.775  -0.521   0.017  0.00  0.00    +0.350 A 
ATOM     13  C   LIG    1       -2.457  -0.225   0.006  0.00  0.00    -0.110 A 
ATOM     14  C   LIG    1       -2.320   1.178   0.019  0.00  0.00    +0.480 A 
ATOM     15  N   LIG    1       -1.174   1.861   0.018  0.00  0.00    -0.680 NA
BRANCH   9  16
ATOM     16  C   LIG    1       -3.926   3.136   0.038  0.00  0.00    +0.340 C 
BRANCH  16  18
ATOM     17  C   LIG    1       -4.409   5.128  -1.392  0.00  0.00    +0.030 C 
ATOM     18  C   LIG    1       -4.052   3.640  -1.401  0.00  0.00    -0.000 C 
ENDBRANCH  16  18
ENDBRANCH   9  16
ENDBRANCH   7  15
ENDBRANCH   6   7
ENDBRANCH   1   6
BRANCH   4  19
ATOM     19  C   LIG    1        6.054   1.214   0.423  0.00  0.00    +0.270 C 
BRANCH  19  20
ATOM     20  N   LIG    1        6.943   1.026   1.573  0.00  0.00    -0.720 N 
ATOM     21  H   LIG    1        6.583   1.048   2.473  0.00  0.00    +0.400 HD
BRANCH  20  22
ATOM     22  C   LIG    1        8.303   0.817   1.372  0.00  0.00    +0.400 A 
ATOM     23  C   LIG    1        8.812   0.781   0.078  0.00  0.00    -0.110 A 
ATOM     24  C   LIG    1       10.167   0.576  -0.106  0.00  0.00    +0.100 A 
ATOM     25  C   LIG    1       10.970   0.403   1.013  0.00  0.00    -0.110 A 
ATOM     26  C   LIG    1       10.397   0.445   2.269  0.00  0.00    +0.300 A 
ATOM     27  N   LIG    1        9.101   0.647   2.415  0.00  0.00    -0.550 NA
ENDBRANCH  20  22
ENDBRANCH  19  20
ENDBRANCH   4  19
TORSDOF 8
