REMARK  Name = ZINCrH00000tj15M.0
REMARK                            x       y       z     vdW  Elec       q    Type
REMARK                         _______ _______ _______ _____ _____    ______ ____
ROOT
ATOM      1  O   LIG    1       -1.077   1.937   0.018  0.00  0.00    -0.570 OA
ATOM      2  C   LIG    1       -0.016   1.344   0.009  0.00  0.00    +0.720 C 
ATOM      3  N   LIG    1        0.002  -0.004   0.002  0.00  0.00    -0.530 N 
ATOM      4  H   LIG    1       -0.831  -0.500   0.007  0.00  0.00    +0.430 HD
ATOM      5  N   LIG    1        1.142   2.033   0.002  0.00  0.00    -0.740 N 
ATOM      6  H   LIG    1        1.988   1.560  -0.009  0.00  0.00    +0.390 HD
ENDROOT
BRANCH   3   7
ATOM      7  N   LIG    1        1.225  -0.688  -0.013  0.00  0.00    -0.550 N 
ATOM      8  H   LIG    1        2.058  -0.192  -0.019  0.00  0.00    +0.420 HD
BRANCH   7   9
ATOM      9  C   LIG    1        1.244  -2.087  -0.021  0.00  0.00    +0.200 A 
ATOM     10  C   LIG    1        0.051  -2.798  -0.008  0.00  0.00    -0.020 A 
ATOM     11  C   LIG    1        0.071  -4.179  -0.020  0.00  0.00    +0.010 A 
ATOM     12  C   LIG    1        1.281  -4.856  -0.035  0.00  0.00    +0.050 A 
ATOM     13  C   LIG    1        2.473  -4.146  -0.043  0.00  0.00    +0.070 A 
ATOM     14  C   LIG    1        2.455  -2.765  -0.036  0.00  0.00    -0.010 A 
BRANCH  12  15
ATOM     15  O   LIG    1        1.300  -6.216  -0.042  0.00  0.00    -0.310 OA
BRANCH  15  16
ATOM     16  C   LIG    1        0.035  -6.882  -0.033  0.00  0.00    +0.600 C 
ATOM     17  F   LIG    1       -0.673  -6.521   1.118  0.00  0.00    -0.170 F 
ATOM     18  F   LIG    1        0.237  -8.266  -0.042  0.00  0.00    -0.130 F 
ATOM     19  F   LIG    1       -0.696  -6.510  -1.167  0.00  0.00    -0.170 F 
ENDBRANCH  15  16
ENDBRANCH  12  15
ENDBRANCH   7   9
ENDBRANCH   3   7
BRANCH   5  20
ATOM     20  C   LIG    1        1.122   3.498   0.010  0.00  0.00    +0.400 C 
BRANCH  20  21
ATOM     21  C   LIG    1        2.536   4.020  -0.001  0.00  0.00    +0.040 A 
ATOM     22  C   LIG    1        3.233   4.383  -1.099  0.00  0.00    +0.130 A 
ATOM     23  N   LIG    1        4.466   4.799  -0.675  0.00  0.00    -0.360 N 
ATOM     24  C   LIG    1        5.561   5.270  -1.341  0.00  0.00    +0.240 A 
ATOM     25  C   LIG    1        6.680   5.613  -0.668  0.00  0.00    -0.060 A 
ATOM     26  C   LIG    1        6.732   5.488   0.731  0.00  0.00    +0.060 A 
ATOM     27  C   LIG    1        5.648   5.020   1.406  0.00  0.00    +0.100 A 
ATOM     28 CL   LIG    1        8.062   6.209  -1.534  0.00  0.00    -0.030 Cl
ATOM     29  C   LIG    1        4.487   4.667   0.689  0.00  0.00    +0.220 A 
ATOM     30  N   LIG    1        3.309   4.194   1.073  0.00  0.00    -0.470 NA
ENDBRANCH  20  21
ENDBRANCH   5  20
TORSDOF 6
