REMARK  Name = ZINCqH0000038KgJ.0
REMARK                            x       y       z     vdW  Elec       q    Type
REMARK                         _______ _______ _______ _____ _____    ______ ____
ROOT
ATOM      1  C   LIG    1        0.498   4.677   1.865  0.00  0.00    -0.000 A 
ATOM      2  C   LIG    1       -0.875   4.852   2.144  0.00  0.00    -0.180 A 
ATOM      3  C   LIG    1       -1.593   5.635   3.073  0.00  0.00    +0.290 A 
ATOM      4  N   LIG    1       -2.866   5.418   2.903  0.00  0.00    -0.230 NA
ATOM      5  N   LIG    1       -3.054   4.494   1.868  0.00  0.00    -0.380 N 
ATOM      6  C   LIG    1       -1.823   4.134   1.387  0.00  0.00    +0.310 A 
ATOM      7  N   LIG    1       -1.424   3.313   0.426  0.00  0.00    -0.480 NA
ATOM      8  C   LIG    1       -0.151   3.129   0.150  0.00  0.00    +0.200 A 
ATOM      9  C   LIG    1        0.847   3.794   0.845  0.00  0.00    -0.030 A 
ENDROOT
BRANCH   1  12
ATOM     10  N   LIG    1        2.836   5.223   2.345  0.00  0.00    -0.640 N 
ATOM     11  H   LIG    1        3.100   4.559   1.689  0.00  0.00    +0.410 HD
ATOM     12  C   LIG    1        1.532   5.407   2.630  0.00  0.00    +0.560 C 
ATOM     13  O   LIG    1        1.205   6.173   3.516  0.00  0.00    -0.500 OA
BRANCH  10  21
ATOM     14  C   LIG    1        2.979   8.333   2.264  0.00  0.00    +0.150 C 
ATOM     15  C   LIG    1        3.910   7.393   2.985  0.00  0.00    +0.100 A 
ATOM     16  N   LIG    1        4.943   7.742   3.708  0.00  0.00    -0.290 NA
ATOM     17  N   LIG    1        5.550   6.580   4.202  0.00  0.00    -0.370 N 
ATOM     18  C   LIG    1        4.837   5.514   3.753  0.00  0.00    +0.090 A 
ATOM     19  C   LIG    1        5.130   4.064   4.039  0.00  0.00    +0.150 C 
ATOM     20  C   LIG    1        6.741   6.524   5.052  0.00  0.00    +0.360 C 
ATOM     21  C   LIG    1        3.814   5.993   3.000  0.00  0.00    -0.010 A 
ENDBRANCH  10  21
ENDBRANCH   1  12
BRANCH   5  22
ATOM     22  C   LIG    1       -4.345   3.998   1.383  0.00  0.00    +0.270 C 
ATOM     23  C   LIG    1       -5.183   5.172   0.873  0.00  0.00    +0.050 C 
ATOM     24  C   LIG    1       -5.086   3.301   2.526  0.00  0.00    +0.050 C 
ENDBRANCH   5  22
BRANCH   8  25
ATOM     25  C   LIG    1        0.231   2.175  -0.952  0.00  0.00    +0.050 C 
ATOM     26  C   LIG    1        1.535   1.464  -0.582  0.00  0.00    +0.040 C 
ATOM     27  C   LIG    1        0.426   2.953  -2.255  0.00  0.00    +0.050 C 
ENDBRANCH   8  25
TORSDOF 4
