REMARK  Name = ZINCrg000000nS4e.0
REMARK                            x       y       z     vdW  Elec       q    Type
REMARK                         _______ _______ _______ _____ _____    ______ ____
ROOT
ATOM      1  N   LIG    1       -0.021  -0.866  -3.582  0.00  0.00    -0.460 N 
ATOM      2  C   LIG    1       -1.199  -1.299  -4.090  0.00  0.00    +0.460 A 
ATOM      3  C   LIG    1       -1.238  -2.165  -5.135  0.00  0.00    -0.150 A 
ATOM      4  C   LIG    1       -0.053  -2.625  -5.708  0.00  0.00    +0.270 A 
ATOM      5  C   LIG    1        1.163  -2.183  -5.191  0.00  0.00    -0.250 A 
ATOM      6  C   LIG    1        1.153  -1.275  -4.101  0.00  0.00    +0.550 A 
ATOM      7  O   LIG    1        2.203  -0.869  -3.633  0.00  0.00    -0.510 OA
ENDROOT
BRANCH   5   8
ATOM      8  C   LIG    1        2.434  -2.646  -5.767  0.00  0.00    +0.590 C 
ATOM      9  O   LIG    1        2.434  -3.501  -6.632  0.00  0.00    -0.540 OA
ATOM     10  N   LIG    1        3.599  -2.123  -5.337  0.00  0.00    -0.840 N 
ATOM     11  H   LIG    1        4.432  -2.373  -5.767  0.00  0.00    +0.400 HD
ATOM     12  H   LIG    1        3.606  -1.496  -4.596  0.00  0.00    +0.410 HD
ENDBRANCH   5   8
BRANCH   3  13
ATOM     13  N   LIG    1       -2.542  -2.620  -5.668  0.00  0.00    +0.050 N 
ATOM     14  O   LIG    1       -2.579  -3.396  -6.606  0.00  0.00    -0.140 OA
ATOM     15  O   LIG    1       -3.578  -2.218  -5.170  0.00  0.00    -0.160 OA
ENDBRANCH   3  13
BRANCH   1  16
ATOM     16  C   LIG    1       -0.023   0.068  -2.453  0.00  0.00    +0.350 C 
BRANCH  16  18
ATOM     17  N   LIG    1       -0.012  -0.052   0.018  0.00  0.00    -0.600 N 
ATOM     18  C   LIG    1       -0.012  -0.706  -1.160  0.00  0.00    +0.500 C 
ATOM     19  O   LIG    1       -0.003  -1.919  -1.180  0.00  0.00    -0.520 OA
BRANCH  17  21
ATOM     20  C   LIG    1        1.416   1.934   0.044  0.00  0.00    +0.020 C 
ATOM     21  C   LIG    1       -0.023   1.413   0.042  0.00  0.00    +0.270 C 
ENDBRANCH  17  21
BRANCH  17  22
ATOM     22  C   LIG    1       -0.001  -0.805   1.274  0.00  0.00    +0.360 C 
BRANCH  22  23
ATOM     23  C   LIG    1       -1.418  -1.073   1.711  0.00  0.00    -0.090 A 
ATOM     24  C   LIG    1       -2.071  -0.173   2.531  0.00  0.00    +0.010 A 
ATOM     25  C   LIG    1       -3.372  -0.416   2.929  0.00  0.00    +0.050 A 
ATOM     26  C   LIG    1       -4.019  -1.565   2.515  0.00  0.00    -0.010 A 
ATOM     27  C   LIG    1       -3.364  -2.471   1.698  0.00  0.00    +0.100 A 
ATOM     28  F   LIG    1       -3.995  -3.594   1.292  0.00  0.00    -0.140 F 
ATOM     29  C   LIG    1       -2.062  -2.224   1.296  0.00  0.00    +0.010 A 
ENDBRANCH  22  23
ENDBRANCH  17  22
ENDBRANCH  16  18
ENDBRANCH   1  16
TORSDOF 7
