REMARK  Name = ZINCkj000005lXOm.0
REMARK                            x       y       z     vdW  Elec       q    Type
REMARK                         _______ _______ _______ _____ _____    ______ ____
ROOT
ATOM      1  O   LIG    1       -0.160   2.338   2.002  0.00  0.00    -0.460 OA
ATOM      2  C   LIG    1       -0.719   1.571   1.247  0.00  0.00    +0.520 C 
ATOM      3  N   LIG    1       -1.970   1.148   1.520  0.00  0.00    -0.660 N 
ATOM      4  H   LIG    1       -2.442   0.589   0.884  0.00  0.00    +0.410 HD
ENDROOT
BRANCH   2   5
ATOM      5  C   LIG    1       -0.015   1.091   0.004  0.00  0.00    +0.170 C 
ATOM      6  C   LIG    1       -0.751   1.610  -1.234  0.00  0.00    +0.260 C 
ATOM      7  N   LIG    1       -0.030   1.188  -2.442  0.00  0.00    -0.500 N 
ATOM      8  C   LIG    1        1.333   1.737  -2.415  0.00  0.00    +0.250 C 
ATOM      9  C   LIG    1        2.065   1.218  -1.175  0.00  0.00    +0.270 C 
ATOM     10  H   LIG    1        0.014   0.180  -2.473  0.00  0.00    +0.430 HD
ATOM     11  H   LIG    1       -0.514   1.529  -3.259  0.00  0.00    +0.440 HD
ATOM     12  O   LIG    1        1.327   1.583  -0.005  0.00  0.00    -0.330 OA
ENDBRANCH   2   5
BRANCH   3  13
ATOM     13  C   LIG    1       -2.587   1.517   2.722  0.00  0.00    +0.130 A 
ATOM     14  C   LIG    1       -3.444   0.632   3.362  0.00  0.00    +0.040 A 
ATOM     15  C   LIG    1       -4.048   0.993   4.551  0.00  0.00    +0.010 A 
ATOM     16  C   LIG    1       -3.810   2.243   5.099  0.00  0.00    +0.070 A 
ATOM     17  C   LIG    1       -2.958   3.133   4.457  0.00  0.00    +0.110 A 
ATOM     18  F   LIG    1       -2.725   4.351   4.991  0.00  0.00    -0.120 F 
ATOM     19  C   LIG    1       -2.348   2.770   3.270  0.00  0.00    +0.040 A 
BRANCH  16  20
ATOM     20  O   LIG    1       -4.410   2.600   6.266  0.00  0.00    -0.310 OA
BRANCH  20  21
ATOM     21  C   LIG    1       -5.274   1.636   6.872  0.00  0.00    +0.600 C 
ATOM     22  F   LIG    1       -4.548   0.476   7.162  0.00  0.00    -0.190 F 
ATOM     23  F   LIG    1       -6.317   1.327   5.993  0.00  0.00    -0.200 F 
ENDBRANCH  20  21
ENDBRANCH  16  20
ENDBRANCH   3  13
TORSDOF 4
