REMARK  Name = ZINCqH0000063MY4.0
REMARK                            x       y       z     vdW  Elec       q    Type
REMARK                         _______ _______ _______ _____ _____    ______ ____
ROOT
ATOM      1  C   LIG    1       -5.862   0.669   5.563  0.00  0.00    +0.250 C 
ATOM      2  C   LIG    1       -5.162  -0.034   6.740  0.00  0.00    +0.030 C 
ATOM      3  C   LIG    1       -6.535  -0.081   7.414  0.00  0.00    -0.100 C 
ATOM      4  C   LIG    1       -6.899  -1.199   8.392  0.00  0.00    +0.030 C 
ATOM      5  C   LIG    1       -6.604  -0.192   9.518  0.00  0.00    +0.220 C 
ATOM      6  C   LIG    1       -6.915   0.923   8.503  0.00  0.00    +0.060 C 
ATOM      7  C   LIG    1       -7.164  -0.013   6.022  0.00  0.00    +0.040 C 
ENDROOT
BRANCH   1   9
ATOM      8  C   LIG    1       -4.592   1.008   3.511  0.00  0.00    +0.540 C 
ATOM      9  N   LIG    1       -5.396   0.217   4.249  0.00  0.00    -0.710 N 
ATOM     10  H   LIG    1       -5.665  -0.651   3.911  0.00  0.00    +0.400 HD
ATOM     11  O   LIG    1       -4.255   2.094   3.934  0.00  0.00    -0.520 OA
BRANCH   8  12
ATOM     12  C   LIG    1       -4.112   0.544   2.160  0.00  0.00    +0.010 C 
BRANCH  12  14
ATOM     13  C   LIG    1       -1.748   0.443   2.961  0.00  0.00    +0.020 C 
ATOM     14  C   LIG    1       -2.690   1.053   1.921  0.00  0.00    +0.050 C 
ENDBRANCH  12  14
BRANCH  12  15
ATOM     15  S   LIG    1       -5.212   1.193   0.872  0.00  0.00    -0.220 S 
ATOM     16  C   LIG    1       -4.619   0.362  -0.628  0.00  0.00    +0.140 C 
ENDBRANCH  12  15
ENDBRANCH   8  12
ENDBRANCH   1   9
BRANCH   5  17
ATOM     17  N   LIG    1       -5.209  -0.205   9.966  0.00  0.00    -0.710 N 
ATOM     18  H   LIG    1       -4.515   0.170   9.401  0.00  0.00    +0.400 HD
ATOM     19  C   LIG    1       -4.890  -0.738  11.162  0.00  0.00    +0.560 C 
ATOM     20  O   LIG    1       -5.758  -1.207  11.868  0.00  0.00    -0.530 OA
BRANCH  19  21
ATOM     21  C   LIG    1       -3.455  -0.751  11.623  0.00  0.00    -0.160 C 
ATOM     22  C   LIG    1       -2.755  -2.108  11.712  0.00  0.00    -0.090 C 
ATOM     23  C   LIG    1       -1.265  -2.158  11.365  0.00  0.00    +0.070 C 
ATOM     24  C   LIG    1       -3.564  -3.348  11.326  0.00  0.00    +0.070 C 
ATOM     25  C   LIG    1       -2.613   0.452  11.194  0.00  0.00    +0.080 C 
ATOM     26  C   LIG    1       -3.158  -1.370  12.990  0.00  0.00    -0.080 C 
ATOM     27  C   LIG    1       -4.340  -1.928  13.785  0.00  0.00    +0.080 C 
ATOM     28  C   LIG    1       -2.041  -0.739  13.823  0.00  0.00    +0.080 C 
ENDBRANCH  19  21
ENDBRANCH   5  17
TORSDOF 6
