REMARK  Name = ZINCkj00000NFfgI.0
REMARK                            x       y       z     vdW  Elec       q    Type
REMARK                         _______ _______ _______ _____ _____    ______ ____
ROOT
ATOM      1  C   LIG    1        0.002  -0.004   0.002  0.00  0.00    +0.620 C 
ATOM      2  N   LIG    1        0.000  -0.672  -1.169  0.00  0.00    -0.620 N 
ATOM      3  C   LIG    1       -0.028   0.050  -2.451  0.00  0.00    +0.310 C 
ATOM      4  C   LIG    1        1.097  -0.504  -3.339  0.00  0.00    +0.160 C 
ATOM      5  N   LIG    1        0.949  -1.960  -3.460  0.00  0.00    -0.500 N 
ATOM      6  C   LIG    1        1.137  -2.592  -2.149  0.00  0.00    +0.180 C 
ATOM      7  C   LIG    1        2.492  -2.179  -1.572  0.00  0.00    +0.100 C 
ATOM      8  H   LIG    1        0.026  -2.174  -3.807  0.00  0.00    +0.430 HD
ATOM      9  H   LIG    1        1.639  -2.314  -4.105  0.00  0.00    +0.430 HD
ATOM     10  C   LIG    1        1.010   0.135  -4.727  0.00  0.00    +0.110 C 
ATOM     11  C   LIG    1        0.020  -2.142  -1.201  0.00  0.00    +0.330 C 
ATOM     12  O   LIG    1        0.020  -0.618   1.052  0.00  0.00    -0.490 OA
ENDROOT
BRANCH   1  17
ATOM     13  C   LIG    1       -1.184   2.373   0.020  0.00  0.00    +0.250 A 
ATOM     14  N   LIG    1       -0.682   3.578   0.026  0.00  0.00    -0.380 NA
ATOM     15  O   LIG    1        0.524   3.569   0.015  0.00  0.00    +0.110 OA
ATOM     16  C   LIG    1        1.044   2.339   0.005  0.00  0.00    +0.080 A 
ATOM     17  C   LIG    1       -0.018   1.468   0.010  0.00  0.00    -0.270 A 
BRANCH  16  18
ATOM     18  C   LIG    1        2.507   1.978  -0.010  0.00  0.00    +0.030 C 
ATOM     19  C   LIG    1        3.516   3.109   0.193  0.00  0.00    +0.080 C 
ATOM     20  C   LIG    1        3.345   2.474  -1.190  0.00  0.00    +0.060 C 
ENDBRANCH  16  18
BRANCH  13  22
ATOM     21  C   LIG    1       -3.447   3.091   0.033  0.00  0.00    +0.290 C 
ATOM     22  O   LIG    1       -2.495   2.026   0.023  0.00  0.00    -0.280 OA
ENDBRANCH  13  22
ENDBRANCH   1  17
TORSDOF 3
