REMARK  Name = ZINCqH0000004R5s.0
REMARK                            x       y       z     vdW  Elec       q    Type
REMARK                         _______ _______ _______ _____ _____    ______ ____
ROOT
ATOM      1  C   LIG    1       -2.482   0.853   0.018  0.00  0.00    +0.040 C 
ENDROOT
BRANCH   1   2
ATOM      2  C   LIG    1       -1.187   1.624   0.017  0.00  0.00    +0.520 C 
ATOM      3  N   LIG    1       -0.011   0.966   0.007  0.00  0.00    -0.730 N 
ATOM      4  H   LIG    1        0.002  -0.004   0.002  0.00  0.00    +0.400 HD
ATOM      5  O   LIG    1       -1.204   2.837   0.023  0.00  0.00    -0.530 OA
BRANCH   3   6
ATOM      6  C   LIG    1        1.248   1.716  -0.001  0.00  0.00    +0.280 C 
ATOM      7  C   LIG    1        1.635   2.077   1.435  0.00  0.00    +0.040 C 
BRANCH   6   8
ATOM      8  C   LIG    1        2.332   0.870  -0.616  0.00  0.00    -0.090 A 
ATOM      9  C   LIG    1        2.404  -0.480  -0.326  0.00  0.00    +0.030 A 
ATOM     10  C   LIG    1        3.395  -1.258  -0.894  0.00  0.00    +0.030 A 
ATOM     11  C   LIG    1        4.323  -0.683  -1.745  0.00  0.00    -0.030 A 
ATOM     12  C   LIG    1        4.254   0.669  -2.030  0.00  0.00    +0.040 A 
ATOM     13 CL   LIG    1        5.573  -1.657  -2.453  0.00  0.00    -0.070 Cl
ATOM     14  C   LIG    1        3.259   1.445  -1.466  0.00  0.00    +0.050 A 
ENDBRANCH   6   8
ENDBRANCH   3   6
ENDBRANCH   1   2
BRANCH   1  15
ATOM     15  C   LIG    1       -3.658   1.831   0.029  0.00  0.00    +0.350 C 
BRANCH  15  18
ATOM     16  N   LIG    1       -6.702   0.013   0.752  0.00  0.00    -0.540 N 
ATOM     17  C   LIG    1       -5.589   0.673   1.124  0.00  0.00    +0.680 A 
ATOM     18  N   LIG    1       -4.917   1.081   0.031  0.00  0.00    -0.540 N 
ATOM     19  C   LIG    1       -5.625   0.675  -1.097  0.00  0.00    +0.090 A 
ATOM     20  C   LIG    1       -5.411   0.822  -2.459  0.00  0.00    +0.030 A 
ATOM     21  C   LIG    1       -6.318   0.294  -3.358  0.00  0.00    +0.020 A 
ATOM     22  C   LIG    1       -7.439  -0.379  -2.905  0.00  0.00    +0.020 A 
ATOM     23  C   LIG    1       -7.656  -0.538  -1.550  0.00  0.00    +0.020 A 
ATOM     24  O   LIG    1       -5.243   0.869   2.274  0.00  0.00    -0.550 OA
ATOM     25  C   LIG    1       -6.755  -0.008  -0.640  0.00  0.00    +0.090 A 
BRANCH  16  27
ATOM     26  C   LIG    1       -8.771   0.451   1.980  0.00  0.00    +0.030 C 
ATOM     27  C   LIG    1       -7.689  -0.582   1.656  0.00  0.00    +0.310 C 
ENDBRANCH  16  27
ENDBRANCH  15  18
ENDBRANCH   1  15
TORSDOF 6
