REMARK  Name = ZINCqH00000506o1.0
REMARK                            x       y       z     vdW  Elec       q    Type
REMARK                         _______ _______ _______ _____ _____    ______ ____
ROOT
ATOM      1  C   LIG    1        6.351  -1.722   0.899  0.00  0.00    +0.520 C 
ATOM      2  O   LIG    1        5.423  -2.494   0.836  0.00  0.00    -0.480 OA
ENDROOT
BRANCH   1   3
ATOM      3  C   LIG    1        7.744  -2.188   0.562  0.00  0.00    -0.660 C 
ATOM      4  C   LIG    1        7.964  -3.693   0.395  0.00  0.00    +0.170 C 
ATOM      5  C   LIG    1        8.504  -2.973   1.633  0.00  0.00    +0.170 C 
BRANCH   3   6
ATOM      6  S   LIG    1        8.704  -1.078  -0.503  0.00  0.00    +2.540 S 
ATOM      7  O   LIG    1        9.900  -1.712  -0.934  0.00  0.00    -0.910 OA
ATOM      8  O   LIG    1        8.725   0.237   0.037  0.00  0.00    -0.890 OA
BRANCH   6   9
ATOM      9  C   LIG    1        7.738  -0.930  -1.969  0.00  0.00    -0.660 A 
ATOM     10  C   LIG    1        7.871  -1.862  -2.981  0.00  0.00    +0.150 A 
ATOM     11  C   LIG    1        7.109  -1.750  -4.129  0.00  0.00    +0.020 A 
ATOM     12  C   LIG    1        6.221  -0.698  -4.269  0.00  0.00    +0.020 A 
ATOM     13  C   LIG    1        6.093   0.238  -3.259  0.00  0.00    +0.020 A 
ATOM     14 CL   LIG    1        5.269  -0.553  -5.713  0.00  0.00    -0.050 Cl
ATOM     15  C   LIG    1        6.851   0.121  -2.109  0.00  0.00    +0.150 A 
ENDBRANCH   6   9
ENDBRANCH   3   6
ENDBRANCH   1   3
BRANCH   1  16
ATOM     16  O   LIG    1        6.141  -0.449   1.270  0.00  0.00    -0.320 OA
BRANCH  16  17
ATOM     17  C   LIG    1        4.794  -0.096   1.683  0.00  0.00    +0.240 C 
BRANCH  17  18
ATOM     18  C   LIG    1        4.775   1.329   2.173  0.00  0.00    +0.410 C 
ATOM     19  O   LIG    1        5.775   2.011   2.091  0.00  0.00    -0.420 OA
BRANCH  18  23
ATOM     20  C   LIG    1       -0.099   1.399   3.526  0.00  0.00    +0.150 C 
ATOM     21  C   LIG    1        1.317   1.884   3.352  0.00  0.00    -0.200 A 
ATOM     22  C   LIG    1        2.290   1.183   2.783  0.00  0.00    +0.040 A 
ATOM     23  C   LIG    1        3.552   1.889   2.748  0.00  0.00    -0.200 A 
ATOM     24  C   LIG    1        3.482   3.132   3.307  0.00  0.00    -0.130 A 
ATOM     25  C   LIG    1        4.640   4.091   3.409  0.00  0.00    +0.160 C 
ATOM     26  S   LIG    1        1.907   3.452   3.873  0.00  0.00    +0.200 S 
ENDBRANCH  18  23
ENDBRANCH  17  18
ENDBRANCH  16  17
ENDBRANCH   1  16
TORSDOF 7
