REMARK  Name = ZINCqH0000004U0n.0
REMARK                            x       y       z     vdW  Elec       q    Type
REMARK                         _______ _______ _______ _____ _____    ______ ____
ROOT
ATOM      1  C   LIG    1        0.006  -0.023  -0.010  0.00  0.00    +0.340 C 
ATOM      2  C   LIG    1        0.765  -0.141   1.316  0.00  0.00    +0.040 C 
ATOM      3  C   LIG    1        2.121   0.555   1.185  0.00  0.00    +0.020 C 
ATOM      4  C   LIG    1        1.908   2.040   0.881  0.00  0.00    +0.010 C 
ATOM      5  C   LIG    1        1.162   2.182  -0.450  0.00  0.00    +0.260 C 
ATOM      6  N   LIG    1       -0.077   1.395  -0.383  0.00  0.00    -0.620 N 
ATOM      7  C   LIG    1       -1.267   1.963  -0.665  0.00  0.00    +0.710 C 
ATOM      8  N   LIG    1       -1.338   3.283  -0.929  0.00  0.00    -0.750 N 
ATOM      9  H   LIG    1       -0.526   3.809  -0.990  0.00  0.00    +0.390 HD
ATOM     10  O   LIG    1       -2.276   1.284  -0.681  0.00  0.00    -0.550 OA
ENDROOT
BRANCH   1  15
ATOM     11  N   LIG    1       -1.890  -1.638  -0.525  0.00  0.00    -0.450 N 
ATOM     12  C   LIG    1       -3.173  -1.823  -0.085  0.00  0.00    +0.110 A 
ATOM     13  C   LIG    1       -3.406  -0.877   0.845  0.00  0.00    +0.150 A 
ATOM     14  N   LIG    1       -2.294  -0.138   0.973  0.00  0.00    -0.450 NA
ATOM     15  C   LIG    1       -1.383  -0.585   0.152  0.00  0.00    +0.230 A 
BRANCH  11  17
ATOM     16  C   LIG    1       -0.373  -3.528  -0.856  0.00  0.00    +0.030 C 
ATOM     17  C   LIG    1       -1.196  -2.435  -1.540  0.00  0.00    +0.270 C 
ENDBRANCH  11  17
ENDBRANCH   1  15
BRANCH   8  18
ATOM     18  C   LIG    1       -2.642   3.921  -1.124  0.00  0.00    +0.360 C 
BRANCH  18  19
ATOM     19  C   LIG    1       -2.446   5.389  -1.403  0.00  0.00    -0.200 A 
ATOM     20  C   LIG    1       -2.423   6.295  -0.357  0.00  0.00    +0.180 A 
ATOM     21  C   LIG    1       -2.238   7.643  -0.613  0.00  0.00    -0.040 A 
ATOM     22  C   LIG    1       -2.086   8.086  -1.916  0.00  0.00    +0.170 A 
ATOM     23  C   LIG    1       -2.114   7.180  -2.962  0.00  0.00    -0.040 A 
ATOM     24  F   LIG    1       -1.911   9.402  -2.166  0.00  0.00    -0.120 F 
ATOM     25  F   LIG    1       -2.577   5.864   0.914  0.00  0.00    -0.110 F 
ATOM     26  C   LIG    1       -2.294   5.832  -2.706  0.00  0.00    +0.180 A 
ATOM     27  F   LIG    1       -2.322   4.947  -3.727  0.00  0.00    -0.110 F 
ENDBRANCH  18  19
ENDBRANCH   8  18
TORSDOF 4
