REMARK  Name = ZINCqH0000035Nve.0
REMARK                            x       y       z     vdW  Elec       q    Type
REMARK                         _______ _______ _______ _____ _____    ______ ____
ROOT
ATOM      1  C   LIG    1       -2.401  -0.040   0.014  0.00  0.00    +0.130 A 
ATOM      2  C   LIG    1       -1.190  -0.711   0.003  0.00  0.00    -0.080 A 
ATOM      3  C   LIG    1        0.002  -0.004   0.002  0.00  0.00    -0.030 A 
ATOM      4  C   LIG    1       -0.017   1.375   0.010  0.00  0.00    -0.110 A 
ATOM      5  C   LIG    1        1.252   2.186   0.002  0.00  0.00    +0.220 C 
ATOM      6  N   LIG    1        2.395   1.357   0.398  0.00  0.00    -0.510 NA
ATOM      7  C   LIG    1        2.448   0.137  -0.423  0.00  0.00    +0.180 C 
ATOM      8  C   LIG    1       -1.230   2.048   0.019  0.00  0.00    +0.050 A 
ATOM      9  C   LIG    1        1.296  -0.778  -0.006  0.00  0.00    +0.090 C 
ATOM     10  C   LIG    1       -2.418   1.348   0.025  0.00  0.00    -0.120 A 
ATOM     11  C   LIG    1       -3.731   2.087   0.039  0.00  0.00    +0.100 C 
ENDROOT
BRANCH   1  13
ATOM     12  C   LIG    1       -3.472  -2.162   0.005  0.00  0.00    +0.230 C 
ATOM     13  O   LIG    1       -3.568  -0.736   0.015  0.00  0.00    -0.310 OA
ENDBRANCH   1  13
BRANCH   6  14
ATOM     14  C   LIG    1        3.652   2.112   0.301  0.00  0.00    +0.240 C 
BRANCH  14  15
ATOM     15  C   LIG    1        3.658   3.212   1.332  0.00  0.00    -0.070 A 
ATOM     16  C   LIG    1        3.356   4.507   0.962  0.00  0.00    +0.060 A 
ATOM     17  C   LIG    1        3.356   5.516   1.907  0.00  0.00    +0.030 A 
ATOM     18  C   LIG    1        3.670   5.233   3.225  0.00  0.00    -0.010 A 
ATOM     19  C   LIG    1        3.979   3.939   3.600  0.00  0.00    +0.010 A 
ATOM     20 CL   LIG    1        3.676   6.504   4.407  0.00  0.00    -0.050 Cl
ATOM     21  C   LIG    1        3.973   2.924   2.653  0.00  0.00    +0.190 A 
BRANCH  21  22
ATOM     22  N   LIG    1        4.285   1.610   3.030  0.00  0.00    -0.320 N 
ATOM     23  C   LIG    1        4.609   1.179   4.265  0.00  0.00    +0.480 A 
ATOM     24  N   LIG    1        4.828  -0.109   4.200  0.00  0.00    -0.530 NA
ATOM     25  C   LIG    1        4.655  -0.535   2.950  0.00  0.00    +0.420 A 
ATOM     26  N   LIG    1        4.316   0.479   2.198  0.00  0.00    -0.280 NA
ENDBRANCH  21  22
ENDBRANCH  14  15
ENDBRANCH   6  14
TORSDOF 4
