REMARK  Name = ZINCrD00000F5LDT.0
REMARK                            x       y       z     vdW  Elec       q    Type
REMARK                         _______ _______ _______ _____ _____    ______ ____
ROOT
ATOM      1  N   LIG    1        2.370  -2.555   1.325  0.00  0.00    -0.570 N 
ENDROOT
BRANCH   1   2
ATOM      2  C   LIG    1        2.603  -2.442   2.686  0.00  0.00    +0.560 A 
ATOM      3  N   LIG    1        1.785  -1.706   3.423  0.00  0.00    -0.540 NA
ATOM      4  C   LIG    1        1.975  -1.580   4.726  0.00  0.00    +0.350 A 
ATOM      5  C   LIG    1        3.054  -2.223   5.317  0.00  0.00    -0.070 A 
ATOM      6  C   LIG    1        3.894  -2.982   4.514  0.00  0.00    +0.350 A 
ATOM      7  F   LIG    1        3.282  -2.112   6.644  0.00  0.00    -0.130 F 
ATOM      8  N   LIG    1        3.642  -3.069   3.218  0.00  0.00    -0.540 NA
ENDBRANCH   1   2
BRANCH   1   9
ATOM      9  C   LIG    1        1.226  -1.870   0.719  0.00  0.00    +0.300 C 
BRANCH   9  10
ATOM     10  C   LIG    1        0.006  -2.793   0.745  0.00  0.00    +0.060 C 
BRANCH  10  11
ATOM     11  C   LIG    1       -1.155  -2.125   0.005  0.00  0.00    -0.120 C 
ATOM     12  C   LIG    1       -2.574  -2.445   0.481  0.00  0.00    +0.040 C 
ATOM     13  C   LIG    1       -1.963  -1.070   0.764  0.00  0.00    +0.030 C 
BRANCH  11  14
ATOM     14  C   LIG    1       -0.945  -1.909  -1.495  0.00  0.00    +0.200 C 
BRANCH  14  16
ATOM     15  C   LIG    1       -0.618  -3.086  -3.557  0.00  0.00    +0.200 C 
ATOM     16  O   LIG    1       -0.819  -3.175  -2.145  0.00  0.00    -0.380 OA
ENDBRANCH  14  16
ENDBRANCH  11  14
ENDBRANCH  10  11
ENDBRANCH   9  10
ENDBRANCH   1   9
BRANCH   1  17
ATOM     17  C   LIG    1        3.267  -3.360   0.493  0.00  0.00    +0.420 C 
BRANCH  17  18
ATOM     18  C   LIG    1        4.384  -2.492  -0.026  0.00  0.00    +0.080 A 
ATOM     19  N   LIG    1        4.378  -1.820  -1.142  0.00  0.00    -0.240 NA
ATOM     20  N   LIG    1        5.585  -1.128  -1.292  0.00  0.00    -0.410 N 
ATOM     21  C   LIG    1        6.389  -1.391  -0.214  0.00  0.00    +0.120 A 
ATOM     22  C   LIG    1        7.669  -0.987   0.156  0.00  0.00    -0.030 A 
ATOM     23  C   LIG    1        8.212  -1.435   1.327  0.00  0.00    +0.060 A 
ATOM     24  C   LIG    1        7.502  -2.293   2.158  0.00  0.00    -0.040 A 
ATOM     25  C   LIG    1        6.245  -2.705   1.821  0.00  0.00    +0.110 A 
ATOM     26  C   LIG    1        5.934  -0.265  -2.423  0.00  0.00    +0.350 C 
ATOM     27  C   LIG    1        5.668  -2.260   0.628  0.00  0.00    -0.160 A 
ENDBRANCH  17  18
ENDBRANCH   1  17
TORSDOF 8
