REMARK  Name = ZINCrD00000y0NTq.0
REMARK                            x       y       z     vdW  Elec       q    Type
REMARK                         _______ _______ _______ _____ _____    ______ ____
ROOT
ATOM      1  N   LIG    1       -3.768   3.499   0.791  0.00  0.00    -0.490 NA
ATOM      2  C   LIG    1       -4.476   2.400   0.123  0.00  0.00    +0.200 C 
ATOM      3  C   LIG    1       -5.651   1.946   0.992  0.00  0.00    +0.020 C 
ATOM      4  C   LIG    1       -6.600   3.127   1.216  0.00  0.00    +0.180 C 
ATOM      5  C   LIG    1       -5.826   4.276   1.868  0.00  0.00    +0.070 C 
ATOM      6  C   LIG    1       -4.646   4.662   0.975  0.00  0.00    +0.190 C 
ENDROOT
BRANCH   4   7
ATOM      7  C   LIG    1       -7.728   2.702   2.120  0.00  0.00    -0.120 A 
ATOM      8  C   LIG    1       -7.600   2.829   3.490  0.00  0.00    +0.060 A 
ATOM      9  C   LIG    1       -8.636   2.444   4.320  0.00  0.00    -0.010 A 
ATOM     10  C   LIG    1       -9.799   1.922   3.779  0.00  0.00    +0.100 A 
ATOM     11  C   LIG    1       -9.924   1.791   2.406  0.00  0.00    -0.010 A 
ATOM     12  F   LIG    1      -10.810   1.541   4.589  0.00  0.00    -0.140 F 
ATOM     13  C   LIG    1       -8.888   2.181   1.578  0.00  0.00    +0.050 A 
ENDBRANCH   4   7
BRANCH   4  14
ATOM     14  O   LIG    1       -7.129   3.560  -0.039  0.00  0.00    -0.540 OA
ATOM     15  H   LIG    1       -7.632   2.881  -0.509  0.00  0.00    +0.370 HD
ENDBRANCH   4  14
BRANCH   1  16
ATOM     16  C   LIG    1       -2.553   3.868   0.053  0.00  0.00    +0.220 C 
BRANCH  16  17
ATOM     17  C   LIG    1       -1.709   2.640  -0.171  0.00  0.00    -0.060 A 
ATOM     18  C   LIG    1       -1.678   2.040  -1.416  0.00  0.00    +0.060 A 
ATOM     19  C   LIG    1       -0.909   0.910  -1.621  0.00  0.00    +0.010 A 
ATOM     20  C   LIG    1       -0.160   0.385  -0.582  0.00  0.00    +0.110 A 
ATOM     21  C   LIG    1       -0.186   0.990   0.663  0.00  0.00    +0.030 A 
ATOM     22  F   LIG    1        0.596  -0.716  -0.783  0.00  0.00    -0.130 F 
ATOM     23  C   LIG    1       -0.960   2.117   0.868  0.00  0.00    -0.050 A 
ATOM     24  I   LIG    1       -1.000   3.032   2.752  0.00  0.00    -0.000 I 
ENDBRANCH  16  17
BRANCH  16  28
ATOM     25  C   LIG    1       -2.396   5.760  -3.270  0.00  0.00    +0.280 C 
ATOM     26  N   LIG    1       -2.069   5.267  -1.929  0.00  0.00    -0.730 N 
ATOM     27  H   LIG    1       -1.231   5.517  -1.511  0.00  0.00    +0.400 HD
ATOM     28  C   LIG    1       -2.934   4.465  -1.277  0.00  0.00    +0.490 C 
ATOM     29  O   LIG    1       -4.020   4.223  -1.761  0.00  0.00    -0.520 OA
ENDBRANCH  16  28
ENDBRANCH   1  16
TORSDOF 5
