REMARK  Name = ZINCrH000004tsXg.0
REMARK                            x       y       z     vdW  Elec       q    Type
REMARK                         _______ _______ _______ _____ _____    ______ ____
ROOT
ATOM      1  C   LIG    1       -2.645   3.115   4.548  0.00  0.00    -0.140 A 
ATOM      2  C   LIG    1       -2.129   2.878   5.825  0.00  0.00    +0.060 A 
ATOM      3  C   LIG    1       -0.996   2.109   5.979  0.00  0.00    -0.020 A 
ATOM      4  C   LIG    1       -0.367   1.562   4.867  0.00  0.00    +0.100 A 
ATOM      5  C   LIG    1       -0.875   1.801   3.586  0.00  0.00    +0.120 A 
ATOM      6  C   LIG    1       -2.011   2.571   3.428  0.00  0.00    +0.110 A 
ENDROOT
BRANCH   1  10
ATOM      7  N   LIG    1       -4.469   4.462   5.465  0.00  0.00    -0.850 N 
ATOM      8  H   LIG    1       -5.267   5.003   5.357  0.00  0.00    +0.410 HD
ATOM      9  H   LIG    1       -4.111   4.298   6.351  0.00  0.00    +0.400 HD
ATOM     10  C   LIG    1       -3.858   3.938   4.384  0.00  0.00    +0.560 C 
ATOM     11  O   LIG    1       -4.307   4.144   3.273  0.00  0.00    -0.530 OA
ENDBRANCH   1  10
BRANCH   4  12
ATOM     12  N   LIG    1        0.774   0.781   5.027  0.00  0.00    -0.470 N 
ATOM     13  C   LIG    1        1.040   0.516   6.465  0.00  0.00    +0.180 C 
ATOM     14  C   LIG    1        1.956  -0.733   6.431  0.00  0.00    +0.030 C 
ATOM     15  C   LIG    1        1.369  -1.561   5.265  0.00  0.00    +0.020 C 
ATOM     16  C   LIG    1        0.601  -0.546   4.398  0.00  0.00    +0.180 C 
ENDBRANCH   4  12
BRANCH   5  17
ATOM     17  N   LIG    1       -0.236   1.254   2.465  0.00  0.00    -0.660 N 
ATOM     18  H   LIG    1        0.708   1.036   2.503  0.00  0.00    +0.420 HD
ATOM     19  C   LIG    1       -0.934   1.030   1.334  0.00  0.00    +0.510 C 
ATOM     20  O   LIG    1       -2.134   1.207   1.317  0.00  0.00    -0.480 OA
BRANCH  19  21
ATOM     21  C   LIG    1       -0.224   0.560   0.091  0.00  0.00    +0.240 C 
BRANCH  21  22
ATOM     22  O   LIG    1       -1.172   0.397  -0.966  0.00  0.00    -0.270 OA
BRANCH  22  23
ATOM     23  C   LIG    1       -0.691  -0.026  -2.166  0.00  0.00    +0.140 A 
ATOM     24  C   LIG    1        0.664  -0.271  -2.324  0.00  0.00    -0.040 A 
ATOM     25  C   LIG    1        1.150  -0.706  -3.542  0.00  0.00    +0.090 A 
ATOM     26  C   LIG    1        0.287  -0.884  -4.608  0.00  0.00    -0.060 A 
ATOM     27  C   LIG    1       -1.066  -0.635  -4.455  0.00  0.00    +0.090 A 
ATOM     28 CL   LIG    1        0.901  -1.423  -6.140  0.00  0.00    -0.050 Cl
ATOM     29  C   LIG    1       -1.557  -0.206  -3.237  0.00  0.00    -0.060 A 
ATOM     30 CL   LIG    1       -3.253   0.107  -3.045  0.00  0.00    -0.030 Cl
ENDBRANCH  22  23
ENDBRANCH  21  22
ENDBRANCH  19  21
ENDBRANCH   5  17
TORSDOF 6
