REMARK  Name = ZINCpk00000xI7lE.0
REMARK                            x       y       z     vdW  Elec       q    Type
REMARK                         _______ _______ _______ _____ _____    ______ ____
ROOT
ATOM      1  N   LIG    1       -1.083   1.619   4.793  0.00  0.00    -1.120 NA
ATOM      2  H   LIG    1       -0.671   1.716   5.665  0.00  0.00    +0.420 HD
ENDROOT
BRANCH   1   3
ATOM      3  S   LIG    1       -0.538   0.457   3.745  0.00  0.00    +2.780 S 
ATOM      4  O   LIG    1        0.543  -0.195   4.397  0.00  0.00    -0.970 OA
ATOM      5  O   LIG    1       -1.690  -0.230   3.274  0.00  0.00    -0.970 OA
BRANCH   3   9
ATOM      6  C   LIG    1       -0.755   1.594  -1.230  0.00  0.00    +0.070 C 
ATOM      7  C   LIG    1       -0.013   1.086   0.008  0.00  0.00    +0.140 C 
ATOM      8  C   LIG    1       -0.725   1.581   1.272  0.00  0.00    +0.270 C 
ATOM      9  N   LIG    1        0.107   1.240   2.437  0.00  0.00    -1.010 NA
ATOM     10  C   LIG    1        1.530   1.616   2.405  0.00  0.00    +0.270 C 
ATOM     11  C   LIG    1        2.132   1.119   1.086  0.00  0.00    +0.200 C 
ATOM     12  C   LIG    1        2.164  -0.411   1.082  0.00  0.00    +0.010 C 
ATOM     13  O   LIG    1        1.328   1.582  -0.002  0.00  0.00    -0.370 OA
ENDBRANCH   3   9
ENDBRANCH   1   3
BRANCH   1  14
ATOM     14  C   LIG    1       -2.187   2.499   4.401  0.00  0.00    +0.340 C 
BRANCH  14  15
ATOM     15  C   LIG    1       -2.730   3.196   5.621  0.00  0.00    -0.020 A 
ATOM     16  C   LIG    1       -2.214   4.419   6.028  0.00  0.00    -0.050 A 
ATOM     17  C   LIG    1       -2.735   5.032   7.151  0.00  0.00    +0.310 A 
ATOM     18  N   LIG    1       -3.713   4.470   7.835  0.00  0.00    -0.540 NA
ATOM     19  C   LIG    1       -4.231   3.306   7.479  0.00  0.00    +0.320 A 
ATOM     20  C   LIG    1       -3.759   2.636   6.358  0.00  0.00    -0.010 A 
BRANCH  19  21
ATOM     21  O   LIG    1       -5.236   2.764   8.212  0.00  0.00    -0.290 OA
BRANCH  21  22
ATOM     22  C   LIG    1       -5.680   3.505   9.351  0.00  0.00    +0.260 C 
BRANCH  22  23
ATOM     23  C   LIG    1       -6.809   2.743  10.046  0.00  0.00    +0.460 C 
ATOM     24  F   LIG    1       -7.874   2.572   9.156  0.00  0.00    -0.170 F 
ATOM     25  F   LIG    1       -7.244   3.468  11.161  0.00  0.00    -0.170 F 
ATOM     26  F   LIG    1       -6.340   1.490  10.459  0.00  0.00    -0.170 F 
ENDBRANCH  22  23
ENDBRANCH  21  22
ENDBRANCH  19  21
ENDBRANCH  14  15
ENDBRANCH   1  14
TORSDOF 7
