REMARK  Name = ZINCpk00000y6yux.0
REMARK                            x       y       z     vdW  Elec       q    Type
REMARK                         _______ _______ _______ _____ _____    ______ ____
ROOT
ATOM      1  N   LIG    1       -2.722   0.689  -0.551  0.00  0.00    -0.530 NA
ATOM      2  C   LIG    1       -1.814   0.299  -1.637  0.00  0.00    +0.170 C 
ATOM      3  C   LIG    1       -0.504   1.082  -1.514  0.00  0.00    +0.060 C 
ATOM      4  C   LIG    1        0.137   0.784  -0.156  0.00  0.00    -0.040 C 
ATOM      5  C   LIG    1       -0.847   1.153   0.958  0.00  0.00    +0.030 C 
ATOM      6  C   LIG    1       -2.147   0.369   0.762  0.00  0.00    +0.180 C 
ENDROOT
BRANCH   1   7
ATOM      7  C   LIG    1       -4.040   0.061  -0.716  0.00  0.00    +0.280 C 
BRANCH   7  13
ATOM      8  C   LIG    1       -8.575   2.229   4.702  0.00  0.00    +0.100 C 
ATOM      9  C   LIG    1       -7.548   1.439   3.933  0.00  0.00    -0.110 A 
ATOM     10  C   LIG    1       -7.204   1.820   2.685  0.00  0.00    +0.210 A 
ATOM     11  N   LIG    1       -6.275   1.115   1.975  0.00  0.00    -0.360 N 
ATOM     12  C   LIG    1       -5.752   1.277   0.721  0.00  0.00    +0.100 A 
ATOM     13  C   LIG    1       -4.860   0.280   0.529  0.00  0.00    +0.060 A 
ATOM     14  N   LIG    1       -4.830  -0.482   1.625  0.00  0.00    -0.490 NA
ATOM     15  C   LIG    1       -5.678   0.008   2.519  0.00  0.00    +0.220 A 
ATOM     16  C   LIG    1       -6.026  -0.403   3.821  0.00  0.00    +0.070 A 
ATOM     17  C   LIG    1       -6.953   0.308   4.518  0.00  0.00    +0.040 A 
ENDBRANCH   7  13
ENDBRANCH   1   7
BRANCH   4  18
ATOM     18  C   LIG    1        1.417   1.609  -0.002  0.00  0.00    +0.220 C 
BRANCH  18  19
ATOM     19  C   LIG    1        2.114   1.221   1.276  0.00  0.00    +0.490 C 
ATOM     20  N   LIG    1        1.624   1.632   2.462  0.00  0.00    -0.700 N 
ATOM     21  H   LIG    1        0.787   2.121   2.498  0.00  0.00    +0.400 HD
ATOM     22  O   LIG    1        3.116   0.539   1.238  0.00  0.00    -0.530 OA
BRANCH  20  23
ATOM     23  C   LIG    1        2.355   1.341   3.698  0.00  0.00    +0.210 C 
ATOM     24  C   LIG    1        1.545   0.849   4.899  0.00  0.00    +0.010 C 
ATOM     25  C   LIG    1        2.121   2.267   4.893  0.00  0.00    +0.020 C 
ENDBRANCH  20  23
ENDBRANCH  18  19
BRANCH  18  26
ATOM     26  O   LIG    1        2.281   1.357  -1.112  0.00  0.00    -0.530 OA
ATOM     27  H   LIG    1        2.547   0.431  -1.201  0.00  0.00    +0.390 HD
ENDBRANCH  18  26
ENDBRANCH   4  18
TORSDOF 6
