REMARK  Name = ZINCpk00000xN0Vf.0
REMARK                            x       y       z     vdW  Elec       q    Type
REMARK                         _______ _______ _______ _____ _____    ______ ____
ROOT
ATOM      1  C   LIG    1       -2.377   6.449   0.122  0.00  0.00    +0.020 A 
ATOM      2  N   LIG    1       -3.380   5.598   0.017  0.00  0.00    -0.190 NA
ATOM      3  N   LIG    1       -2.941   4.392  -0.044  0.00  0.00    -0.200 N 
ATOM      4  C   LIG    1       -1.576   4.390   0.019  0.00  0.00    +0.110 A 
ATOM      5  C   LIG    1       -1.183   5.694   0.132  0.00  0.00    +0.060 A 
ENDROOT
BRANCH   3   6
ATOM      6  C   LIG    1       -3.741   3.251  -0.158  0.00  0.00    +0.460 A 
ATOM      7  N   LIG    1       -3.305   2.009  -0.113  0.00  0.00    -0.250 NA
ATOM      8  N   LIG    1       -4.423   1.175  -0.262  0.00  0.00    -0.280 N 
ATOM      9  C   LIG    1       -4.577  -0.175  -0.290  0.00  0.00    +0.290 A 
ATOM     10  C   LIG    1       -5.801  -0.725  -0.456  0.00  0.00    +0.020 A 
ATOM     11  C   LIG    1       -6.929   0.096  -0.602  0.00  0.00    +0.110 A 
ATOM     12  C   LIG    1       -6.784   1.450  -0.574  0.00  0.00    +0.060 A 
ATOM     13  C   LIG    1       -5.502   2.002  -0.400  0.00  0.00    +0.290 A 
ATOM     14  N   LIG    1       -5.059   3.252  -0.334  0.00  0.00    -0.520 NA
ENDBRANCH   3   6
BRANCH   4  15
ATOM     15  C   LIG    1       -0.692   3.203  -0.021  0.00  0.00    +0.110 A 
ATOM     16  N   LIG    1       -1.083   1.945  -0.013  0.00  0.00    -0.220 NA
ATOM     17  N   LIG    1        0.058   1.134  -0.060  0.00  0.00    -0.370 N 
ATOM     18  C   LIG    1        1.143   1.937  -0.097  0.00  0.00    +0.230 A 
ATOM     19  C   LIG    1        0.072  -0.331  -0.068  0.00  0.00    +0.360 C 
ATOM     20  C   LIG    1        0.717   3.218  -0.069  0.00  0.00    -0.080 A 
ENDBRANCH   4  15
BRANCH   1  21
ATOM     21  C   LIG    1       -2.484   7.918   0.216  0.00  0.00    +0.560 C 
ATOM     22  O   LIG    1       -1.479   8.595   0.308  0.00  0.00    -0.490 OA
BRANCH  21  23
ATOM     23  O   LIG    1       -3.695   8.508   0.200  0.00  0.00    -0.340 OA
BRANCH  23  25
ATOM     24  C   LIG    1       -5.174  10.441   0.263  0.00  0.00    +0.070 C 
ATOM     25  C   LIG    1       -3.724   9.957   0.297  0.00  0.00    +0.200 C 
ENDBRANCH  23  25
ENDBRANCH  21  23
ENDBRANCH   1  21
TORSDOF 5
