REMARK  Name = ZINCpk00000e9O2B.0
REMARK                            x       y       z     vdW  Elec       q    Type
REMARK                         _______ _______ _______ _____ _____    ______ ____
ROOT
ATOM      1  C   LIG    1        2.324   0.977  -0.673  0.00  0.00    +0.570 C 
ATOM      2  N   LIG    1        1.350   1.623  -0.002  0.00  0.00    -0.710 N 
ATOM      3  H   LIG    1        1.552   2.444   0.474  0.00  0.00    +0.400 HD
ATOM      4  O   LIG    1        2.072  -0.052  -1.269  0.00  0.00    -0.530 OA
ENDROOT
BRANCH   1  13
ATOM      5  C   LIG    1        6.710  -0.324  -3.070  0.00  0.00    +0.320 C 
ATOM      6  N   LIG    1        7.020   0.705  -2.075  0.00  0.00    -0.550 N 
ATOM      7  C   LIG    1        8.302   1.039  -1.809  0.00  0.00    +0.490 C 
ATOM      8  C   LIG    1        8.602   2.074  -0.755  0.00  0.00    +0.300 C 
ATOM      9  O   LIG    1        7.543   3.033  -0.708  0.00  0.00    -0.300 OA
ATOM     10  C   LIG    1        6.276   2.543  -0.695  0.00  0.00    +0.110 A 
ATOM     11  C   LIG    1        5.271   3.206  -0.006  0.00  0.00    +0.040 A 
ATOM     12  C   LIG    1        3.988   2.703  -0.003  0.00  0.00    +0.070 A 
ATOM     13  C   LIG    1        3.698   1.518  -0.683  0.00  0.00    -0.130 A 
ATOM     14  C   LIG    1        4.709   0.848  -1.378  0.00  0.00    +0.090 A 
ATOM     15  O   LIG    1        9.208   0.507  -2.415  0.00  0.00    -0.500 OA
ATOM     16  C   LIG    1        5.991   1.361  -1.383  0.00  0.00    +0.090 A 
ENDBRANCH   1  13
BRANCH   2  17
ATOM     17  C   LIG    1       -0.013   1.086   0.008  0.00  0.00    +0.270 C 
ATOM     18  C   LIG    1       -0.826   1.630  -1.186  0.00  0.00    +0.090 C 
ATOM     19  C   LIG    1       -1.516   2.872  -0.662  0.00  0.00    -0.070 A 
ATOM     20  C   LIG    1       -2.106   3.924  -1.341  0.00  0.00    +0.010 A 
ATOM     21  C   LIG    1       -2.683   4.966  -0.642  0.00  0.00    +0.020 A 
ATOM     22  C   LIG    1       -2.672   4.959   0.740  0.00  0.00    +0.010 A 
ATOM     23  C   LIG    1       -2.084   3.909   1.420  0.00  0.00    +0.030 A 
ATOM     24  C   LIG    1       -1.505   2.864   0.720  0.00  0.00    -0.150 A 
ATOM     25  C   LIG    1       -0.803   1.617   1.223  0.00  0.00    +0.210 C 
BRANCH  25  26
ATOM     26  O   LIG    1       -1.762   0.649   1.653  0.00  0.00    -0.550 OA
ATOM     27  H   LIG    1       -2.288   0.928   2.414  0.00  0.00    +0.390 HD
ENDBRANCH  25  26
ENDBRANCH   2  17
TORSDOF 3
