REMARK  Name = ZINCpk00000KfLlV.0
REMARK                            x       y       z     vdW  Elec       q    Type
REMARK                         _______ _______ _______ _____ _____    ______ ____
ROOT
ATOM      1  C   LIG    1        2.282   5.651   2.714  0.00  0.00    +0.370 A 
ATOM      2  C   LIG    1        2.951   6.870   2.672  0.00  0.00    -0.040 A 
ATOM      3  C   LIG    1        3.383   7.443   3.851  0.00  0.00    +0.180 A 
ATOM      4  C   LIG    1        3.137   6.762   5.052  0.00  0.00    -0.210 A 
ATOM      5  C   LIG    1        2.464   5.539   5.011  0.00  0.00    +0.250 A 
ATOM      6  N   LIG    1        2.065   5.032   3.864  0.00  0.00    -0.540 NA
ENDROOT
BRANCH   4   7
ATOM      7  C   LIG    1        3.583   7.328   6.339  0.00  0.00    +0.520 C 
ATOM      8  O   LIG    1        3.463   6.682   7.361  0.00  0.00    -0.510 OA
BRANCH   7   9
ATOM      9  O   LIG    1        4.124   8.561   6.381  0.00  0.00    -0.350 OA
ATOM     10  C   LIG    1        4.541   9.054   7.681  0.00  0.00    +0.290 C 
ENDBRANCH   7   9
ENDBRANCH   4   7
BRANCH   1  11
ATOM     11  O   LIG    1        1.852   5.086   1.560  0.00  0.00    -0.300 OA
BRANCH  11  12
ATOM     12  C   LIG    1        1.176   3.831   1.664  0.00  0.00    +0.210 C 
BRANCH  12  13
ATOM     13  C   LIG    1        0.768   3.354   0.269  0.00  0.00    +0.120 C 
BRANCH  13  16
ATOM     14  N   LIG    1       -1.512   0.526   0.593  0.00  0.00    -0.370 N 
ATOM     15  C   LIG    1       -1.276   1.854   0.538  0.00  0.00    +0.230 A 
ATOM     16  C   LIG    1        0.056   2.030   0.379  0.00  0.00    -0.240 A 
ATOM     17  C   LIG    1        0.655   0.767   0.335  0.00  0.00    +0.240 A 
ATOM     18  N   LIG    1       -0.284  -0.135   0.463  0.00  0.00    -0.290 NA
BRANCH  14  20
ATOM     19  C   LIG    1       -3.053  -1.101  -0.384  0.00  0.00    +0.040 C 
ATOM     20  C   LIG    1       -2.821  -0.111   0.758  0.00  0.00    +0.320 C 
ENDBRANCH  14  20
ENDBRANCH  13  16
ENDBRANCH  12  13
ENDBRANCH  11  12
ENDBRANCH   1  11
BRANCH   5  21
ATOM     21  C   LIG    1        2.190   4.794   6.292  0.00  0.00    +0.190 C 
BRANCH  21  22
ATOM     22  C   LIG    1        3.405   3.988   6.673  0.00  0.00    +0.490 C 
ATOM     23  O   LIG    1        4.391   4.015   5.976  0.00  0.00    -0.510 OA
BRANCH  22  24
ATOM     24  O   LIG    1        3.391   3.239   7.787  0.00  0.00    -0.350 OA
ATOM     25  C   LIG    1        4.596   2.488   8.092  0.00  0.00    +0.260 C 
ENDBRANCH  22  24
ENDBRANCH  21  22
ENDBRANCH   5  21
TORSDOF 10
