REMARK  Name = ZINCb70000001NPF.0
REMARK                            x       y       z     vdW  Elec       q    Type
REMARK                         _______ _______ _______ _____ _____    ______ ____
ROOT
ATOM      1  C   LIG    1       -2.645   2.995  -0.467  0.00  0.00    +0.190 C 
ATOM      2  C   LIG    1       -2.517   3.709   0.890  0.00  0.00    +0.090 C 
ATOM      3  C   LIG    1       -1.851   2.699   1.866  0.00  0.00    -0.270 C 
ATOM      4  S   LIG    1       -0.541   1.950   0.826  0.00  0.00    +2.410 S 
ATOM      5  O   LIG    1        0.657   2.702   0.965  0.00  0.00    -0.900 OA
ATOM      6  O   LIG    1       -0.522   0.544   1.032  0.00  0.00    -0.900 OA
ATOM      7  C   LIG    1       -1.301   2.315  -0.797  0.00  0.00    -0.320 C 
ENDROOT
BRANCH   1   8
ATOM      8  N   LIG    1       -2.973   3.975  -1.511  0.00  0.00    -0.500 N 
ATOM      9  H   LIG    1       -2.204   4.620  -1.620  0.00  0.00    +0.430 HD
ATOM     10  H   LIG    1       -3.803   4.483  -1.247  0.00  0.00    +0.430 HD
BRANCH   8  12
ATOM     11  C   LIG    1       -4.464   2.409  -2.660  0.00  0.00    +0.080 C 
ATOM     12  C   LIG    1       -3.209   3.276  -2.781  0.00  0.00    +0.160 C 
ATOM     13  C   LIG    1       -3.404   4.302  -3.899  0.00  0.00    +0.090 C 
ENDBRANCH   8  12
ENDBRANCH   1   8
TORSDOF 2
