REMARK  Name = ZINC650000002EyC.0
REMARK                            x       y       z     vdW  Elec       q    Type
REMARK                         _______ _______ _______ _____ _____    ______ ____
ROOT
ATOM      1  C   LIG    1        1.248   3.012   1.542  0.00  0.00    +0.170 C 
ATOM      2  C   LIG    1        1.255   3.099   0.007  0.00  0.00    +0.080 C 
ATOM      3  C   LIG    1        1.286   1.562  -0.002  0.00  0.00    +0.190 C 
ATOM      4  C   LIG    1        1.936   1.645   1.389  0.00  0.00    +0.040 C 
ENDROOT
BRANCH   1   5
ATOM      5  N   LIG    1        2.087   4.027   2.193  0.00  0.00    -0.630 N 
ATOM      6  H   LIG    1        3.044   3.917   1.890  0.00  0.00    +0.430 HD
ATOM      7  H   LIG    1        2.037   3.913   3.194  0.00  0.00    +0.440 HD
ATOM      8  H   LIG    1        1.759   4.947   1.942  0.00  0.00    +0.440 HD
ENDBRANCH   1   5
BRANCH   3   9
ATOM      9  O   LIG    1       -0.011   0.963   0.007  0.00  0.00    -0.550 OA
ATOM     10  H   LIG    1        0.002  -0.004   0.002  0.00  0.00    +0.400 HD
ENDBRANCH   3   9
TORSDOF 2
