REMARK  Name = ZINCqH0000032Pgy.0
REMARK                            x       y       z     vdW  Elec       q    Type
REMARK                         _______ _______ _______ _____ _____    ______ ____
ROOT
ATOM      1  C   LIG    1      -10.178  -0.345   5.700  0.00  0.00    +0.220 C 
ATOM      2  C   LIG    1      -10.592  -1.122   4.449  0.00  0.00    +0.020 C 
ATOM      3  C   LIG    1       -9.353  -1.434   3.606  0.00  0.00    +0.030 C 
ATOM      4  C   LIG    1       -8.698  -0.117   3.162  0.00  0.00    +0.270 C 
ATOM      5  N   LIG    1       -8.427   0.696   4.356  0.00  0.00    -0.600 N 
ATOM      6  C   LIG    1       -7.190   1.176   4.593  0.00  0.00    +0.590 C 
ATOM      7  O   LIG    1       -6.955   1.765   5.631  0.00  0.00    -0.510 OA
ATOM      8  C   LIG    1       -9.531   0.980   5.283  0.00  0.00    +0.270 C 
ENDROOT
BRANCH   6   9
ATOM      9  C   LIG    1       -6.125   0.988   3.598  0.00  0.00    -0.230 A 
ATOM     10  C   LIG    1       -4.873   0.618   3.885  0.00  0.00    -0.010 A 
ATOM     11  C   LIG    1       -4.010   0.495   2.784  0.00  0.00    -0.040 A 
ATOM     12  C   LIG    1       -2.644   0.121   2.765  0.00  0.00    +0.030 A 
ATOM     13  C   LIG    1       -1.958   0.061   1.577  0.00  0.00    +0.130 A 
ATOM     14  C   LIG    1       -2.598   0.358   0.376  0.00  0.00    -0.030 A 
ATOM     15  C   LIG    1       -3.924   0.718   0.371  0.00  0.00    +0.080 A 
ATOM     16  C   LIG    1       -4.642   0.791   1.569  0.00  0.00    -0.170 A 
ATOM     17  C   LIG    1       -4.417   0.351   5.296  0.00  0.00    +0.130 C 
ATOM     18  S   LIG    1       -6.323   1.218   1.869  0.00  0.00    +0.130 S 
BRANCH  13  19
ATOM     19  O   LIG    1       -0.645  -0.295   1.573  0.00  0.00    -0.310 OA
ATOM     20  C   LIG    1        0.010  -0.344   0.303  0.00  0.00    +0.250 C 
ENDBRANCH  13  19
ENDBRANCH   6   9
BRANCH   1  22
ATOM     21  C   LIG    1      -11.227   0.130   7.848  0.00  0.00    +0.510 C 
ATOM     22  N   LIG    1      -11.360  -0.074   6.522  0.00  0.00    -0.730 N 
ATOM     23  H   LIG    1      -12.238  -0.041   6.112  0.00  0.00    +0.400 HD
ATOM     24  O   LIG    1      -10.128   0.089   8.360  0.00  0.00    -0.530 OA
BRANCH  21  25
ATOM     25  C   LIG    1      -12.443   0.408   8.693  0.00  0.00    +0.040 C 
BRANCH  25  27
ATOM     26  C   LIG    1      -13.252   0.883  11.009  0.00  0.00    +0.010 C 
ATOM     27  C   LIG    1      -12.018   0.600  10.150  0.00  0.00    +0.030 C 
ENDBRANCH  25  27
ENDBRANCH  21  25
ENDBRANCH   1  22
TORSDOF 5
