REMARK  Name = ZINCkj00000GeNzt.2
REMARK                            x       y       z     vdW  Elec       q    Type
REMARK                         _______ _______ _______ _____ _____    ______ ____
ROOT
ATOM      1  N   LIG    1        1.575   5.969   1.160  0.00  0.00    -0.500 N 
ATOM      2  H   LIG    1        2.170   5.882   1.970  0.00  0.00    +0.420 HD
ATOM      3  H   LIG    1        0.661   6.287   1.446  0.00  0.00    +0.430 HD
ENDROOT
BRANCH   1   4
ATOM      4  C   LIG    1        2.160   6.937   0.224  0.00  0.00    +0.160 C 
ATOM      5  C   LIG    1        2.479   8.296   0.863  0.00  0.00    +0.010 C 
ATOM      6  C   LIG    1        2.500   8.272   2.403  0.00  0.00    +0.030 C 
ATOM      7  C   LIG    1        0.987   8.300   2.795  0.00  0.00    +0.200 C 
ATOM      8  O   LIG    1        0.214   8.284   1.592  0.00  0.00    -0.370 OA
ATOM      9  C   LIG    1        1.034   8.714   0.496  0.00  0.00    +0.180 C 
ATOM     10  C   LIG    1        1.117   7.673  -0.634  0.00  0.00    -0.070 C 
ATOM     11  C   LIG    1       -0.178   6.883  -0.835  0.00  0.00    +0.070 C 
ATOM     12  C   LIG    1        1.683   8.231  -1.942  0.00  0.00    +0.100 C 
ENDBRANCH   1   4
BRANCH   1  13
ATOM     13  C   LIG    1        1.453   4.662   0.500  0.00  0.00    +0.260 C 
BRANCH  13  17
ATOM     14  N   LIG    1       -0.456   1.758   0.880  0.00  0.00    -0.500 NA
ATOM     15  C   LIG    1       -1.117   2.485   1.994  0.00  0.00    +0.170 C 
ATOM     16  C   LIG    1       -0.504   3.905   1.904  0.00  0.00    +0.020 C 
ATOM     17  C   LIG    1        0.965   3.623   1.512  0.00  0.00    -0.030 C 
ATOM     18  C   LIG    1        0.949   2.222   0.874  0.00  0.00    +0.190 C 
BRANCH  14  19
ATOM     19  C   LIG    1       -0.530   0.305   1.082  0.00  0.00    +0.200 C 
BRANCH  19  20
ATOM     20  C   LIG    1       -1.983  -0.102   1.332  0.00  0.00    +0.170 C 
BRANCH  20  22
ATOM     21  C   LIG    1       -4.139  -0.190   0.286  0.00  0.00    +0.200 C 
ATOM     22  O   LIG    1       -2.758   0.157   0.159  0.00  0.00    -0.380 OA
ENDBRANCH  20  22
ENDBRANCH  19  20
ENDBRANCH  14  19
ENDBRANCH  13  17
ENDBRANCH   1  13
TORSDOF 6
