REMARK  Name = ZINCpe000000UMkI.0
REMARK                            x       y       z     vdW  Elec       q    Type
REMARK                         _______ _______ _______ _____ _____    ______ ____
ROOT
ATOM      1  C   LIG    1        2.393   4.245   0.113  0.00  0.00    +0.500 A 
ATOM      2  N   LIG    1        3.509   3.636   0.485  0.00  0.00    -0.550 NA
ATOM      3  C   LIG    1        3.505   2.346   0.772  0.00  0.00    +0.360 A 
ATOM      4  C   LIG    1        2.318   1.631   0.681  0.00  0.00    -0.240 A 
ATOM      5  C   LIG    1        2.333   0.160   1.001  0.00  0.00    +0.350 C 
ATOM      6  N   LIG    1        0.955  -0.335   1.099  0.00  0.00    -0.610 N 
ATOM      7  C   LIG    1        0.004   0.101   0.063  0.00  0.00    +0.300 C 
ATOM      8  C   LIG    1       -0.166   1.616   0.184  0.00  0.00    +0.120 C 
ATOM      9  C   LIG    1        0.575  -1.157   2.097  0.00  0.00    +0.570 C 
ATOM     10  O   LIG    1       -0.596  -1.461   2.221  0.00  0.00    -0.520 OA
ATOM     11  C   LIG    1        1.172   2.294   0.299  0.00  0.00    +0.220 A 
ATOM     12  N   LIG    1        1.246   3.592   0.021  0.00  0.00    -0.530 NA
ENDROOT
BRANCH   1  17
ATOM     13  C   LIG    1        3.295   9.330  -1.962  0.00  0.00    +0.190 C 
ATOM     14  N   LIG    1        3.258   7.896  -1.644  0.00  0.00    -0.550 NA
ATOM     15  C   LIG    1        3.764   7.644  -0.287  0.00  0.00    +0.190 C 
ATOM     16  C   LIG    1        3.784   6.136  -0.025  0.00  0.00    +0.220 C 
ATOM     17  N   LIG    1        2.427   5.596  -0.187  0.00  0.00    -0.460 N 
ATOM     18  C   LIG    1        1.921   5.847  -1.543  0.00  0.00    +0.220 C 
ATOM     19  C   LIG    1        1.901   7.355  -1.806  0.00  0.00    +0.190 C 
ENDBRANCH   1  17
BRANCH   9  20
ATOM     20  C   LIG    1        1.581  -1.687   3.042  0.00  0.00    -0.190 A 
ATOM     21  C   LIG    1        1.240  -1.945   4.375  0.00  0.00    +0.130 A 
ATOM     22  C   LIG    1        2.218  -2.442   5.218  0.00  0.00    -0.030 A 
ATOM     23  C   LIG    1        3.490  -2.666   4.721  0.00  0.00    +0.280 A 
ATOM     24  N   LIG    1        3.783  -2.413   3.460  0.00  0.00    -0.480 NA
ATOM     25  C   LIG    1        2.885  -1.945   2.618  0.00  0.00    +0.300 A 
ENDBRANCH   9  20
TORSDOF 2
