REMARK  Name = ZINCtj0000001y8i.1
REMARK                            x       y       z     vdW  Elec       q    Type
REMARK                         _______ _______ _______ _____ _____    ______ ____
ROOT
ATOM      1  C   LIG    1        0.503  -2.110  -1.270  0.00  0.00    +0.220 C 
ATOM      2  C   LIG    1        1.171  -2.395  -2.632  0.00  0.00    +0.040 C 
ATOM      3  C   LIG    1        1.937  -1.077  -2.926  0.00  0.00    +0.060 C 
ATOM      4  C   LIG    1        0.967  -0.019  -2.337  0.00  0.00    +0.270 C 
ATOM      5  N   LIG    1        0.416  -0.650  -1.124  0.00  0.00    -0.610 N 
ATOM      6  C   LIG    1       -0.089   0.004  -0.059  0.00  0.00    +0.540 C 
ATOM      7  O   LIG    1       -0.522  -0.620   0.886  0.00  0.00    -0.520 OA
ENDROOT
BRANCH   1  14
ATOM      8  C   LIG    1       -1.343  -7.890   0.261  0.00  0.00    +0.330 C 
ATOM      9  N   LIG    1       -1.282  -6.735  -0.645  0.00  0.00    -0.380 N 
ATOM     10  C   LIG    1       -2.366  -5.801  -0.319  0.00  0.00    +0.250 C 
ATOM     11  C   LIG    1       -2.374  -4.654  -1.335  0.00  0.00    +0.320 C 
ATOM     12  N   LIG    1       -1.035  -4.045  -1.360  0.00  0.00    -0.640 N 
ATOM     13  C   LIG    1        0.127  -4.931  -1.526  0.00  0.00    +0.310 C 
ATOM     14  C   LIG    1       -0.878  -2.711  -1.242  0.00  0.00    +0.520 C 
ATOM     15  O   LIG    1       -1.848  -1.996  -1.111  0.00  0.00    -0.490 OA
ATOM     16  C   LIG    1        0.017  -6.066  -0.495  0.00  0.00    +0.260 C 
ATOM     17  H   LIG    1       -1.386  -7.051  -1.598  0.00  0.00    +0.430 HD
ENDBRANCH   1  14
BRANCH   6  18
ATOM     18  C   LIG    1       -0.116   1.511  -0.043  0.00  0.00    +0.070 C 
BRANCH  18  19
ATOM     19  C   LIG    1       -0.735   1.996   1.269  0.00  0.00    +0.080 C 
BRANCH  19  20
ATOM     20  C   LIG    1       -0.647   3.522   1.341  0.00  0.00    +0.010 C 
ATOM     21  C   LIG    1       -1.520   4.133   0.245  0.00  0.00    +0.100 C 
ATOM     22  C   LIG    1       -1.670   5.614   0.483  0.00  0.00    -0.130 A 
ATOM     23  C   LIG    1       -1.773   6.478  -0.590  0.00  0.00    +0.050 A 
ATOM     24  C   LIG    1       -1.923   7.836  -0.374  0.00  0.00    -0.010 A 
ATOM     25  C   LIG    1       -1.973   8.332   0.916  0.00  0.00    +0.040 A 
ATOM     26  C   LIG    1       -1.865   7.473   1.993  0.00  0.00    -0.020 A 
ATOM     27  C   LIG    1       -1.706   6.110   1.779  0.00  0.00    +0.160 A 
ATOM     28  N   LIG    1       -1.563   5.245   2.867  0.00  0.00    -0.660 N 
ATOM     29  H   LIG    1       -1.785   5.556   3.759  0.00  0.00    +0.410 HD
ATOM     30  C   LIG    1       -1.122   3.988   2.692  0.00  0.00    +0.520 C 
ATOM     31  O   LIG    1       -1.106   3.220   3.631  0.00  0.00    -0.520 OA
ENDBRANCH  19  20
ENDBRANCH  18  19
ENDBRANCH   6  18
TORSDOF 4
