REMARK  Name = ZINCvU0000000CSO.0
REMARK                            x       y       z     vdW  Elec       q    Type
REMARK                         _______ _______ _______ _____ _____    ______ ____
ROOT
ATOM      1  C   LIG    1        1.200   3.986   2.284  0.00  0.00    +0.570 C 
ATOM      2  N   LIG    1        0.816   3.963   0.993  0.00  0.00    -0.700 N 
ATOM      3  H   LIG    1        0.011   4.429   0.718  0.00  0.00    +0.410 HD
ATOM      4  O   LIG    1        2.209   3.403   2.629  0.00  0.00    -0.530 OA
ENDROOT
BRANCH   1   8
ATOM      5  C   LIG    1       -1.122   6.100   5.150  0.00  0.00    +0.100 A 
ATOM      6  C   LIG    1       -1.516   6.076   3.818  0.00  0.00    -0.030 A 
ATOM      7  C   LIG    1       -0.762   5.395   2.885  0.00  0.00    +0.040 A 
ATOM      8  C   LIG    1        0.394   4.720   3.281  0.00  0.00    -0.090 A 
ATOM      9  C   LIG    1        0.791   4.744   4.621  0.00  0.00    +0.020 A 
ATOM     10 CL   LIG    1       -2.957   6.910   3.326  0.00  0.00    -0.030 Cl
ATOM     11  C   LIG    1        0.034   5.432   5.549  0.00  0.00    +0.120 A 
BRANCH   5  12
ATOM     12  O   LIG    1       -1.864   6.777   6.064  0.00  0.00    -0.310 OA
BRANCH  12  13
ATOM     13  C   LIG    1       -1.534   8.151   6.279  0.00  0.00    +0.190 C 
BRANCH  13  15
ATOM     14  C   LIG    1       -2.118  10.212   7.564  0.00  0.00    +0.030 C 
ATOM     15  C   LIG    1       -2.471   8.741   7.335  0.00  0.00    +0.020 C 
ENDBRANCH  13  15
ENDBRANCH  12  13
ENDBRANCH   5  12
BRANCH  11  16
ATOM     16  O   LIG    1        0.418   5.458   6.854  0.00  0.00    -0.300 OA
BRANCH  16  17
ATOM     17  C   LIG    1        1.613   4.752   7.193  0.00  0.00    +0.190 C 
ATOM     18  C   LIG    1        1.881   4.894   8.692  0.00  0.00    +0.070 C 
ENDBRANCH  16  17
ENDBRANCH  11  16
ENDBRANCH   1   8
BRANCH   2  19
ATOM     19  C   LIG    1        1.615   3.236   0.004  0.00  0.00    +0.390 C 
BRANCH  19  20
ATOM     20  C   LIG    1        1.383   3.826  -1.363  0.00  0.00    -0.090 A 
ATOM     21  C   LIG    1        0.111   4.213  -1.741  0.00  0.00    +0.060 A 
ATOM     22  C   LIG    1       -0.102   4.758  -2.993  0.00  0.00    +0.040 A 
ATOM     23  C   LIG    1        0.956   4.909  -3.871  0.00  0.00    -0.030 A 
ATOM     24  C   LIG    1        2.228   4.516  -3.494  0.00  0.00    +0.030 A 
ATOM     25 CL   LIG    1        0.688   5.588  -5.446  0.00  0.00    -0.060 Cl
ATOM     26  C   LIG    1        2.441   3.975  -2.240  0.00  0.00    +0.040 A 
ENDBRANCH  19  20
BRANCH  19  27
ATOM     27  C   LIG    1        1.210   1.784   0.000  0.00  0.00    +0.190 A 
ATOM     28  N   LIG    1       -0.016   1.337   0.009  0.00  0.00    -0.470 NA
ATOM     29  C   LIG    1        0.002  -0.004   0.002  0.00  0.00    +0.140 A 
ATOM     30  C   LIG    1        1.288  -0.403  -0.012  0.00  0.00    +0.130 A 
ATOM     31  N   LIG    1        2.055   0.731  -0.014  0.00  0.00    -0.450 N 
ATOM     32  C   LIG    1        3.518   0.791  -0.027  0.00  0.00    +0.330 C 
ENDBRANCH  19  27
ENDBRANCH   2  19
TORSDOF 9
