REMARK  Name = ZINCqH0000038hQO.0
REMARK                            x       y       z     vdW  Elec       q    Type
REMARK                         _______ _______ _______ _____ _____    ______ ____
ROOT
ATOM      1  N   LIG    1       -2.507  -0.182  -0.090  0.00  0.00    -0.640 N 
ATOM      2  H   LIG    1       -1.679  -0.598  -0.376  0.00  0.00    +0.430 HD
ATOM      3  C   LIG    1       -2.497   1.070   0.408  0.00  0.00    +0.580 C 
ATOM      4  O   LIG    1       -3.519   1.557   0.853  0.00  0.00    -0.530 OA
ENDROOT
BRANCH   1   9
ATOM      5  C   LIG    1       -1.259  -5.029  -0.017  0.00  0.00    +0.130 C 
ATOM      6  C   LIG    1       -2.573  -4.297  -0.121  0.00  0.00    +0.150 A 
ATOM      7  N   LIG    1       -2.576  -2.986  -0.112  0.00  0.00    -0.470 NA
ATOM      8  C   LIG    1       -3.714  -2.294  -0.208  0.00  0.00    +0.110 A 
ATOM      9  C   LIG    1       -3.711  -0.882  -0.193  0.00  0.00    +0.170 A 
ATOM     10  C   LIG    1       -4.904  -0.200  -0.288  0.00  0.00    +0.020 A 
ATOM     11  C   LIG    1       -6.111  -0.885  -0.393  0.00  0.00    +0.040 A 
ATOM     12  C   LIG    1       -6.145  -2.247  -0.404  0.00  0.00    +0.010 A 
ATOM     13  C   LIG    1       -4.950  -2.978  -0.309  0.00  0.00    -0.090 A 
ATOM     14  C   LIG    1       -4.952  -4.386  -0.319  0.00  0.00    +0.080 A 
ATOM     15  C   LIG    1       -3.752  -5.032  -0.224  0.00  0.00    -0.030 A 
ENDBRANCH   1   9
BRANCH   3  16
ATOM     16  C   LIG    1       -1.252   1.847   0.413  0.00  0.00    -0.290 A 
ATOM     17  C   LIG    1       -1.196   3.089   1.056  0.00  0.00    +0.240 A 
ATOM     18  C   LIG    1       -0.010   3.804   1.041  0.00  0.00    -0.060 A 
ATOM     19  C   LIG    1        1.105   3.282   0.397  0.00  0.00    +0.290 A 
ATOM     20  N   LIG    1        1.045   2.065  -0.226  0.00  0.00    -0.600 N 
ATOM     21  H   LIG    1        1.834   1.716  -0.671  0.00  0.00    +0.420 HD
ATOM     22  C   LIG    1       -0.092   1.345  -0.228  0.00  0.00    +0.540 A 
ATOM     23  O   LIG    1       -0.127   0.263  -0.788  0.00  0.00    -0.540 OA
BRANCH  19  24
ATOM     24  C   LIG    1        2.356   4.043   0.385  0.00  0.00    -0.040 A 
ATOM     25  C   LIG    1        2.558   5.267   0.958  0.00  0.00    +0.050 A 
ATOM     26  C   LIG    1        3.894   5.615   0.706  0.00  0.00    -0.060 A 
ATOM     27  C   LIG    1        4.440   4.606  -0.008  0.00  0.00    +0.230 A 
ATOM     28  O   LIG    1        3.510   3.660  -0.200  0.00  0.00    -0.170 OA
ENDBRANCH  19  24
ENDBRANCH   3  16
TORSDOF 3
