REMARK  Name = ZINCqH0000034bMW.1
REMARK                            x       y       z     vdW  Elec       q    Type
REMARK                         _______ _______ _______ _____ _____    ______ ____
ROOT
ATOM      1  N   LIG    1        3.479   0.724   0.067  0.00  0.00    -0.620 N 
ATOM      2  H   LIG    1        3.976  -0.106   0.127  0.00  0.00    +0.420 HD
ATOM      3  C   LIG    1        4.136   1.900   0.020  0.00  0.00    +0.600 C 
ATOM      4  O   LIG    1        3.513   2.942  -0.056  0.00  0.00    -0.520 OA
ENDROOT
BRANCH   3   5
ATOM      5  C   LIG    1        5.608   1.924   0.061  0.00  0.00    -0.010 A 
ATOM      6  C   LIG    1        6.330   3.066   0.018  0.00  0.00    -0.180 A 
ATOM      7  S   LIG    1        7.992   2.670   0.087  0.00  0.00    +0.230 S 
ATOM      8  C   LIG    1        7.627   1.004   0.170  0.00  0.00    +0.030 A 
ATOM      9  C   LIG    1        5.764   4.459  -0.076  0.00  0.00    +0.170 C 
ATOM     10  N   LIG    1        6.354   0.819   0.149  0.00  0.00    -0.430 NA
BRANCH   8  11
ATOM     11  C   LIG    1        8.652  -0.096   0.261  0.00  0.00    +0.270 C 
ATOM     12  C   LIG    1        8.686  -0.645   1.689  0.00  0.00    +0.030 C 
BRANCH  11  13
ATOM     13  N   LIG    1        8.297  -1.175  -0.670  0.00  0.00    -0.830 NA
ATOM     14  H   LIG    1        7.391  -1.559  -0.450  0.00  0.00    +0.350 HD
ATOM     15  H   LIG    1        9.004  -1.895  -0.675  0.00  0.00    +0.350 HD
ENDBRANCH  11  13
ENDBRANCH   8  11
ENDBRANCH   3   5
BRANCH   1  17
ATOM     16  C   LIG    1        1.290  -0.406   0.067  0.00  0.00    +0.060 A 
ATOM     17  C   LIG    1        2.073   0.702   0.028  0.00  0.00    +0.010 A 
ATOM     18  C   LIG    1        1.231   1.821  -0.058  0.00  0.00    +0.270 A 
ATOM     19  N   LIG    1       -0.010   1.404  -0.070  0.00  0.00    -0.270 NA
ATOM     20  N   LIG    1       -0.006   0.005   0.008  0.00  0.00    -0.320 N 
BRANCH  20  21
ATOM     21  C   LIG    1       -1.137  -0.823   0.023  0.00  0.00    +0.160 A 
ATOM     22  C   LIG    1       -1.165  -1.974  -0.752  0.00  0.00    +0.000 A 
ATOM     23  C   LIG    1       -2.281  -2.789  -0.735  0.00  0.00    +0.030 A 
ATOM     24  C   LIG    1       -3.368  -2.459   0.053  0.00  0.00    +0.010 A 
ATOM     25  C   LIG    1       -3.342  -1.313   0.827  0.00  0.00    -0.070 A 
ATOM     26  C   LIG    1       -4.528  -0.957   1.685  0.00  0.00    +0.090 C 
ATOM     27  C   LIG    1       -2.228  -0.497   0.817  0.00  0.00    +0.020 A 
ENDBRANCH  20  21
BRANCH  16  29
ATOM     28  C   LIG    1        1.764  -2.277   1.625  0.00  0.00    +0.040 C 
ATOM     29  C   LIG    1        1.768  -1.832   0.161  0.00  0.00    +0.110 C 
ENDBRANCH  16  29
ENDBRANCH   1  17
TORSDOF 6
