REMARK  Name = ZINCpe00000bqeXP.0
REMARK                            x       y       z     vdW  Elec       q    Type
REMARK                         _______ _______ _______ _____ _____    ______ ____
ROOT
ATOM      1  N   LIG    1       -0.316   5.132   1.416  0.00  0.00    -0.370 N 
ATOM      2  N   LIG    1       -1.039   6.055   2.192  0.00  0.00    -0.070 NA
ATOM      3  N   LIG    1       -0.557   7.221   1.928  0.00  0.00    -0.030 NA
ATOM      4  N   LIG    1        0.392   7.128   1.069  0.00  0.00    -0.350 NA
ATOM      5  C   LIG    1        0.583   5.872   0.728  0.00  0.00    +0.410 A 
ENDROOT
BRANCH   5   6
ATOM      6  N   LIG    1        1.524   5.398  -0.170  0.00  0.00    -0.450 N 
ATOM      7  C   LIG    1        0.918   5.148  -1.484  0.00  0.00    +0.260 C 
ATOM      8  C   LIG    1        1.983   4.783  -2.479  0.00  0.00    +0.530 C 
ATOM      9  N   LIG    1        3.281   5.028  -2.272  0.00  0.00    -0.710 N 
ATOM     10  H   LIG    1        3.915   4.789  -2.966  0.00  0.00    +0.410 HD
ATOM     11  C   LIG    1        3.788   5.639  -1.046  0.00  0.00    +0.230 C 
ATOM     12  C   LIG    1        4.867   6.665  -1.399  0.00  0.00    +0.050 C 
ATOM     13  O   LIG    1        1.652   4.244  -3.514  0.00  0.00    -0.540 OA
ATOM     14  C   LIG    1        2.649   6.338  -0.299  0.00  0.00    +0.240 C 
ENDBRANCH   5   6
BRANCH   1  15
ATOM     15  C   LIG    1       -0.494   3.678   1.368  0.00  0.00    +0.320 C 
BRANCH  15  16
ATOM     16  C   LIG    1        0.321   3.027   2.487  0.00  0.00    +0.300 C 
BRANCH  16  17
ATOM     17  N   LIG    1        0.169   1.572   2.420  0.00  0.00    -0.620 N 
BRANCH  17  18
ATOM     18  C   LIG    1       -0.929   0.956   3.025  0.00  0.00    +0.210 A 
ATOM     19  C   LIG    1       -1.868   1.720   3.706  0.00  0.00    -0.080 A 
ATOM     20  C   LIG    1       -2.952   1.108   4.304  0.00  0.00    +0.050 A 
ATOM     21  C   LIG    1       -3.104  -0.264   4.224  0.00  0.00    -0.050 A 
ATOM     22  C   LIG    1       -2.171  -1.028   3.547  0.00  0.00    -0.040 A 
ATOM     23  C   LIG    1       -2.340  -2.523   3.463  0.00  0.00    +0.090 C 
ATOM     24  C   LIG    1       -1.087  -0.422   2.944  0.00  0.00    -0.070 A 
ENDBRANCH  17  18
BRANCH  17  26
ATOM     25  C   LIG    1        0.763   0.617   0.248  0.00  0.00    +0.010 C 
ATOM     26  C   LIG    1        1.167   0.763   1.716  0.00  0.00    +0.280 C 
ENDBRANCH  17  26
ENDBRANCH  16  17
ENDBRANCH  15  16
ENDBRANCH   1  15
TORSDOF 6
