REMARK  Name = ZINCrH000004sQ4j.0
REMARK                            x       y       z     vdW  Elec       q    Type
REMARK                         _______ _______ _______ _____ _____    ______ ____
ROOT
ATOM      1  C   LIG    1       -1.595   0.104   1.955  0.00  0.00    +0.200 C 
ATOM      2  C   LIG    1       -0.325   0.840   1.611  0.00  0.00    +0.160 A 
ATOM      3  N   LIG    1        0.859   0.592   2.081  0.00  0.00    -0.270 NA
ATOM      4  O   LIG    1        1.793   1.493   1.523  0.00  0.00    -0.080 OA
ATOM      5  C   LIG    1        1.159   2.329   0.676  0.00  0.00    +0.310 A 
ATOM      6  N   LIG    1        1.573   3.331  -0.082  0.00  0.00    -0.460 NA
ATOM      7  C   LIG    1        0.742   4.020  -0.848  0.00  0.00    +0.250 A 
ATOM      8  C   LIG    1       -0.622   3.722  -0.894  0.00  0.00    -0.010 A 
ATOM      9  C   LIG    1       -1.115   2.680  -0.114  0.00  0.00    +0.000 A 
ATOM     10  C   LIG    1       -0.200   1.965   0.686  0.00  0.00    -0.210 A 
ENDROOT
BRANCH   7  11
ATOM     11  C   LIG    1        1.269   5.133  -1.674  0.00  0.00    -0.070 A 
ATOM     12  C   LIG    1        0.410   5.866  -2.491  0.00  0.00    +0.040 A 
ATOM     13  C   LIG    1        0.907   6.904  -3.254  0.00  0.00    +0.010 A 
ATOM     14  C   LIG    1        2.255   7.210  -3.217  0.00  0.00    +0.030 A 
ATOM     15  C   LIG    1        3.113   6.482  -2.412  0.00  0.00    +0.000 A 
ATOM     16  C   LIG    1        2.627   5.446  -1.641  0.00  0.00    +0.070 A 
ENDBRANCH   7  11
BRANCH   9  17
ATOM     17  C   LIG    1       -2.553   2.330  -0.127  0.00  0.00    +0.560 C 
ATOM     18  N   LIG    1       -3.481   3.301  -0.243  0.00  0.00    -0.720 N 
ATOM     19  H   LIG    1       -3.207   4.228  -0.320  0.00  0.00    +0.400 HD
ATOM     20  O   LIG    1       -2.897   1.169  -0.031  0.00  0.00    -0.510 OA
BRANCH  18  21
ATOM     21  C   LIG    1       -4.905   2.955  -0.256  0.00  0.00    +0.250 C 
ATOM     22  C   LIG    1       -5.415   2.843   1.182  0.00  0.00    +0.020 C 
BRANCH  21  23
ATOM     23  C   LIG    1       -5.688   4.044  -0.992  0.00  0.00    -0.040 C 
ATOM     24  C   LIG    1       -7.177   3.685  -1.003  0.00  0.00    +0.020 C 
ATOM     25  C   LIG    1       -7.959   4.819  -1.673  0.00  0.00    -0.010 C 
ATOM     26  C   LIG    1       -7.682   6.128  -0.929  0.00  0.00    +0.210 C 
ATOM     27  O   LIG    1       -6.277   6.387  -0.929  0.00  0.00    -0.380 OA
ATOM     28  C   LIG    1       -5.497   5.383  -0.275  0.00  0.00    +0.210 C 
ENDBRANCH  21  23
ENDBRANCH  18  21
ENDBRANCH   9  17
TORSDOF 4
