REMARK  Name = ZINCkj00000dDyXO.0
REMARK                            x       y       z     vdW  Elec       q    Type
REMARK                         _______ _______ _______ _____ _____    ______ ____
ROOT
ATOM      1  N   LIG    1        0.002  -0.004   0.002  0.00  0.00    -0.700 N 
ATOM      2  H   LIG    1        0.773  -0.481   0.347  0.00  0.00    +0.410 HD
ATOM      3  C   LIG    1       -1.051  -0.690  -0.485  0.00  0.00    +0.510 C 
ATOM      4  O   LIG    1       -2.015  -0.094  -0.916  0.00  0.00    -0.520 OA
ENDROOT
BRANCH   3   5
ATOM      5  C   LIG    1       -1.031  -2.196  -0.493  0.00  0.00    +0.180 C 
ATOM      6  C   LIG    1       -0.305  -2.727  -1.755  0.00  0.00    +0.130 C 
ATOM      7  C   LIG    1       -0.901  -4.142  -1.928  0.00  0.00    +0.200 C 
ATOM      8  C   LIG    1       -2.245  -4.107  -1.176  0.00  0.00    +0.250 C 
ATOM      9  N   LIG    1       -2.406  -2.739  -0.639  0.00  0.00    -0.500 N 
ATOM     10  H   LIG    1       -2.937  -2.171  -1.283  0.00  0.00    +0.440 HD
ATOM     11  H   LIG    1       -2.865  -2.769   0.259  0.00  0.00    +0.440 HD
BRANCH   7  12
ATOM     12  O   LIG    1       -0.034  -5.120  -1.349  0.00  0.00    -0.550 OA
ATOM     13  H   LIG    1       -0.378  -6.023  -1.389  0.00  0.00    +0.400 HD
ENDBRANCH   7  12
ENDBRANCH   3   5
BRANCH   1  14
ATOM     14  C   LIG    1       -0.018   1.461   0.010  0.00  0.00    +0.300 C 
ATOM     15  C   LIG    1       -0.734   1.954   1.269  0.00  0.00    +0.050 C 
BRANCH  14  19
ATOM     16  C   LIG    1        3.992   2.940  -0.019  0.00  0.00    +0.170 A 
ATOM     17  C   LIG    1        3.665   1.833   0.750  0.00  0.00    -0.060 A 
ATOM     18  C   LIG    1        2.367   1.360   0.761  0.00  0.00    +0.070 A 
ATOM     19  C   LIG    1        1.396   1.982  -0.001  0.00  0.00    -0.140 A 
ATOM     20  C   LIG    1        1.718   3.087  -0.768  0.00  0.00    +0.110 A 
ATOM     21  C   LIG    1        3.014   3.567  -0.779  0.00  0.00    -0.120 A 
ATOM     22 BR   LIG    1        3.455   5.077  -1.829  0.00  0.00    -0.020 Br
BRANCH  16  24
ATOM     23  C   LIG    1        6.221   2.715   0.778  0.00  0.00    +0.250 C 
ATOM     24  O   LIG    1        5.267   3.410  -0.028  0.00  0.00    -0.300 OA
ENDBRANCH  16  24
ENDBRANCH  14  19
ENDBRANCH   1  14
TORSDOF 5
