REMARK  Name = ZINCvU0000000BA4.0
REMARK                            x       y       z     vdW  Elec       q    Type
REMARK                         _______ _______ _______ _____ _____    ______ ____
ROOT
ATOM      1  C   LIG    1       -2.166   1.456  -3.629  0.00  0.00    +0.000 C 
ATOM      2  C   LIG    1       -2.711   2.870  -3.414  0.00  0.00    +0.040 C 
ATOM      3  C   LIG    1       -3.581   3.265  -4.611  0.00  0.00    +0.280 C 
ATOM      4  N   LIG    1       -4.618   2.242  -4.801  0.00  0.00    -0.610 N 
ATOM      5  C   LIG    1       -4.208   0.837  -4.927  0.00  0.00    +0.280 C 
ATOM      6  C   LIG    1       -5.920   2.586  -4.858  0.00  0.00    +0.570 C 
ATOM      7  O   LIG    1       -6.762   1.741  -5.092  0.00  0.00    -0.530 OA
ATOM      8  C   LIG    1       -3.331   0.469  -3.726  0.00  0.00    +0.050 C 
ENDROOT
BRANCH   6   9
ATOM      9  C   LIG    1       -6.322   3.987  -4.637  0.00  0.00    -0.120 A 
ATOM     10  C   LIG    1       -5.764   5.012  -5.388  0.00  0.00    +0.050 A 
ATOM     11  C   LIG    1       -6.145   6.331  -5.178  0.00  0.00    +0.000 A 
ATOM     12  C   LIG    1       -7.070   6.670  -4.240  0.00  0.00    +0.050 A 
ATOM     13  C   LIG    1       -7.677   5.684  -3.443  0.00  0.00    -0.060 A 
ATOM     14  C   LIG    1       -8.634   6.018  -2.470  0.00  0.00    +0.030 A 
ATOM     15  C   LIG    1       -9.213   5.033  -1.729  0.00  0.00    +0.020 A 
ATOM     16  C   LIG    1       -8.859   3.699  -1.908  0.00  0.00    +0.020 A 
ATOM     17  C   LIG    1       -7.930   3.340  -2.839  0.00  0.00    +0.030 A 
ATOM     18  C   LIG    1       -7.323   4.325  -3.627  0.00  0.00    -0.020 A 
ENDBRANCH   6   9
BRANCH   1  21
ATOM     19  C   LIG    1        0.380   2.659  -3.289  0.00  0.00    +0.270 C 
ATOM     20  N   LIG    1       -0.055   1.621  -2.350  0.00  0.00    -0.610 N 
ATOM     21  C   LIG    1       -1.282   1.077  -2.469  0.00  0.00    +0.510 C 
ATOM     22  O   LIG    1       -1.676   0.282  -1.641  0.00  0.00    -0.510 OA
BRANCH  20  23
ATOM     23  C   LIG    1        0.844   1.175  -1.284  0.00  0.00    +0.350 C 
BRANCH  23  24
ATOM     24  C   LIG    1        0.627   2.021  -0.056  0.00  0.00    -0.140 A 
ATOM     25  C   LIG    1       -0.309   1.641   0.890  0.00  0.00    +0.140 A 
ATOM     26  C   LIG    1       -0.507   2.420   2.018  0.00  0.00    -0.020 A 
ATOM     27  C   LIG    1        0.228   3.576   2.198  0.00  0.00    +0.070 A 
ATOM     28  C   LIG    1        1.162   3.956   1.253  0.00  0.00    +0.010 A 
ATOM     29  F   LIG    1       -1.027   0.511   0.715  0.00  0.00    -0.110 F 
ATOM     30  C   LIG    1        1.366   3.176   0.128  0.00  0.00    +0.000 A 
ATOM     31 CL   LIG    1        2.544   3.650  -1.055  0.00  0.00    -0.050 Cl
ENDBRANCH  23  24
ENDBRANCH  20  23
ENDBRANCH   1  21
TORSDOF 4
