REMARK  Name = ZINCrg00001Jdv4p.2
REMARK                            x       y       z     vdW  Elec       q    Type
REMARK                         _______ _______ _______ _____ _____    ______ ____
ROOT
ATOM      1  N   LIG    1       -0.699   1.567   1.222  0.00  0.00    -0.430 N 
ATOM      2  C   LIG    1       -2.074   1.058   1.288  0.00  0.00    +0.220 C 
ATOM      3  C   LIG    1       -2.872   1.575   0.090  0.00  0.00    +0.050 C 
ATOM      4  C   LIG    1       -2.202   1.104  -1.204  0.00  0.00    +0.010 C 
ATOM      5  C   LIG    1       -0.753   1.592  -1.225  0.00  0.00    +0.100 C 
ATOM      6  C   LIG    1       -0.728   3.132  -1.252  0.00  0.00    +0.260 C 
ATOM      7  C   LIG    1        0.456   3.445  -2.204  0.00  0.00    +0.030 C 
ATOM      8  C   LIG    1        0.341   2.295  -3.236  0.00  0.00    +0.180 C 
ATOM      9  N   LIG    1       -0.078   1.118  -2.444  0.00  0.00    -0.520 NA
ATOM     10  C   LIG    1       -0.961   0.243  -3.228  0.00  0.00    +0.190 C 
ATOM     11  C   LIG    1       -0.014   1.089   0.013  0.00  0.00    +0.240 C 
ENDROOT
BRANCH   1  16
ATOM     12  C   LIG    1        0.258   1.324   5.995  0.00  0.00    +0.200 C 
ATOM     13  C   LIG    1        0.525   1.072   4.534  0.00  0.00    +0.290 A 
ATOM     14  N   LIG    1        1.588   0.428   4.147  0.00  0.00    -0.480 NA
ATOM     15  S   LIG    1        1.496   0.361   2.451  0.00  0.00    +0.190 S 
ATOM     16  C   LIG    1        0.010   1.229   2.360  0.00  0.00    +0.270 A 
ATOM     17  N   LIG    1       -0.306   1.495   3.610  0.00  0.00    -0.530 NA
ENDBRANCH   1  16
BRANCH   6  18
ATOM     18  N   LIG    1       -1.982   3.662  -1.793  0.00  0.00    -0.700 N 
ATOM     19  H   LIG    1       -2.481   3.151  -2.450  0.00  0.00    +0.400 HD
ATOM     20  C   LIG    1       -2.443   4.859  -1.379  0.00  0.00    +0.560 C 
ATOM     21  O   LIG    1       -1.819   5.499  -0.556  0.00  0.00    -0.510 OA
BRANCH  20  22
ATOM     22  C   LIG    1       -3.709   5.393  -1.925  0.00  0.00    +0.120 A 
ATOM     23  C   LIG    1       -4.403   4.674  -2.852  0.00  0.00    -0.040 A 
ATOM     24  C   LIG    1       -5.608   5.176  -3.369  0.00  0.00    +0.120 A 
ATOM     25  C   LIG    1       -6.065   6.386  -2.945  0.00  0.00    -0.050 A 
ATOM     26  C   LIG    1       -5.323   7.113  -1.988  0.00  0.00    +0.520 A 
ATOM     27  O   LIG    1       -5.725   8.198  -1.602  0.00  0.00    -0.540 OA
ATOM     28  N   LIG    1       -4.173   6.610  -1.500  0.00  0.00    -0.590 N 
ATOM     29  H   LIG    1       -3.668   7.114  -0.843  0.00  0.00    +0.420 HD
ENDBRANCH  20  22
ENDBRANCH   6  18
TORSDOF 3
