REMARK  Name = ZINCpk000000oNSI.0
REMARK                            x       y       z     vdW  Elec       q    Type
REMARK                         _______ _______ _______ _____ _____    ______ ____
ROOT
ATOM      1  N   LIG    1        4.477   5.003  -0.016  0.00  0.00    -0.740 N 
ATOM      2  H   LIG    1        4.227   5.940  -0.015  0.00  0.00    +0.400 HD
ATOM      3  C   LIG    1        3.523   4.050  -0.012  0.00  0.00    +0.710 C 
ATOM      4  N   LIG    1        2.221   4.400  -0.006  0.00  0.00    -0.570 N 
ATOM      5  C   LIG    1        1.722   5.778  -0.003  0.00  0.00    +0.260 C 
ATOM      6  C   LIG    1        0.190   5.652   0.004  0.00  0.00    +0.100 C 
ATOM      7  C   LIG    1       -0.070   4.162   0.005  0.00  0.00    -0.160 A 
ATOM      8  C   LIG    1       -1.254   3.450   0.011  0.00  0.00    +0.070 A 
ATOM      9  C   LIG    1       -1.236   2.068   0.004  0.00  0.00    +0.010 A 
ATOM     10  C   LIG    1       -0.021   1.395   0.003  0.00  0.00    +0.190 A 
ATOM     11  C   LIG    1        1.167   2.107  -0.002  0.00  0.00    -0.020 A 
ATOM     12  C   LIG    1        1.150   3.502  -0.001  0.00  0.00    +0.180 A 
ATOM     13  O   LIG    1        3.837   2.876  -0.013  0.00  0.00    -0.570 OA
ENDROOT
BRANCH  10  14
ATOM     14  N   LIG    1        0.002  -0.004   0.002  0.00  0.00    -0.680 N 
ATOM     15  H   LIG    1        0.695  -0.477  -0.484  0.00  0.00    +0.410 HD
ATOM     16  C   LIG    1       -0.938  -0.695   0.677  0.00  0.00    +0.710 C 
ATOM     17  N   LIG    1       -0.863  -2.038   0.753  0.00  0.00    -0.740 N 
ATOM     18  H   LIG    1       -0.132  -2.508   0.323  0.00  0.00    +0.400 HD
ATOM     19  O   LIG    1       -1.855  -0.105   1.216  0.00  0.00    -0.570 OA
BRANCH  17  20
ATOM     20  C   LIG    1       -1.885  -2.788   1.487  0.00  0.00    +0.320 C 
BRANCH  20  21
ATOM     21  C   LIG    1       -1.566  -4.283   1.420  0.00  0.00    -0.100 C 
ATOM     22  C   LIG    1       -0.195  -4.541   2.048  0.00  0.00    +0.070 C 
ATOM     23  C   LIG    1       -1.551  -4.737  -0.041  0.00  0.00    +0.070 C 
BRANCH  21  24
ATOM     24  C   LIG    1       -2.618  -5.055   2.175  0.00  0.00    +0.530 C 
ATOM     25  O   LIG    1       -3.532  -4.468   2.713  0.00  0.00    -0.530 OA
ATOM     26  N   LIG    1       -2.542  -6.399   2.251  0.00  0.00    -0.850 N 
ATOM     27  H   LIG    1       -3.219  -6.896   2.737  0.00  0.00    +0.400 HD
ATOM     28  H   LIG    1       -1.811  -6.869   1.821  0.00  0.00    +0.400 HD
ENDBRANCH  21  24
ENDBRANCH  20  21
ENDBRANCH  17  20
ENDBRANCH  10  14
BRANCH   1  30
ATOM     29  C   LIG    1        6.759   5.883  -0.027  0.00  0.00    +0.030 C 
ATOM     30  C   LIG    1        5.892   4.622  -0.022  0.00  0.00    +0.270 C 
ENDBRANCH   1  30
TORSDOF 5
