REMARK  Name = ZINCrH000004rnCG.0
REMARK                            x       y       z     vdW  Elec       q    Type
REMARK                         _______ _______ _______ _____ _____    ______ ____
ROOT
ATOM      1  N   LIG    1       -4.863   5.212   0.203  0.00  0.00    -0.590 N 
ATOM      2  C   LIG    1       -3.697   5.884   0.123  0.00  0.00    +0.580 C 
ATOM      3  O   LIG    1       -3.692   7.099   0.168  0.00  0.00    -0.520 OA
ATOM      4  C   LIG    1       -4.862   3.748   0.252  0.00  0.00    +0.300 C 
ENDROOT
BRANCH   2   5
ATOM      5  C   LIG    1       -2.426   5.145  -0.020  0.00  0.00    -0.180 A 
ATOM      6  C   LIG    1       -2.085   4.155   0.895  0.00  0.00    +0.140 A 
ATOM      7  C   LIG    1       -0.865   3.482   0.713  0.00  0.00    -0.130 A 
ATOM      8  C   LIG    1       -0.456   2.467   1.594  0.00  0.00    +0.100 A 
ATOM      9  C   LIG    1        0.735   1.840   1.392  0.00  0.00    +0.000 A 
ATOM     10  C   LIG    1        1.551   2.185   0.314  0.00  0.00    +0.140 A 
ATOM     11  C   LIG    1        1.180   3.162  -0.563  0.00  0.00    +0.010 A 
ATOM     12  F   LIG    1        2.725   1.542   0.135  0.00  0.00    -0.130 F 
ATOM     13  C   LIG    1       -0.038   3.836  -0.384  0.00  0.00    +0.170 A 
ATOM     14  N   LIG    1       -0.421   4.798  -1.233  0.00  0.00    -0.480 NA
ATOM     15  C   LIG    1       -1.553   5.436  -1.082  0.00  0.00    +0.220 A 
ATOM     16  C   LIG    1       -1.929   6.510  -2.071  0.00  0.00    +0.150 C 
ENDBRANCH   2   5
BRANCH   1  17
ATOM     17  C   LIG    1       -6.130   5.945   0.240  0.00  0.00    +0.340 C 
BRANCH  17  20
ATOM     18  N   LIG    1       -7.794   6.804  -1.377  0.00  0.00    -0.670 N 
ATOM     19  H   LIG    1       -8.263   7.213  -0.632  0.00  0.00    +0.410 HD
ATOM     20  C   LIG    1       -6.635   6.149  -1.165  0.00  0.00    +0.500 C 
ATOM     21  O   LIG    1       -5.998   5.723  -2.106  0.00  0.00    -0.510 OA
BRANCH  18  26
ATOM     22  C   LIG    1       -9.931   7.168  -6.619  0.00  0.00    +0.100 C 
ATOM     23  C   LIG    1       -9.363   7.071  -5.226  0.00  0.00    -0.100 A 
ATOM     24  C   LIG    1       -8.684   5.932  -4.836  0.00  0.00    +0.030 A 
ATOM     25  C   LIG    1       -8.163   5.840  -3.560  0.00  0.00    +0.020 A 
ATOM     26  C   LIG    1       -8.320   6.894  -2.670  0.00  0.00    +0.140 A 
ATOM     27  C   LIG    1       -9.007   8.035  -3.064  0.00  0.00    -0.010 A 
ATOM     28  C   LIG    1       -9.522   8.123  -4.342  0.00  0.00    +0.030 A 
ENDBRANCH  18  26
ENDBRANCH  17  20
ENDBRANCH   1  17
TORSDOF 4
