REMARK  Name = ZINCrH000004sDJh.0
REMARK                            x       y       z     vdW  Elec       q    Type
REMARK                         _______ _______ _______ _____ _____    ______ ____
ROOT
ATOM      1  N   LIG    1        2.933   3.950  -0.005  0.00  0.00    -0.660 N 
ATOM      2  H   LIG    1        2.090   4.003  -0.481  0.00  0.00    +0.420 HD
ATOM      3  C   LIG    1        3.312   2.792   0.570  0.00  0.00    +0.610 C 
ATOM      4  O   LIG    1        4.406   2.701   1.093  0.00  0.00    -0.510 OA
ENDROOT
BRANCH   1   9
ATOM      5  C   LIG    1        5.950   6.046   0.150  0.00  0.00    -0.100 A 
ATOM      6  C   LIG    1        5.388   7.305   0.258  0.00  0.00    +0.020 A 
ATOM      7  C   LIG    1        4.013   7.453   0.278  0.00  0.00    +0.030 A 
ATOM      8  C   LIG    1        3.197   6.343   0.185  0.00  0.00    +0.000 A 
ATOM      9  C   LIG    1        3.758   5.077   0.083  0.00  0.00    +0.150 A 
ATOM     10  C   LIG    1        5.139   4.932   0.063  0.00  0.00    +0.040 A 
BRANCH   5  11
ATOM     11  C   LIG    1        7.449   5.890   0.129  0.00  0.00    +0.360 C 
BRANCH  11  15
ATOM     12  C   LIG    1        9.045   7.597  -4.313  0.00  0.00    +0.140 C 
ATOM     13  C   LIG    1        8.620   6.692  -3.185  0.00  0.00    -0.000 A 
ATOM     14  C   LIG    1        8.210   7.088  -1.965  0.00  0.00    -0.020 A 
ATOM     15  N   LIG    1        7.926   5.953  -1.255  0.00  0.00    -0.450 N 
ATOM     16  C   LIG    1        8.163   4.903  -2.070  0.00  0.00    +0.390 A 
ATOM     17  C   LIG    1        8.091   8.508  -1.474  0.00  0.00    +0.140 C 
ATOM     18  N   LIG    1        8.577   5.352  -3.222  0.00  0.00    -0.490 NA
ENDBRANCH  11  15
ENDBRANCH   5  11
ENDBRANCH   1   9
BRANCH   3  19
ATOM     19  C   LIG    1        2.397   1.631   0.565  0.00  0.00    -0.010 A 
ATOM     20  N   LIG    1        1.190   1.591   0.036  0.00  0.00    -0.230 NA
ATOM     21  N   LIG    1        0.663   0.432   0.205  0.00  0.00    -0.360 N 
ATOM     22  H   LIG    1       -0.220   0.172  -0.100  0.00  0.00    +0.450 HD
ATOM     23  C   LIG    1        1.528  -0.378   0.884  0.00  0.00    +0.090 A 
ATOM     24  C   LIG    1        2.655   0.362   1.126  0.00  0.00    +0.030 A 
BRANCH  23  25
ATOM     25  C   LIG    1        1.295  -1.779   1.278  0.00  0.00    +0.040 A 
ATOM     26  C   LIG    1        0.170  -2.503   1.028  0.00  0.00    -0.030 A 
ATOM     27  C   LIG    1        0.380  -3.782   1.579  0.00  0.00    -0.050 A 
ATOM     28  C   LIG    1        1.609  -3.778   2.131  0.00  0.00    +0.190 A 
ATOM     29  O   LIG    1        2.161  -2.568   1.944  0.00  0.00    -0.160 OA
ENDBRANCH  23  25
ENDBRANCH   3  19
TORSDOF 5
