REMARK  Name = ZINCrH000004sDJh.1
REMARK                            x       y       z     vdW  Elec       q    Type
REMARK                         _______ _______ _______ _____ _____    ______ ____
ROOT
ATOM      1  N   LIG    1       -0.069   5.241   0.029  0.00  0.00    -0.670 N 
ATOM      2  H   LIG    1       -0.772   5.718  -0.439  0.00  0.00    +0.410 HD
ATOM      3  C   LIG    1        0.884   5.924   0.693  0.00  0.00    +0.600 C 
ATOM      4  O   LIG    1        1.812   5.330   1.209  0.00  0.00    -0.490 OA
ENDROOT
BRANCH   1   9
ATOM      5  C   LIG    1       -1.209   1.746   0.007  0.00  0.00    -0.100 A 
ATOM      6  C   LIG    1        0.001   1.076  -0.012  0.00  0.00    +0.020 A 
ATOM      7  C   LIG    1        1.188   1.786  -0.022  0.00  0.00    +0.030 A 
ATOM      8  C   LIG    1        1.168   3.167  -0.008  0.00  0.00    +0.030 A 
ATOM      9  C   LIG    1       -0.046   3.843   0.016  0.00  0.00    +0.140 A 
ATOM     10  C   LIG    1       -1.235   3.127   0.027  0.00  0.00    +0.010 A 
BRANCH   5  11
ATOM     11  C   LIG    1       -2.499   0.968   0.011  0.00  0.00    +0.360 C 
BRANCH  11  15
ATOM     12  C   LIG    1       -4.491   1.441   4.594  0.00  0.00    +0.140 C 
ATOM     13  C   LIG    1       -3.768   0.905   3.385  0.00  0.00    +0.000 A 
ATOM     14  C   LIG    1       -3.613   1.542   2.209  0.00  0.00    -0.030 A 
ATOM     15  N   LIG    1       -2.904   0.701   1.394  0.00  0.00    -0.450 N 
ATOM     16  C   LIG    1       -2.643  -0.417   2.104  0.00  0.00    +0.390 A 
ATOM     17  C   LIG    1       -4.124   2.916   1.857  0.00  0.00    +0.130 C 
ATOM     18  N   LIG    1       -3.163  -0.288   3.294  0.00  0.00    -0.490 NA
ENDBRANCH  11  15
ENDBRANCH   5  11
ENDBRANCH   1   9
BRANCH   3  19
ATOM     19  C   LIG    1        0.804   7.390   0.793  0.00  0.00    -0.040 A 
ATOM     20  C   LIG    1        1.695   8.225   1.439  0.00  0.00    +0.060 A 
ATOM     21  C   LIG    1        1.188   9.526   1.252  0.00  0.00    +0.100 A 
ATOM     22  N   LIG    1        0.077   9.422   0.550  0.00  0.00    -0.230 NA
ATOM     23  N   LIG    1       -0.171   8.193   0.270  0.00  0.00    -0.370 N 
ATOM     24  H   LIG    1       -0.936   7.882  -0.238  0.00  0.00    +0.450 HD
BRANCH  21  25
ATOM     25  C   LIG    1        1.790  10.780   1.755  0.00  0.00    +0.050 A 
ATOM     26  C   LIG    1        1.296  12.032   1.569  0.00  0.00    -0.020 A 
ATOM     27  C   LIG    1        2.181  12.918   2.217  0.00  0.00    -0.060 A 
ATOM     28  C   LIG    1        3.165  12.171   2.753  0.00  0.00    +0.190 A 
ATOM     29  O   LIG    1        2.926  10.879   2.471  0.00  0.00    -0.170 OA
ENDBRANCH  21  25
ENDBRANCH   3  19
TORSDOF 5
