REMARK  Name = ZINCrH00000tj12x.0
REMARK                            x       y       z     vdW  Elec       q    Type
REMARK                         _______ _______ _______ _____ _____    ______ ____
ROOT
ATOM      1  O   LIG    1       -3.558   3.323   0.179  0.00  0.00    -0.520 OA
ATOM      2  C   LIG    1       -2.497   3.896   0.024  0.00  0.00    +0.570 C 
ATOM      3  C   LIG    1       -1.234   3.137   0.031  0.00  0.00    -0.200 A 
ATOM      4  C   LIG    1       -1.220   1.744   0.017  0.00  0.00    +0.110 A 
ATOM      5  C   LIG    1       -0.013   1.076   0.008  0.00  0.00    -0.040 A 
ATOM      6  C   LIG    1        1.181   1.780   0.000  0.00  0.00    +0.080 A 
ATOM      7  C   LIG    1        1.182   3.162   0.014  0.00  0.00    -0.050 A 
ATOM      8  C   LIG    1       -0.021   3.847   0.036  0.00  0.00    +0.230 A 
ATOM      9  N   LIG    1       -0.071   5.236   0.077  0.00  0.00    -0.740 N 
ATOM     10  H   LIG    1        0.644   5.744   0.491  0.00  0.00    +0.420 HD
ATOM     11  C   LIG    1       -1.225   5.919  -0.519  0.00  0.00    +0.600 C 
ATOM     12  N   LIG    1       -2.465   5.232  -0.155  0.00  0.00    -0.610 N 
ENDROOT
BRANCH  11  13
ATOM     13  C   LIG    1       -1.079   5.923  -2.019  0.00  0.00    -0.040 A 
ATOM     14  N   LIG    1       -2.046   5.923  -2.909  0.00  0.00    -0.250 NA
ATOM     15  N   LIG    1       -1.525   5.930  -4.085  0.00  0.00    -0.100 N 
ATOM     16  N   LIG    1       -0.241   5.925  -4.014  0.00  0.00    -0.290 NA
ATOM     17  C   LIG    1        0.113   5.920  -2.749  0.00  0.00    +0.210 A 
BRANCH  15  18
ATOM     18  C   LIG    1       -2.257   5.937  -5.280  0.00  0.00    +0.140 A 
ATOM     19  C   LIG    1       -3.645   5.937  -5.246  0.00  0.00    +0.040 A 
ATOM     20  C   LIG    1       -4.363   5.949  -6.426  0.00  0.00    +0.040 A 
ATOM     21  C   LIG    1       -3.702   5.950  -7.640  0.00  0.00    +0.020 A 
ATOM     22  C   LIG    1       -2.320   5.945  -7.677  0.00  0.00    +0.040 A 
ATOM     23  C   LIG    1       -1.595   5.938  -6.501  0.00  0.00    +0.040 A 
ENDBRANCH  15  18
ENDBRANCH  11  13
BRANCH  12  24
ATOM     24  C   LIG    1       -3.694   6.010   0.017  0.00  0.00    +0.240 C 
ATOM     25  C   LIG    1       -4.259   5.799   1.437  0.00  0.00    +0.010 C 
ATOM     26  C   LIG    1       -5.795   5.779   1.235  0.00  0.00    +0.010 C 
ATOM     27  C   LIG    1       -5.955   5.021  -0.106  0.00  0.00    +0.020 C 
ATOM     28  C   LIG    1       -4.772   5.516  -0.964  0.00  0.00    +0.010 C 
ENDBRANCH  12  24
TORSDOF 3
