REMARK  Name = ZINCrD00000cHV7B.0
REMARK                            x       y       z     vdW  Elec       q    Type
REMARK                         _______ _______ _______ _____ _____    ______ ____
ROOT
ATOM      1  C   LIG    1        6.850   5.006  -1.465  0.00  0.00    +0.080 C 
ATOM      2  C   LIG    1        5.540   5.792  -1.535  0.00  0.00    +0.100 C 
ATOM      3  C   LIG    1        4.668   5.443  -0.324  0.00  0.00    +0.260 C 
ATOM      4  N   LIG    1        3.497   6.335  -0.317  0.00  0.00    -0.620 N 
ATOM      5  C   LIG    1        3.734   7.783  -0.440  0.00  0.00    +0.300 C 
ATOM      6  C   LIG    1        4.672   8.025  -1.614  0.00  0.00    +0.080 C 
ATOM      7  C   LIG    1        3.927   7.760  -2.940  0.00  0.00    +0.000 C 
ATOM      8  C   LIG    1        3.516   9.192  -3.369  0.00  0.00    +0.210 C 
ATOM      9  O   LIG    1        4.638  10.004  -2.960  0.00  0.00    -0.370 OA
ATOM     10  C   LIG    1        5.075   9.505  -1.683  0.00  0.00    +0.240 C 
ATOM     11  C   LIG    1        2.248   5.841  -0.208  0.00  0.00    +0.710 C 
ATOM     12  N   LIG    1        2.060   4.522  -0.005  0.00  0.00    -0.680 N 
ATOM     13  H   LIG    1        2.822   3.941   0.144  0.00  0.00    +0.410 HD
ATOM     14  O   LIG    1        1.291   6.585  -0.292  0.00  0.00    -0.560 OA
ATOM     15  C   LIG    1        4.795   5.432  -2.822  0.00  0.00    +0.030 C 
ATOM     16  O   LIG    1        5.823   7.195  -1.523  0.00  0.00    -0.350 OA
ENDROOT
BRANCH  12  17
ATOM     17  C   LIG    1        0.762   3.989  -0.010  0.00  0.00    +0.150 A 
ATOM     18  C   LIG    1       -0.258   4.654  -0.675  0.00  0.00    +0.070 A 
ATOM     19  C   LIG    1       -1.538   4.129  -0.679  0.00  0.00    +0.110 A 
ATOM     20  C   LIG    1       -1.800   2.934  -0.022  0.00  0.00    +0.080 A 
ATOM     21  C   LIG    1       -0.782   2.272   0.647  0.00  0.00    -0.020 A 
ATOM     22  F   LIG    1       -2.531   4.776  -1.326  0.00  0.00    -0.120 F 
ATOM     23  C   LIG    1        0.498   2.796   0.652  0.00  0.00    +0.100 A 
ATOM     24  F   LIG    1        1.491   2.148   1.300  0.00  0.00    -0.130 F 
BRANCH  20  25
ATOM     25  O   LIG    1       -3.058   2.415  -0.031  0.00  0.00    -0.310 OA
BRANCH  25  26
ATOM     26  C   LIG    1       -3.257   1.185   0.669  0.00  0.00    +0.600 C 
ATOM     27  F   LIG    1       -2.932   1.359   2.019  0.00  0.00    -0.190 F 
ATOM     28  F   LIG    1       -2.438   0.196   0.116  0.00  0.00    -0.200 F 
ENDBRANCH  25  26
ENDBRANCH  20  25
ENDBRANCH  12  17
TORSDOF 3
