REMARK  Name = ZINCrD000000BzAq.0
REMARK                            x       y       z     vdW  Elec       q    Type
REMARK                         _______ _______ _______ _____ _____    ______ ____
ROOT
ATOM      1  C   LIG    1        2.394   1.399  -0.013  0.00  0.00    -0.170 A 
ATOM      2  C   LIG    1        2.399   0.003  -0.021  0.00  0.00    +0.080 A 
ATOM      3  C   LIG    1        1.206  -0.688  -0.013  0.00  0.00    -0.030 A 
ATOM      4  C   LIG    1        0.002  -0.004   0.002  0.00  0.00    +0.090 A 
ATOM      5  C   LIG    1       -0.017   1.377   0.010  0.00  0.00    -0.080 A 
ATOM      6  C   LIG    1        1.174   2.088   0.002  0.00  0.00    +0.190 A 
ENDROOT
BRANCH   1   9
ATOM      7  N   LIG    1        4.839   1.479  -0.035  0.00  0.00    -0.520 N 
ATOM      8  H   LIG    1        4.845   0.509  -0.041  0.00  0.00    +0.430 HD
ATOM      9  C   LIG    1        3.667   2.145  -0.021  0.00  0.00    +0.560 C 
ATOM     10  O   LIG    1        3.659   3.361  -0.015  0.00  0.00    -0.510 OA
BRANCH   7  13
ATOM     11  O   LIG    1        7.227   0.306  -0.064  0.00  0.00    -0.530 OA
ATOM     12  C   LIG    1        7.219   1.521  -0.057  0.00  0.00    +0.570 C 
ATOM     13  N   LIG    1        6.047   2.187  -0.043  0.00  0.00    -0.510 N 
ATOM     14  H   LIG    1        6.041   3.157  -0.037  0.00  0.00    +0.430 HD
BRANCH  12  15
ATOM     15  C   LIG    1        8.494   2.269  -0.065  0.00  0.00    -0.180 A 
ATOM     16  C   LIG    1        9.718   1.589  -0.074  0.00  0.00    +0.140 A 
ATOM     17  C   LIG    1       10.883   2.335  -0.086  0.00  0.00    -0.030 A 
ATOM     18  C   LIG    1       10.803   3.716  -0.077  0.00  0.00    +0.300 A 
ATOM     19  N   LIG    1        9.635   4.330  -0.064  0.00  0.00    -0.480 NA
ATOM     20  C   LIG    1        8.499   3.664  -0.057  0.00  0.00    +0.300 A 
ENDBRANCH  12  15
ENDBRANCH   7  13
ENDBRANCH   1   9
BRANCH   6  21
ATOM     21  O   LIG    1        1.157   3.445   0.009  0.00  0.00    -0.270 OA
BRANCH  21  22
ATOM     22  C   LIG    1       -0.124   4.077   0.024  0.00  0.00    +0.250 C 
BRANCH  22  23
ATOM     23  C   LIG    1        0.054   5.574   0.030  0.00  0.00    -0.090 A 
ATOM     24  C   LIG    1        0.142   6.254   1.230  0.00  0.00    +0.050 A 
ATOM     25  C   LIG    1        0.311   7.626   1.236  0.00  0.00    +0.030 A 
ATOM     26  C   LIG    1        0.381   8.319   0.041  0.00  0.00    -0.020 A 
ATOM     27  C   LIG    1        0.288   7.638  -1.159  0.00  0.00    +0.030 A 
ATOM     28 CL   LIG    1        0.586  10.043   0.048  0.00  0.00    -0.070 Cl
ATOM     29  C   LIG    1        0.125   6.266  -1.164  0.00  0.00    +0.050 A 
ENDBRANCH  22  23
ENDBRANCH  21  22
ENDBRANCH   6  21
TORSDOF 6
