REMARK  Name = ZINCvU0000000CYb.0
REMARK                            x       y       z     vdW  Elec       q    Type
REMARK                         _______ _______ _______ _____ _____    ______ ____
ROOT
ATOM      1  C   LIG    1       10.759  -2.147   5.277  0.00  0.00    +0.110 A 
ATOM      2  C   LIG    1        9.408  -2.296   5.020  0.00  0.00    -0.040 A 
ATOM      3  C   LIG    1        8.912  -2.099   3.739  0.00  0.00    -0.060 A 
ATOM      4  C   LIG    1        9.768  -1.757   2.714  0.00  0.00    -0.070 A 
ATOM      5  C   LIG    1        9.275  -1.540   1.307  0.00  0.00    +0.270 C 
ATOM      6  N   LIG    1        7.824  -1.328   1.298  0.00  0.00    -0.520 NA
ATOM      7  C   LIG    1        7.146  -2.418   2.018  0.00  0.00    +0.190 C 
ATOM      8  C   LIG    1       11.124  -1.606   2.968  0.00  0.00    -0.020 A 
ATOM      9  C   LIG    1        7.431  -2.264   3.512  0.00  0.00    +0.100 C 
ATOM     10  C   LIG    1       11.623  -1.798   4.243  0.00  0.00    +0.100 A 
ENDROOT
BRANCH   5  11
ATOM     11  C   LIG    1        9.957  -0.330   0.723  0.00  0.00    -0.170 A 
ATOM     12  C   LIG    1       11.011  -0.361  -0.095  0.00  0.00    +0.000 A 
ATOM     13  C   LIG    1       11.467   0.880  -0.506  0.00  0.00    +0.000 A 
ATOM     14  C   LIG    1       10.784   1.918  -0.022  0.00  0.00    -0.060 A 
ATOM     15  S   LIG    1        9.481   1.339   1.008  0.00  0.00    +0.150 S 
ENDBRANCH   5  11
BRANCH   1  17
ATOM     16  C   LIG    1       10.295  -2.697   7.544  0.00  0.00    +0.250 C 
ATOM     17  O   LIG    1       11.241  -2.341   6.534  0.00  0.00    -0.310 OA
ENDBRANCH   1  17
BRANCH  10  18
ATOM     18  O   LIG    1       12.953  -1.648   4.485  0.00  0.00    -0.310 OA
ATOM     19  C   LIG    1       13.778  -1.288   3.375  0.00  0.00    +0.230 C 
ENDBRANCH  10  18
BRANCH   6  20
ATOM     20  C   LIG    1        7.318  -1.210  -0.076  0.00  0.00    +0.290 C 
BRANCH  20  21
ATOM     21  C   LIG    1        5.811  -1.241  -0.061  0.00  0.00    +0.030 A 
ATOM     22  N   LIG    1        5.054  -2.301  -0.059  0.00  0.00    -0.360 NA
ATOM     23  O   LIG    1        3.879  -2.017  -0.046  0.00  0.00    +0.110 OA
ATOM     24  C   LIG    1        3.695  -0.685  -0.036  0.00  0.00    +0.010 A 
ATOM     25  C   LIG    1        4.945  -0.128  -0.051  0.00  0.00    -0.020 A 
BRANCH  24  26
ATOM     26  C   LIG    1        2.403   0.034  -0.020  0.00  0.00    -0.030 A 
ATOM     27  C   LIG    1        1.204  -0.681  -0.013  0.00  0.00    +0.040 A 
ATOM     28  C   LIG    1        0.002  -0.004   0.002  0.00  0.00    +0.010 A 
ATOM     29  C   LIG    1       -0.017   1.379   0.010  0.00  0.00    +0.030 A 
ATOM     30  C   LIG    1        1.168   2.093   0.002  0.00  0.00    +0.010 A 
ATOM     31  C   LIG    1        2.377   1.429  -0.013  0.00  0.00    +0.040 A 
ENDBRANCH  24  26
ENDBRANCH  20  21
ENDBRANCH   6  20
TORSDOF 6
