REMARK  Name = ZINCrg00001JduYV.0
REMARK                            x       y       z     vdW  Elec       q    Type
REMARK                         _______ _______ _______ _____ _____    ______ ____
ROOT
ATOM      1  C   LIG    1        4.477   2.345   4.419  0.00  0.00    +0.240 C 
ATOM      2  C   LIG    1        5.779   3.151   4.611  0.00  0.00    +0.200 C 
ATOM      3  C   LIG    1        6.728   2.123   5.280  0.00  0.00    +0.140 C 
ATOM      4  C   LIG    1        6.301   0.806   4.585  0.00  0.00    +0.240 C 
ATOM      5  N   LIG    1        4.840   0.921   4.425  0.00  0.00    -0.600 N 
ATOM      6  C   LIG    1        3.980  -0.110   4.304  0.00  0.00    +0.620 C 
ATOM      7  O   LIG    1        2.788   0.103   4.193  0.00  0.00    -0.540 OA
ENDROOT
BRANCH   6   8
ATOM      8  C   LIG    1        4.484  -1.494   4.305  0.00  0.00    -0.240 A 
ATOM      9  C   LIG    1        3.739  -2.640   4.337  0.00  0.00    +0.110 A 
ATOM     10  N   LIG    1        4.578  -3.693   4.326  0.00  0.00    -0.440 N 
ATOM     11  C   LIG    1        5.873  -3.266   4.288  0.00  0.00    +0.160 A 
ATOM     12  C   LIG    1        4.160  -5.097   4.352  0.00  0.00    +0.320 C 
ATOM     13  C   LIG    1        2.234  -2.712   4.376  0.00  0.00    +0.150 C 
ATOM     14  C   LIG    1        5.887  -1.921   4.267  0.00  0.00    -0.030 A 
ENDBRANCH   6   8
BRANCH   3  15
ATOM     15  O   LIG    1        6.500   2.055   6.689  0.00  0.00    -0.540 OA
ATOM     16  H   LIG    1        7.001   1.359   7.136  0.00  0.00    +0.380 HD
ENDBRANCH   3  15
BRANCH   2  17
ATOM     17  O   LIG    1        5.558   4.271   5.471  0.00  0.00    -0.540 OA
ATOM     18  H   LIG    1        6.346   4.810   5.625  0.00  0.00    +0.390 HD
ENDBRANCH   2  17
BRANCH   1  19
ATOM     19  C   LIG    1        3.830   2.712   3.082  0.00  0.00    +0.260 C 
BRANCH  19  21
ATOM     20  C   LIG    1        1.724   2.309   1.925  0.00  0.00    +0.510 C 
ATOM     21  N   LIG    1        2.447   2.229   3.059  0.00  0.00    -0.710 N 
ATOM     22  H   LIG    1        2.052   1.851   3.861  0.00  0.00    +0.410 HD
ATOM     23  O   LIG    1        2.217   2.782   0.923  0.00  0.00    -0.550 OA
BRANCH  20  24
ATOM     24  C   LIG    1        0.301   1.813   1.902  0.00  0.00    +0.050 C 
BRANCH  24  25
ATOM     25  C   LIG    1       -0.289   2.019   0.505  0.00  0.00    +0.020 C 
BRANCH  25  26
ATOM     26  C   LIG    1       -1.768   1.631   0.514  0.00  0.00    -0.020 C 
ATOM     27  C   LIG    1       -2.327   1.720  -0.907  0.00  0.00    +0.010 C 
ATOM     28  C   LIG    1       -2.541   2.586   1.427  0.00  0.00    +0.010 C 
ENDBRANCH  25  26
BRANCH  25  30
ATOM     29  C   LIG    1        0.227  -0.332  -0.167  0.00  0.00    +0.000 C 
ATOM     30  C   LIG    1        0.463   1.143  -0.499  0.00  0.00    +0.010 C 
ENDBRANCH  25  30
ENDBRANCH  24  25
ENDBRANCH  20  24
ENDBRANCH  19  21
ENDBRANCH   1  19
TORSDOF 9
