REMARK  Name = ZINCrD00000l1pLT.1
REMARK                            x       y       z     vdW  Elec       q    Type
REMARK                         _______ _______ _______ _____ _____    ______ ____
ROOT
ATOM      1  C   LIG    1       -2.533   0.812   0.025  0.00  0.00    +0.200 A 
ATOM      2  N   LIG    1       -2.723  -0.482   0.039  0.00  0.00    -0.360 NA
ATOM      3  O   LIG    1       -3.910  -0.729   0.049  0.00  0.00    +0.100 OA
ATOM      4  C   LIG    1       -4.614   0.407   0.042  0.00  0.00    +0.200 A 
ATOM      5  N   LIG    1       -3.753   1.394   0.032  0.00  0.00    -0.470 NA
ENDROOT
BRANCH   1   9
ATOM      6  C   LIG    1        1.219   2.813  -0.022  0.00  0.00    -0.170 A 
ATOM      7  C   LIG    1        1.176   1.430  -0.007  0.00  0.00    +0.080 A 
ATOM      8  C   LIG    1       -0.040   0.776   0.012  0.00  0.00    +0.050 A 
ATOM      9  C   LIG    1       -1.224   1.510   0.011  0.00  0.00    +0.010 A 
ATOM     10  C   LIG    1       -1.174   2.902   0.003  0.00  0.00    +0.070 A 
ATOM     11  C   LIG    1        0.047   3.547  -0.017  0.00  0.00    +0.080 A 
BRANCH   6  13
ATOM     12  F   LIG    1        2.947   3.728  -1.367  0.00  0.00    -0.170 F 
ATOM     13  C   LIG    1        2.549   3.522  -0.042  0.00  0.00    +0.510 C 
ATOM     14  F   LIG    1        3.504   2.740   0.616  0.00  0.00    -0.170 F 
ATOM     15  F   LIG    1        2.429   4.756   0.606  0.00  0.00    -0.170 F 
ENDBRANCH   6  13
ENDBRANCH   1   9
BRANCH   4  16
ATOM     16  C   LIG    1       -6.116   0.529   0.049  0.00  0.00    +0.350 C 
BRANCH  16  17
ATOM     17  N   LIG    1       -6.612   0.556  -1.333  0.00  0.00    -0.540 NA
ATOM     18  C   LIG    1       -6.169   1.772  -2.029  0.00  0.00    +0.180 C 
ATOM     19  C   LIG    1       -6.638   1.724  -3.485  0.00  0.00    +0.190 C 
ATOM     20  N   LIG    1       -8.103   1.604  -3.521  0.00  0.00    -0.530 NA
ATOM     21  C   LIG    1       -8.546   0.387  -2.826  0.00  0.00    +0.190 C 
ATOM     22  C   LIG    1       -8.077   0.436  -1.370  0.00  0.00    +0.200 C 
BRANCH  20  23
ATOM     23  C   LIG    1       -8.599   1.630  -4.904  0.00  0.00    +0.140 C 
ATOM     24  C   LIG    1      -10.137   1.669  -4.899  0.00  0.00    +0.050 C 
ATOM     25  C   LIG    1      -10.583   2.025  -6.342  0.00  0.00    +0.130 C 
ATOM     26  S   LIG    1       -9.390   3.340  -6.804  0.00  0.00    -0.280 S 
ATOM     27  C   LIG    1       -8.068   2.889  -5.620  0.00  0.00    +0.120 C 
ENDBRANCH  20  23
ENDBRANCH  16  17
ENDBRANCH   4  16
TORSDOF 5
