REMARK  Name = ZINCtV00001bB3xv.0
REMARK                            x       y       z     vdW  Elec       q    Type
REMARK                         _______ _______ _______ _____ _____    ______ ____
ROOT
ATOM      1  C   LIG    1       -1.206  -0.905   0.009  0.00  0.00    +0.190 C 
ATOM      2  C   LIG    1        0.002  -0.004   0.002  0.00  0.00    +0.130 A 
ATOM      3  N   LIG    1       -0.016   1.300   0.009  0.00  0.00    -0.270 NA
ATOM      4  N   LIG    1        1.301   1.774  -0.001  0.00  0.00    -0.310 N 
ATOM      5  C   LIG    1        2.135   0.715  -0.015  0.00  0.00    +0.170 A 
ATOM      6 CL   LIG    1        3.870   0.772  -0.032  0.00  0.00    +0.040 Cl
ATOM      7  C   LIG    1        1.352  -0.426  -0.013  0.00  0.00    -0.200 A 
ENDROOT
BRANCH   4   8
ATOM      8  C   LIG    1        1.687   3.121   0.003  0.00  0.00    +0.140 A 
ATOM      9  C   LIG    1        2.832   3.515   0.683  0.00  0.00    +0.050 A 
ATOM     10  C   LIG    1        3.210   4.844   0.684  0.00  0.00    +0.060 A 
ATOM     11  C   LIG    1        2.450   5.781   0.009  0.00  0.00    +0.080 A 
ATOM     12  C   LIG    1        1.309   5.392  -0.670  0.00  0.00    -0.170 A 
ATOM     13  C   LIG    1        0.929   4.064  -0.679  0.00  0.00    +0.100 A 
BRANCH  12  14
ATOM     14  C   LIG    1        0.484   6.416  -1.405  0.00  0.00    +0.510 C 
ATOM     15  F   LIG    1       -0.812   6.436  -0.878  0.00  0.00    -0.170 F 
ATOM     16  F   LIG    1        0.430   6.085  -2.763  0.00  0.00    -0.170 F 
ATOM     17  F   LIG    1        1.068   7.679  -1.256  0.00  0.00    -0.170 F 
ENDBRANCH  12  14
ENDBRANCH   4   8
BRANCH   7  18
ATOM     18  C   LIG    1        1.833  -1.815  -0.026  0.00  0.00    +0.360 C 
ATOM     19  N   LIG    1        3.114  -2.061  -0.039  0.00  0.00    -0.480 NA
BRANCH  19  20
ATOM     20  C   LIG    1        3.561  -3.355  -0.051  0.00  0.00    +0.070 A 
ATOM     21  C   LIG    1        2.995  -4.300   0.808  0.00  0.00    +0.020 A 
ATOM     22  C   LIG    1        3.446  -5.603   0.789  0.00  0.00    -0.030 A 
ATOM     23  C   LIG    1        4.468  -5.974  -0.074  0.00  0.00    +0.100 A 
ATOM     24  C   LIG    1        5.038  -5.037  -0.925  0.00  0.00    +0.020 A 
ATOM     25  C   LIG    1        4.590  -3.733  -0.917  0.00  0.00    +0.070 A 
BRANCH  23  26
ATOM     26  O   LIG    1        4.914  -7.258  -0.085  0.00  0.00    -0.320 OA
BRANCH  26  27
ATOM     27  C   LIG    1        4.284  -8.171   0.817  0.00  0.00    +0.590 C 
ATOM     28  F   LIG    1        2.917  -8.244   0.527  0.00  0.00    -0.200 F 
ATOM     29  F   LIG    1        4.458  -7.723   2.131  0.00  0.00    -0.200 F 
ENDBRANCH  26  27
ENDBRANCH  23  26
ENDBRANCH  19  20
ENDBRANCH   7  18
TORSDOF 6
