REMARK  Name = ZINCvU0000000E4p.0
REMARK                            x       y       z     vdW  Elec       q    Type
REMARK                         _______ _______ _______ _____ _____    ______ ____
ROOT
ATOM      1  C   LIG    1       -4.698  10.740  -0.412  0.00  0.00    -0.050 A 
ATOM      2  C   LIG    1       -4.745  12.068  -0.007  0.00  0.00    +0.010 A 
ATOM      3  C   LIG    1       -3.587  12.709   0.386  0.00  0.00    +0.110 A 
ATOM      4  C   LIG    1       -2.374  12.032   0.379  0.00  0.00    -0.140 A 
ATOM      5  S   LIG    1       -0.914  12.878   0.883  0.00  0.00    +0.040 S 
ATOM      6  C   LIG    1        0.382  11.879   0.233  0.00  0.00    -0.130 A 
ATOM      7  C   LIG    1        1.658  12.415   0.108  0.00  0.00    +0.060 A 
ATOM      8  C   LIG    1        2.687  11.648  -0.403  0.00  0.00    +0.030 A 
ATOM      9  C   LIG    1        2.449  10.343  -0.791  0.00  0.00    +0.040 A 
ATOM     10  C   LIG    1        1.183   9.802  -0.669  0.00  0.00    +0.050 A 
ATOM     11  C   LIG    1        0.140  10.565  -0.155  0.00  0.00    +0.140 A 
ATOM     12  N   LIG    1       -1.124   9.985  -0.043  0.00  0.00    -0.490 N 
ATOM     13  C   LIG    1       -1.193   8.643   0.054  0.00  0.00    +0.520 C 
ATOM     14  O   LIG    1       -0.182   7.976  -0.016  0.00  0.00    -0.470 OA
ATOM     15  C   LIG    1       -2.321  10.701  -0.030  0.00  0.00    +0.160 A 
ATOM     16  C   LIG    1       -3.489  10.059  -0.419  0.00  0.00    +0.000 A 
ENDROOT
BRANCH   1  18
ATOM     17  C   LIG    1       -7.440  11.205  -0.729  0.00  0.00    +0.140 C 
ATOM     18  S   LIG    1       -6.174   9.919  -0.915  0.00  0.00    -0.080 S 
ENDBRANCH   1  18
BRANCH  13  19
ATOM     19  C   LIG    1       -2.527   7.970   0.248  0.00  0.00    +0.290 C 
BRANCH  19  20
ATOM     20  O   LIG    1       -2.338   6.716   0.956  0.00  0.00    -0.330 OA
BRANCH  20  21
ATOM     21  C   LIG    1       -3.441   5.986   1.212  0.00  0.00    +0.520 C 
ATOM     22  O   LIG    1       -4.531   6.385   0.853  0.00  0.00    -0.490 OA
BRANCH  21  23
ATOM     23  C   LIG    1       -3.326   4.701   1.928  0.00  0.00    -0.120 A 
ATOM     24  C   LIG    1       -2.073   4.241   2.342  0.00  0.00    +0.120 A 
ATOM     25  C   LIG    1       -1.968   3.043   3.015  0.00  0.00    +0.030 A 
ATOM     26  C   LIG    1       -3.102   2.286   3.276  0.00  0.00    +0.080 A 
ATOM     27  O   LIG    1       -3.260   1.089   3.910  0.00  0.00    -0.300 OA
ATOM     28  C   LIG    1       -4.564   0.618   3.525  0.00  0.00    +0.440 C 
ATOM     29  O   LIG    1       -5.296   1.825   3.243  0.00  0.00    -0.300 OA
ATOM     30  C   LIG    1       -4.356   2.740   2.865  0.00  0.00    +0.020 A 
ATOM     31  C   LIG    1       -4.469   3.942   2.194  0.00  0.00    +0.120 A 
ENDBRANCH  21  23
ENDBRANCH  20  21
ENDBRANCH  19  20
ENDBRANCH  13  19
TORSDOF 5
