REMARK  Name = ZINCpe00000MIn12.0
REMARK                            x       y       z     vdW  Elec       q    Type
REMARK                         _______ _______ _______ _____ _____    ______ ____
ROOT
ATOM      1  C   LIG    1       -1.954   0.157  -3.382  0.00  0.00    +0.220 C 
ENDROOT
BRANCH   1   7
ATOM      2  C   LIG    1       -2.156   1.023   1.294  0.00  0.00    -0.020 C 
ATOM      3  C   LIG    1       -0.730   1.580   1.266  0.00  0.00    +0.050 C 
ATOM      4  C   LIG    1       -0.013   1.086   0.008  0.00  0.00    +0.020 C 
ATOM      5  C   LIG    1       -0.755   1.594  -1.232  0.00  0.00    +0.250 C 
ATOM      6  N   LIG    1       -2.163   1.185  -1.141  0.00  0.00    -0.610 N 
ATOM      7  C   LIG    1       -2.747   0.504  -2.148  0.00  0.00    +0.520 C 
ATOM      8  O   LIG    1       -3.910   0.172  -2.061  0.00  0.00    -0.520 OA
ATOM      9  C   LIG    1       -2.923   1.530   0.068  0.00  0.00    +0.290 C 
BRANCH   2  13
ATOM     10  N   LIG    1       -4.126   1.115   2.786  0.00  0.00    -0.850 N 
ATOM     11  H   LIG    1       -4.574   1.411   3.594  0.00  0.00    +0.400 HD
ATOM     12  H   LIG    1       -4.596   0.553   2.150  0.00  0.00    +0.400 HD
ATOM     13  C   LIG    1       -2.852   1.484   2.548  0.00  0.00    +0.520 C 
ATOM     14  O   LIG    1       -2.265   2.186   3.344  0.00  0.00    -0.540 OA
ENDBRANCH   2  13
ENDBRANCH   1   7
BRANCH   1  15
ATOM     15  N   LIG    1       -2.810  -0.578  -4.322  0.00  0.00    -0.490 NA
ATOM     16  C   LIG    1       -3.135  -1.924  -3.802  0.00  0.00    +0.190 C 
ATOM     17  C   LIG    1       -3.220  -2.824  -5.060  0.00  0.00    +0.030 C 
ATOM     18  C   LIG    1       -2.086  -2.238  -5.942  0.00  0.00    +0.030 C 
ATOM     19  C   LIG    1       -2.149  -0.728  -5.632  0.00  0.00    +0.280 C 
BRANCH  19  20
ATOM     20  C   LIG    1       -0.756  -0.156  -5.571  0.00  0.00    +0.160 A 
ATOM     21  N   LIG    1        0.112  -0.343  -4.622  0.00  0.00    -0.380 NA
ATOM     22  O   LIG    1        1.139   0.253  -4.870  0.00  0.00    +0.070 OA
ATOM     23  C   LIG    1        1.021   0.896  -6.035  0.00  0.00    +0.220 A 
ATOM     24  N   LIG    1       -0.181   0.638  -6.492  0.00  0.00    -0.470 NA
BRANCH  23  25
ATOM     25  C   LIG    1        2.069   1.750  -6.700  0.00  0.00    +0.060 C 
ATOM     26  C   LIG    1        3.474   1.745  -6.093  0.00  0.00    +0.070 C 
ATOM     27  C   LIG    1        2.575   2.973  -5.933  0.00  0.00    +0.070 C 
ENDBRANCH  23  25
ENDBRANCH  19  20
ENDBRANCH   1  15
TORSDOF 5
