REMARK  Name = ZINCrD0000075rhI.0
REMARK                            x       y       z     vdW  Elec       q    Type
REMARK                         _______ _______ _______ _____ _____    ______ ____
ROOT
ATOM      1  C   LIG    1       -2.393   1.052   0.012  0.00  0.00    +0.270 C 
ENDROOT
BRANCH   1   3
ATOM      2  O   LIG    1       -3.457   3.158   0.046  0.00  0.00    -0.480 OA
ATOM      3  C   LIG    1       -3.600   1.954   0.032  0.00  0.00    +0.520 C 
ATOM      4  N   LIG    1       -4.838   1.422   0.033  0.00  0.00    -0.670 N 
ATOM      5  H   LIG    1       -4.954   0.462  -0.046  0.00  0.00    +0.420 HD
BRANCH   4   6
ATOM      6  C   LIG    1       -5.957   2.254   0.148  0.00  0.00    +0.200 A 
ATOM      7  C   LIG    1       -7.079   1.820   0.843  0.00  0.00    +0.010 A 
ATOM      8  C   LIG    1       -8.180   2.646   0.959  0.00  0.00    +0.130 A 
ATOM      9  C   LIG    1       -8.170   3.900   0.376  0.00  0.00    -0.060 A 
ATOM     10  C   LIG    1       -7.057   4.333  -0.321  0.00  0.00    +0.130 A 
ATOM     11  C   LIG    1       -5.951   3.514  -0.436  0.00  0.00    +0.040 A 
BRANCH   9  12
ATOM     12  N   LIG    1       -9.354   4.780   0.497  0.00  0.00    +0.030 N 
ATOM     13  O   LIG    1      -10.335   4.400   1.110  0.00  0.00    -0.160 OA
ATOM     14  O   LIG    1       -9.347   5.884  -0.017  0.00  0.00    -0.160 OA
ENDBRANCH   9  12
ENDBRANCH   4   6
ENDBRANCH   1   3
BRANCH   1  15
ATOM     15  O   LIG    1       -1.186   1.859   0.015  0.00  0.00    -0.330 OA
BRANCH  15  16
ATOM     16  C   LIG    1       -0.014   1.204  -0.001  0.00  0.00    +0.500 C 
ATOM     17  O   LIG    1        0.002  -0.004  -0.017  0.00  0.00    -0.490 OA
BRANCH  16  18
ATOM     18  C   LIG    1        1.280   1.975  -0.006  0.00  0.00    -0.040 C 
ATOM     19  C   LIG    1        1.680   2.500  -1.395  0.00  0.00    +0.070 C 
ATOM     20  C   LIG    1        2.414   1.161  -1.600  0.00  0.00    +0.030 C 
ATOM     21  C   LIG    1        2.530   1.080  -0.069  0.00  0.00    +0.070 C 
BRANCH  18  22
ATOM     22  C   LIG    1        1.342   3.022   1.076  0.00  0.00    -0.090 A 
ATOM     23  C   LIG    1        2.437   3.082   1.918  0.00  0.00    +0.060 A 
ATOM     24  C   LIG    1        2.496   4.045   2.907  0.00  0.00    -0.010 A 
ATOM     25  C   LIG    1        1.454   4.944   3.061  0.00  0.00    +0.100 A 
ATOM     26  C   LIG    1        0.356   4.880   2.221  0.00  0.00    -0.010 A 
ATOM     27  F   LIG    1        1.509   5.883   4.031  0.00  0.00    -0.140 F 
ATOM     28  C   LIG    1        0.301   3.919   1.229  0.00  0.00    +0.080 A 
ENDBRANCH  18  22
ENDBRANCH  16  18
ENDBRANCH  15  16
ENDBRANCH   1  15
TORSDOF 7
