REMARK  Name = ZINCpe00000VVGLU.0
REMARK                            x       y       z     vdW  Elec       q    Type
REMARK                         _______ _______ _______ _____ _____    ______ ____
ROOT
ATOM      1  C   LIG    1       -2.844   1.538   2.451  0.00  0.00    +0.210 C 
ENDROOT
BRANCH   1   2
ATOM      2  N   LIG    1       -2.106   1.126   1.249  0.00  0.00    -0.520 NA
ATOM      3  C   LIG    1       -0.657   1.273   1.445  0.00  0.00    +0.150 C 
ATOM      4  C   LIG    1        0.069   0.891   0.152  0.00  0.00    +0.230 C 
ATOM      5  O   LIG    1       -0.295  -0.442  -0.217  0.00  0.00    -0.380 OA
ATOM      6  C   LIG    1       -1.700  -0.621  -0.416  0.00  0.00    +0.220 C 
ATOM      7  C   LIG    1       -2.444  -0.255   0.871  0.00  0.00    +0.170 C 
BRANCH   6   8
ATOM      8  C   LIG    1       -1.979  -2.060  -0.767  0.00  0.00    -0.100 A 
ATOM      9  C   LIG    1       -1.290  -3.073  -0.126  0.00  0.00    +0.080 A 
ATOM     10  C   LIG    1       -1.549  -4.393  -0.443  0.00  0.00    -0.020 A 
ATOM     11  C   LIG    1       -2.490  -4.700  -1.411  0.00  0.00    +0.100 A 
ATOM     12  C   LIG    1       -3.175  -3.685  -2.056  0.00  0.00    -0.010 A 
ATOM     13  F   LIG    1       -2.740  -5.990  -1.726  0.00  0.00    -0.140 F 
ATOM     14  C   LIG    1       -2.919  -2.366  -1.733  0.00  0.00    +0.060 A 
ENDBRANCH   6   8
ENDBRANCH   1   2
BRANCH   1  17
ATOM     15  N   LIG    1       -3.151   3.600   3.782  0.00  0.00    -0.730 N 
ATOM     16  H   LIG    1       -3.613   3.065   4.446  0.00  0.00    +0.410 HD
ATOM     17  C   LIG    1       -2.667   3.019   2.666  0.00  0.00    +0.520 C 
ATOM     18  O   LIG    1       -2.089   3.687   1.836  0.00  0.00    -0.510 OA
BRANCH  15  20
ATOM     19  C   LIG    1       -1.484   5.364   3.996  0.00  0.00    +0.060 C 
ATOM     20  C   LIG    1       -2.979   5.040   3.991  0.00  0.00    +0.180 C 
ATOM     21  C   LIG    1       -3.571   5.417   5.343  0.00  0.00    +0.080 C 
ATOM     22  C   LIG    1       -4.695   6.465   5.218  0.00  0.00    -0.300 C 
ATOM     23  S   LIG    1       -5.308   6.204   3.505  0.00  0.00    +2.370 S 
ATOM     24  O   LIG    1       -5.762   7.437   2.963  0.00  0.00    -0.930 OA
ATOM     25  O   LIG    1       -6.141   5.054   3.461  0.00  0.00    -0.920 OA
ATOM     26  C   LIG    1       -3.651   5.798   2.829  0.00  0.00    -0.280 C 
ENDBRANCH  15  20
ENDBRANCH   1  17
TORSDOF 4
