REMARK  Name = ZINCrD0000071eIS.0
REMARK                            x       y       z     vdW  Elec       q    Type
REMARK                         _______ _______ _______ _____ _____    ______ ____
ROOT
ATOM      1  O   LIG    1        1.736   4.868  -2.993  0.00  0.00    -0.330 OA
ENDROOT
BRANCH   1   2
ATOM      2  C   LIG    1        1.616   3.914  -2.049  0.00  0.00    +0.510 C 
ATOM      3  O   LIG    1        1.223   2.805  -2.352  0.00  0.00    -0.490 OA
BRANCH   2   4
ATOM      4  C   LIG    1        1.963   4.215  -0.648  0.00  0.00    -0.130 A 
ATOM      5  C   LIG    1        2.410   5.490  -0.294  0.00  0.00    +0.100 A 
ATOM      6  C   LIG    1        2.738   5.764   1.016  0.00  0.00    +0.010 A 
ATOM      7  C   LIG    1        2.621   4.782   1.987  0.00  0.00    +0.070 A 
ATOM      8  C   LIG    1        2.175   3.519   1.653  0.00  0.00    +0.020 A 
ATOM      9  C   LIG    1        1.840   3.225   0.338  0.00  0.00    +0.210 A 
BRANCH   9  10
ATOM     10  N   LIG    1        1.390   1.951  -0.001  0.00  0.00    -0.580 N 
ATOM     11  C   LIG    1       -0.019   1.541   0.011  0.00  0.00    +0.270 C 
ATOM     12  C   LIG    1        0.002  -0.004   0.002  0.00  0.00    +0.040 C 
ATOM     13  C   LIG    1        1.367  -0.297  -0.662  0.00  0.00    +0.060 C 
ATOM     14  C   LIG    1        2.190   0.940  -0.380  0.00  0.00    +0.530 C 
ATOM     15  O   LIG    1        3.397   1.010  -0.481  0.00  0.00    -0.530 OA
ENDBRANCH   9  10
ENDBRANCH   2   4
ENDBRANCH   1   2
BRANCH   1  16
ATOM     16  C   LIG    1        1.377   4.500  -4.351  0.00  0.00    +0.250 C 
BRANCH  16  19
ATOM     17  N   LIG    1        1.301   5.577  -6.577  0.00  0.00    -0.720 N 
ATOM     18  H   LIG    1        0.979   4.737  -6.938  0.00  0.00    +0.400 HD
ATOM     19  C   LIG    1        1.573   5.686  -5.261  0.00  0.00    +0.520 C 
ATOM     20  O   LIG    1        1.976   6.737  -4.809  0.00  0.00    -0.510 OA
BRANCH  17  21
ATOM     21  C   LIG    1        1.492   6.730  -7.461  0.00  0.00    +0.230 C 
ATOM     22  C   LIG    1        2.951   6.786  -7.917  0.00  0.00    +0.020 C 
BRANCH  21  23
ATOM     23  C   LIG    1        0.581   6.591  -8.682  0.00  0.00    +0.020 C 
BRANCH  23  24
ATOM     24  C   LIG    1       -0.882   6.660  -8.238  0.00  0.00    +0.000 C 
BRANCH  24  25
ATOM     25  C   LIG    1       -1.793   6.522  -9.459  0.00  0.00    +0.000 C 
BRANCH  25  27
ATOM     26  C   LIG    1       -4.164   6.578 -10.246  0.00  0.00    +0.000 C 
ATOM     27  C   LIG    1       -3.256   6.591  -9.015  0.00  0.00    -0.030 C 
ATOM     28  C   LIG    1       -3.577   5.384  -8.131  0.00  0.00    +0.000 C 
ENDBRANCH  25  27
ENDBRANCH  24  25
ENDBRANCH  23  24
ENDBRANCH  21  23
ENDBRANCH  17  21
ENDBRANCH  16  19
ENDBRANCH   1  16
TORSDOF 10
