REMARK  Name = ZINCpe00000MJK19.0
REMARK                            x       y       z     vdW  Elec       q    Type
REMARK                         _______ _______ _______ _____ _____    ______ ____
ROOT
ATOM      1  C   LIG    1       -1.650   2.501   1.445  0.00  0.00    +0.540 C 
ATOM      2  N   LIG    1       -2.731   3.265   1.700  0.00  0.00    -0.620 N 
ATOM      3  C   LIG    1       -3.636   3.915   0.724  0.00  0.00    +0.250 C 
ATOM      4  C   LIG    1       -5.048   3.739   1.332  0.00  0.00    +0.160 C 
ATOM      5  C   LIG    1       -4.811   3.567   2.847  0.00  0.00    +0.100 C 
ATOM      6  C   LIG    1       -3.279   3.650   3.022  0.00  0.00    +0.280 C 
ATOM      7  O   LIG    1       -1.002   2.041   2.361  0.00  0.00    -0.520 OA
ENDROOT
BRANCH   5   8
ATOM      8  C   LIG    1       -5.486   4.677   3.611  0.00  0.00    -0.010 A 
ATOM      9  C   LIG    1       -5.006   5.925   3.820  0.00  0.00    +0.140 A 
ATOM     10  N   LIG    1       -5.943   6.572   4.551  0.00  0.00    -0.290 N 
ATOM     11  N   LIG    1       -6.919   5.760   4.766  0.00  0.00    -0.080 NA
ATOM     12  C   LIG    1       -5.862   7.957   5.019  0.00  0.00    +0.370 C 
ATOM     13  N   LIG    1       -6.679   4.623   4.213  0.00  0.00    -0.260 NA
ENDBRANCH   5   8
BRANCH   4  14
ATOM     14  O   LIG    1       -5.684   2.577   0.795  0.00  0.00    -0.370 OA
ATOM     15  C   LIG    1       -6.526   2.842  -0.329  0.00  0.00    +0.200 C 
ENDBRANCH   4  14
BRANCH   1  16
ATOM     16  C   LIG    1       -1.247   2.219   0.020  0.00  0.00    +0.150 C 
BRANCH  16  20
ATOM     17  N   LIG    1        1.293  -0.398  -0.012  0.00  0.00    -0.370 N 
ATOM     18  N   LIG    1        2.094   0.751  -0.014  0.00  0.00    -0.300 NA
ATOM     19  C   LIG    1        1.308   1.797  -0.001  0.00  0.00    +0.090 A 
ATOM     20  C   LIG    1       -0.016   1.349   0.009  0.00  0.00    -0.230 A 
ATOM     21  C   LIG    1        1.754   3.237   0.003  0.00  0.00    +0.150 C 
ATOM     22  C   LIG    1        0.002  -0.004   0.002  0.00  0.00    +0.100 A 
ATOM     23  C   LIG    1       -1.203  -0.909   0.009  0.00  0.00    +0.140 C 
BRANCH  17  25
ATOM     24  C   LIG    1        1.924  -2.257  -1.470  0.00  0.00    +0.040 C 
ATOM     25  C   LIG    1        1.771  -1.782  -0.024  0.00  0.00    +0.320 C 
ENDBRANCH  17  25
ENDBRANCH  16  20
ENDBRANCH   1  16
TORSDOF 5
