REMARK  Name = ZINCkj00000kKNEP.0
REMARK                            x       y       z     vdW  Elec       q    Type
REMARK                         _______ _______ _______ _____ _____    ______ ____
ROOT
ATOM      1  C   LIG    1        1.500   6.884  -1.027  0.00  0.00    +0.150 C 
ATOM      2  C   LIG    1        0.273   7.798  -1.024  0.00  0.00    +0.040 C 
ATOM      3  C   LIG    1       -0.991   6.959  -1.222  0.00  0.00    +0.050 C 
ATOM      4  C   LIG    1       -1.126   5.964  -0.065  0.00  0.00    +0.290 C 
ATOM      5  N   LIG    1        0.112   5.178   0.029  0.00  0.00    -0.580 N 
ATOM      6  C   LIG    1        1.393   5.888   0.138  0.00  0.00    +0.310 C 
ENDROOT
BRANCH   5   7
ATOM      7  C   LIG    1        0.071   3.790   0.022  0.00  0.00    +0.330 A 
ATOM      8  N   LIG    1        1.183   3.090  -0.039  0.00  0.00    -0.490 NA
ATOM      9  C   LIG    1        1.151   1.758  -0.046  0.00  0.00    +0.180 A 
ATOM     10  C   LIG    1       -0.013   1.076   0.008  0.00  0.00    +0.200 A 
ATOM     11  N   LIG    1       -1.206   1.732   0.067  0.00  0.00    -0.480 N 
ATOM     12  C   LIG    1       -2.464   0.982   0.118  0.00  0.00    +0.340 C 
ATOM     13  C   LIG    1       -1.214   3.084   0.082  0.00  0.00    +0.480 A 
ATOM     14  O   LIG    1       -2.264   3.701   0.138  0.00  0.00    -0.520 OA
ENDBRANCH   5   7
BRANCH   1  15
ATOM     15  N   LIG    1        2.715   7.694  -0.868  0.00  0.00    -0.500 N 
ATOM     16  H   LIG    1        3.517   7.086  -0.788  0.00  0.00    +0.430 HD
ATOM     17  H   LIG    1        2.637   8.258  -0.035  0.00  0.00    +0.430 HD
BRANCH  15  18
ATOM     18  C   LIG    1        2.878   8.568  -2.038  0.00  0.00    +0.250 C 
BRANCH  18  19
ATOM     19  C   LIG    1        4.144   9.411  -1.872  0.00  0.00    -0.030 C 
ATOM     20  C   LIG    1        5.370   8.497  -1.876  0.00  0.00    +0.040 C 
BRANCH  19  22
ATOM     21  C   LIG    1        5.443  11.334  -2.798  0.00  0.00    +0.030 C 
ATOM     22  C   LIG    1        4.247  10.408  -3.028  0.00  0.00    +0.020 C 
ENDBRANCH  19  22
ENDBRANCH  18  19
ENDBRANCH  15  18
ENDBRANCH   1  15
TORSDOF 5
