REMARK  Name = ZINCrD000000fLEQ.0
REMARK                            x       y       z     vdW  Elec       q    Type
REMARK                         _______ _______ _______ _____ _____    ______ ____
ROOT
ATOM      1  C   LIG    1       -8.193   3.234   4.781  0.00  0.00    +0.520 C 
ATOM      2  N   LIG    1       -8.999   3.566   5.809  0.00  0.00    -0.690 N 
ATOM      3  H   LIG    1       -8.618   3.760   6.680  0.00  0.00    +0.410 HD
ATOM      4  C   LIG    1      -10.333   3.629   5.627  0.00  0.00    +0.690 C 
ATOM      5  N   LIG    1      -11.138   3.961   6.655  0.00  0.00    -0.670 N 
ATOM      6  H   LIG    1      -10.754   4.222   7.507  0.00  0.00    +0.410 HD
ATOM      7  O   LIG    1      -10.809   3.386   4.536  0.00  0.00    -0.510 OA
ATOM      8  O   LIG    1       -8.669   2.991   3.692  0.00  0.00    -0.460 OA
ENDROOT
BRANCH   5   9
ATOM      9  C   LIG    1      -12.528   3.930   6.494  0.00  0.00    +0.160 A 
ATOM     10  C   LIG    1      -13.095   4.276   5.275  0.00  0.00    +0.020 A 
ATOM     11  C   LIG    1      -14.467   4.239   5.118  0.00  0.00    +0.030 A 
ATOM     12  C   LIG    1      -15.275   3.868   6.176  0.00  0.00    -0.010 A 
ATOM     13  C   LIG    1      -14.714   3.528   7.393  0.00  0.00    -0.070 A 
ATOM     14  C   LIG    1      -15.599   3.123   8.544  0.00  0.00    +0.090 C 
ATOM     15  C   LIG    1      -13.343   3.558   7.555  0.00  0.00    -0.110 A 
ATOM     16  C   LIG    1      -12.732   3.186   8.882  0.00  0.00    +0.090 C 
ENDBRANCH   5   9
BRANCH   1  17
ATOM     17  C   LIG    1       -6.702   3.164   4.984  0.00  0.00    +0.310 C 
BRANCH  17  18
ATOM     18  N   LIG    1       -6.055   2.785   3.725  0.00  0.00    -0.740 N 
ATOM     19  H   LIG    1       -6.591   2.624   2.933  0.00  0.00    +0.410 HD
BRANCH  18  24
ATOM     20  C   LIG    1       -2.671   2.170   2.419  0.00  0.00    +0.190 A 
ATOM     21  C   LIG    1       -1.908   2.402   3.556  0.00  0.00    -0.040 A 
ATOM     22  C   LIG    1       -2.522   2.758   4.741  0.00  0.00    +0.070 A 
ATOM     23  C   LIG    1       -3.896   2.885   4.800  0.00  0.00    -0.090 A 
ATOM     24  C   LIG    1       -4.665   2.655   3.666  0.00  0.00    +0.240 A 
ATOM     25  C   LIG    1       -4.051   2.302   2.473  0.00  0.00    -0.190 A 
ATOM     26  C   LIG    1       -4.882   2.057   1.239  0.00  0.00    +0.090 C 
BRANCH  20  29
ATOM     27  C   LIG    1       -0.056   1.661  -0.239  0.00  0.00    +0.110 C 
ATOM     28  C   LIG    1       -0.765   2.155   0.995  0.00  0.00    +0.510 C 
ATOM     29  N   LIG    1       -2.048   1.809   1.219  0.00  0.00    -0.670 N 
ATOM     30  H   LIG    1       -2.540   1.310   0.548  0.00  0.00    +0.410 HD
ATOM     31  O   LIG    1       -0.181   2.864   1.787  0.00  0.00    -0.520 OA
ENDBRANCH  20  29
ENDBRANCH  18  24
ENDBRANCH  17  18
ENDBRANCH   1  17
TORSDOF 5
