REMARK  Name = ZINCrD000006VuXP.0
REMARK                            x       y       z     vdW  Elec       q    Type
REMARK                         _______ _______ _______ _____ _____    ______ ____
ROOT
ATOM      1  S   LIG    1        2.198   3.601  -2.605  0.00  0.00    +2.700 S 
ATOM      2  O   LIG    1        1.328   2.494  -2.796  0.00  0.00    -0.940 OA
ATOM      3  O   LIG    1        3.538   3.626  -3.077  0.00  0.00    -0.940 OA
ENDROOT
BRANCH   1   9
ATOM      4  O   LIG    1       -2.967   8.433  -5.330  0.00  0.00    -0.490 OA
ATOM      5  C   LIG    1       -2.016   7.789  -4.939  0.00  0.00    +0.530 C 
ATOM      6  C   LIG    1       -2.059   6.409  -4.319  0.00  0.00    +0.140 C 
ATOM      7  C   LIG    1       -0.610   6.093  -4.026  0.00  0.00    -0.160 A 
ATOM      8  C   LIG    1        0.016   5.000  -3.472  0.00  0.00    +0.190 A 
ATOM      9  C   LIG    1        1.392   4.995  -3.320  0.00  0.00    -0.700 A 
ATOM     10  C   LIG    1        2.133   6.086  -3.736  0.00  0.00    +0.170 A 
ATOM     11  C   LIG    1        1.508   7.181  -4.296  0.00  0.00    -0.020 A 
ATOM     12  C   LIG    1        0.123   7.195  -4.447  0.00  0.00    +0.200 A 
ATOM     13  N   LIG    1       -0.727   8.167  -4.975  0.00  0.00    -0.660 N 
ATOM     14  H   LIG    1       -0.423   9.018  -5.328  0.00  0.00    +0.420 HD
ENDBRANCH   1   9
BRANCH   1  15
ATOM     15  N   LIG    1        2.272   3.862  -0.972  0.00  0.00    -1.010 NA
ATOM     16  C   LIG    1        3.371   4.539  -0.253  0.00  0.00    +0.290 C 
ATOM     17  C   LIG    1        2.724   5.072   1.049  0.00  0.00    +0.040 C 
ATOM     18  C   LIG    1        1.734   3.930   1.396  0.00  0.00    +0.060 C 
ATOM     19  C   LIG    1        1.254   3.455   0.008  0.00  0.00    +0.340 C 
BRANCH  19  20
ATOM     20  C   LIG    1        1.107   1.955   0.002  0.00  0.00    +0.080 A 
ATOM     21  N   LIG    1       -0.016   1.343   0.009  0.00  0.00    -0.450 NA
ATOM     22  C   LIG    1        0.002  -0.004   0.002  0.00  0.00    +0.090 A 
ATOM     23  C   LIG    1       -1.070  -0.919   0.007  0.00  0.00    +0.080 A 
ATOM     24  C   LIG    1       -0.832  -2.260  -0.002  0.00  0.00    +0.030 A 
ATOM     25  C   LIG    1        0.465  -2.751  -0.017  0.00  0.00    +0.040 A 
ATOM     26  C   LIG    1        1.532  -1.881  -0.023  0.00  0.00    +0.060 A 
ATOM     27  C   LIG    1        1.308  -0.506  -0.013  0.00  0.00    -0.180 A 
ATOM     28  S   LIG    1        2.417   0.862  -0.016  0.00  0.00    +0.110 S 
ENDBRANCH  19  20
ENDBRANCH   1  15
TORSDOF 3
