REMARK  Name = ZINCnE000001OTiJ.0
REMARK                            x       y       z     vdW  Elec       q    Type
REMARK                         _______ _______ _______ _____ _____    ______ ____
ROOT
ATOM      1  S   LIG    1       -6.696   0.770   1.081  0.00  0.00    +2.560 S 
ATOM      2  O   LIG    1       -6.548  -0.640   1.166  0.00  0.00    -1.010 OA
ATOM      3  O   LIG    1       -7.302   1.377  -0.053  0.00  0.00    -1.010 OA
ENDROOT
BRANCH   1   4
ATOM      4  N   LIG    1       -5.143   1.344   1.069  0.00  0.00    -1.130 NA
ATOM      5  C   LIG    1       -4.318   1.035   0.049  0.00  0.00    +0.530 C 
ATOM      6  O   LIG    1       -4.714   0.337  -0.861  0.00  0.00    -0.630 OA
BRANCH   5   7
ATOM      7  C   LIG    1       -2.904   1.556   0.038  0.00  0.00    +0.000 C 
ATOM      8  C   LIG    1       -2.164   1.050   1.278  0.00  0.00    +0.030 C 
ATOM      9  C   LIG    1       -0.729   1.579   1.267  0.00  0.00    -0.010 C 
ATOM     10  C   LIG    1       -0.013   1.086   0.008  0.00  0.00    +0.000 C 
ATOM     11  C   LIG    1       -0.753   1.593  -1.232  0.00  0.00    -0.070 C 
ATOM     12  C   LIG    1       -0.037   1.099  -2.490  0.00  0.00    +0.010 C 
ATOM     13  C   LIG    1       -0.773   3.123  -1.223  0.00  0.00    +0.020 C 
ATOM     14  C   LIG    1       -2.188   1.063  -1.221  0.00  0.00    +0.030 C 
ENDBRANCH   5   7
ENDBRANCH   1   4
BRANCH   1  15
ATOM     15  C   LIG    1       -7.410   1.430   2.613  0.00  0.00    -0.310 C 
BRANCH  15  21
ATOM     16  C   LIG    1      -12.285   2.152   1.742  0.00  0.00    +0.090 C 
ATOM     17  C   LIG    1      -11.173   1.317   2.322  0.00  0.00    -0.080 A 
ATOM     18  C   LIG    1      -11.464   0.131   2.969  0.00  0.00    -0.010 A 
ATOM     19  C   LIG    1      -10.444  -0.635   3.501  0.00  0.00    -0.090 A 
ATOM     20  C   LIG    1       -9.132  -0.215   3.386  0.00  0.00    +0.010 A 
ATOM     21  C   LIG    1       -8.840   0.971   2.738  0.00  0.00    -0.070 A 
ATOM     22  C   LIG    1      -10.761  -1.928   4.207  0.00  0.00    +0.090 C 
ATOM     23  C   LIG    1       -9.861   1.740   2.211  0.00  0.00    +0.010 A 
ENDBRANCH  15  21
ENDBRANCH   1  15
TORSDOF 4
