REMARK  Name = ZINCqH0000037wmq.0
REMARK                            x       y       z     vdW  Elec       q    Type
REMARK                         _______ _______ _______ _____ _____    ______ ____
ROOT
ATOM      1  N   LIG    1        0.885   0.472   2.540  0.00  0.00    -0.750 N 
ATOM      2  H   LIG    1        1.229   0.238   3.417  0.00  0.00    +0.400 HD
ATOM      3  C   LIG    1       -0.222   1.232   2.431  0.00  0.00    +0.710 C 
ATOM      4  N   LIG    1       -0.910   1.583   3.536  0.00  0.00    -0.630 N 
ATOM      5  C   LIG    1       -2.176   2.324   3.433  0.00  0.00    +0.320 C 
ATOM      6  C   LIG    1       -3.236   1.586   4.265  0.00  0.00    +0.180 C 
ATOM      7  N   LIG    1       -2.735   1.401   5.634  0.00  0.00    -0.500 N 
ATOM      8  C   LIG    1       -1.538   0.549   5.652  0.00  0.00    +0.180 C 
ATOM      9  C   LIG    1       -0.412   1.240   4.876  0.00  0.00    +0.280 C 
ATOM     10  O   LIG    1       -0.600   1.602   1.336  0.00  0.00    -0.590 OA
ENDROOT
BRANCH   7  11
ATOM     11  C   LIG    1       -3.730   0.884   6.465  0.00  0.00    +0.130 A 
ATOM     12  C   LIG    1       -4.213   1.640   7.542  0.00  0.00    -0.080 A 
ATOM     13  C   LIG    1       -3.906   2.971   8.069  0.00  0.00    -0.030 A 
ATOM     14  C   LIG    1       -4.698   3.164   9.135  0.00  0.00    +0.210 A 
ATOM     15  N   LIG    1       -5.488   2.063   9.333  0.00  0.00    -0.600 N 
ATOM     16  H   LIG    1       -6.142   1.966  10.043  0.00  0.00    +0.420 HD
ATOM     17  C   LIG    1       -5.215   1.113   8.375  0.00  0.00    +0.100 A 
ATOM     18  C   LIG    1       -5.718  -0.160   8.120  0.00  0.00    -0.010 A 
ATOM     19  C   LIG    1       -5.235  -0.893   7.058  0.00  0.00    +0.040 A 
ATOM     20  C   LIG    1       -4.250  -0.376   6.229  0.00  0.00    -0.060 A 
ENDBRANCH   7  11
BRANCH   1  21
ATOM     21  C   LIG    1        1.570  -0.002   1.335  0.00  0.00    +0.280 C 
BRANCH  21  22
ATOM     22  C   LIG    1        2.788  -0.837   1.735  0.00  0.00    +0.070 C 
BRANCH  22  24
ATOM     23  C   LIG    1        2.596  -1.660  -0.712  0.00  0.00    +0.090 C 
ATOM     24  C   LIG    1        3.503  -1.332   0.476  0.00  0.00    -0.100 C 
ATOM     25  C   LIG    1        4.883  -0.747   0.172  0.00  0.00    +0.090 C 
ATOM     26  C   LIG    1        4.756  -2.190   0.667  0.00  0.00    +0.100 C 
ATOM     27 CL   LIG    1        5.276  -2.540   2.357  0.00  0.00    -0.110 Cl
ATOM     28  F   LIG    1        4.985  -3.213  -0.259  0.00  0.00    -0.150 F 
ENDBRANCH  22  24
ENDBRANCH  21  22
ENDBRANCH   1  21
TORSDOF 4
