REMARK  Name = ZINCrD0000074Jjt.0
REMARK                            x       y       z     vdW  Elec       q    Type
REMARK                         _______ _______ _______ _____ _____    ______ ____
ROOT
ATOM      1  O   LIG    1        0.901   6.017  -0.568  0.00  0.00    -0.330 OA
ENDROOT
BRANCH   1   2
ATOM      2  C   LIG    1       -0.219   5.282  -0.428  0.00  0.00    +0.510 C 
ATOM      3  O   LIG    1       -1.308   5.816  -0.490  0.00  0.00    -0.490 OA
BRANCH   2  10
ATOM      4  C   LIG    1       -2.615   3.761   0.138  0.00  0.00    +0.120 C 
ATOM      5  C   LIG    1       -1.271   3.081   0.074  0.00  0.00    +0.040 A 
ATOM      6  C   LIG    1       -1.175   1.720   0.280  0.00  0.00    +0.000 A 
ATOM      7  C   LIG    1        0.059   1.095   0.228  0.00  0.00    +0.170 A 
ATOM      8  C   LIG    1        1.201   1.827  -0.043  0.00  0.00    -0.680 A 
ATOM      9  C   LIG    1        1.118   3.187  -0.257  0.00  0.00    +0.200 A 
ATOM     10  C   LIG    1       -0.122   3.825  -0.200  0.00  0.00    -0.150 A 
BRANCH   8  11
ATOM     11  S   LIG    1        2.766   1.019  -0.115  0.00  0.00    +2.500 S 
ATOM     12  O   LIG    1        2.608  -0.125   0.713  0.00  0.00    -0.930 OA
ATOM     13  O   LIG    1        3.701   2.038   0.213  0.00  0.00    -0.930 OA
ATOM     14  C   LIG    1        2.942   0.528  -1.852  0.00  0.00    -0.250 C 
ENDBRANCH   8  11
ENDBRANCH   2  10
ENDBRANCH   1   2
BRANCH   1  15
ATOM     15  C   LIG    1        0.731   7.442  -0.790  0.00  0.00    +0.240 C 
BRANCH  15  16
ATOM     16  C   LIG    1        2.082   8.095  -0.922  0.00  0.00    +0.400 C 
ATOM     17  O   LIG    1        3.090   7.426  -0.837  0.00  0.00    -0.420 OA
BRANCH  16  18
ATOM     18  C   LIG    1        2.179   9.545  -1.153  0.00  0.00    -0.170 A 
ATOM     19  C   LIG    1        1.021  10.322  -1.258  0.00  0.00    +0.050 A 
ATOM     20  C   LIG    1        1.129  11.677  -1.473  0.00  0.00    +0.000 A 
ATOM     21  C   LIG    1        2.376  12.281  -1.598  0.00  0.00    -0.040 A 
ATOM     22  C   LIG    1        2.409  13.766  -1.852  0.00  0.00    +0.070 C 
ATOM     23  C   LIG    1        3.789  14.335  -1.529  0.00  0.00    +0.020 C 
ATOM     24  C   LIG    1        4.842  13.495  -2.261  0.00  0.00    +0.020 C 
ATOM     25  C   LIG    1        4.902  12.118  -1.603  0.00  0.00    +0.080 C 
ATOM     26  C   LIG    1        3.522  11.521  -1.495  0.00  0.00    -0.090 A 
ATOM     27  C   LIG    1        3.428  10.157  -1.276  0.00  0.00    +0.090 A 
ENDBRANCH  16  18
ENDBRANCH  15  16
ENDBRANCH   1  15
TORSDOF 6
