REMARK  Name = ZINCpe000027pHua.0
REMARK                            x       y       z     vdW  Elec       q    Type
REMARK                         _______ _______ _______ _____ _____    ______ ____
ROOT
ATOM      1  C   LIG    1        0.081  -0.172   0.261  0.00  0.00    +0.160 C 
ATOM      2  C   LIG    1       -0.155   1.361   0.213  0.00  0.00    +0.060 C 
ATOM      3  C   LIG    1        1.274   1.926   0.072  0.00  0.00    +0.230 C 
ATOM      4  N   LIG    1        2.200   0.901   0.575  0.00  0.00    -0.620 N 
ATOM      5  C   LIG    1        3.544   1.003   0.605  0.00  0.00    +0.520 C 
ATOM      6  O   LIG    1        4.090   1.966   0.109  0.00  0.00    -0.490 OA
ATOM      7  C   LIG    1        1.416  -0.257   1.042  0.00  0.00    +0.250 C 
ENDROOT
BRANCH   1   9
ATOM      8  C   LIG    1       -1.228  -2.163   0.524  0.00  0.00    +0.210 C 
ATOM      9  O   LIG    1       -0.971  -0.830   0.971  0.00  0.00    -0.370 OA
ENDBRANCH   1   9
BRANCH   5  10
ATOM     10  C   LIG    1        4.367  -0.079   1.254  0.00  0.00    +0.360 C 
BRANCH  10  11
ATOM     11  N   LIG    1        5.788   0.264   1.157  0.00  0.00    -0.370 N 
ATOM     12  C   LIG    1        6.657   0.352   2.186  0.00  0.00    +0.230 A 
ATOM     13  C   LIG    1        7.865   0.690   1.679  0.00  0.00    -0.200 A 
ATOM     14  C   LIG    1        7.730   0.812   0.292  0.00  0.00    +0.230 A 
ATOM     15  N   LIG    1        6.487   0.552  -0.023  0.00  0.00    -0.260 NA
BRANCH  13  16
ATOM     16  C   LIG    1        9.131   0.898   2.468  0.00  0.00    +0.030 C 
ATOM     17  C   LIG    1       10.340   1.472   1.727  0.00  0.00    +0.010 C 
ATOM     18  C   LIG    1       10.325  -0.001   2.139  0.00  0.00    +0.000 C 
ENDBRANCH  13  16
ENDBRANCH  10  11
ENDBRANCH   5  10
BRANCH   3  19
ATOM     19  C   LIG    1        1.412   3.204   0.902  0.00  0.00    +0.320 C 
BRANCH  19  20
ATOM     20  N   LIG    1        0.537   4.241   0.350  0.00  0.00    -0.370 N 
ATOM     21  C   LIG    1       -0.420   4.913   1.025  0.00  0.00    +0.250 A 
ATOM     22  C   LIG    1       -1.000   5.783   0.168  0.00  0.00    -0.160 A 
ATOM     23  C   LIG    1       -0.380   5.632  -1.083  0.00  0.00    +0.340 A 
ATOM     24  N   LIG    1        0.542   4.705  -0.971  0.00  0.00    -0.350 NA
BRANCH  23  25
ATOM     25  N   LIG    1       -0.692   6.345  -2.247  0.00  0.00    -0.850 N 
ATOM     26  H   LIG    1       -1.394   7.014  -2.232  0.00  0.00    +0.410 HD
ATOM     27  H   LIG    1       -0.207   6.169  -3.068  0.00  0.00    +0.400 HD
ENDBRANCH  23  25
ENDBRANCH  19  20
ENDBRANCH   3  19
TORSDOF 7
