REMARK  Name = ZINCnE000001NS6V.0
REMARK                            x       y       z     vdW  Elec       q    Type
REMARK                         _______ _______ _______ _____ _____    ______ ____
ROOT
ATOM      1  S   LIG    1       -5.840   8.681   0.104  0.00  0.00    +0.030 S 
ENDROOT
BRANCH   1   2
ATOM      2  C   LIG    1       -4.684   7.351   0.086  0.00  0.00    -0.080 A 
ATOM      3  N   LIG    1       -4.954   6.084   0.082  0.00  0.00    -0.250 NA
ATOM      4  N   LIG    1       -3.910   5.186   0.068  0.00  0.00    -0.510 NA
ATOM      5  C   LIG    1       -2.654   5.721   0.058  0.00  0.00    +0.340 A 
ATOM      6  N   LIG    1       -1.510   5.081   0.044  0.00  0.00    -0.630 NA
ATOM      7  S   LIG    1       -2.916   7.475   0.077  0.00  0.00    -0.100 S 
BRANCH   6   8
ATOM      8  C   LIG    1       -1.490   3.616   0.036  0.00  0.00    +0.170 C 
ATOM      9  C   LIG    1       -0.773   3.123  -1.223  0.00  0.00    +0.010 C 
ATOM     10  C   LIG    1       -0.753   1.593  -1.232  0.00  0.00    -0.010 C 
ATOM     11  C   LIG    1       -0.013   1.086   0.008  0.00  0.00    +0.000 C 
ATOM     12  C   LIG    1       -0.729   1.579   1.267  0.00  0.00    -0.010 C 
ATOM     13  C   LIG    1       -0.750   3.109   1.275  0.00  0.00    +0.010 C 
ENDBRANCH   6   8
ENDBRANCH   1   2
BRANCH   1  15
ATOM     14  C   LIG    1       -7.593   7.044   1.419  0.00  0.00    +0.080 C 
ATOM     15  C   LIG    1       -7.442   7.829   0.115  0.00  0.00    +0.020 C 
BRANCH  15  16
ATOM     16  C   LIG    1       -8.551   8.843   0.006  0.00  0.00    +0.550 C 
ATOM     17  N   LIG    1       -9.776   8.460  -0.405  0.00  0.00    -0.730 N 
ATOM     18  H   LIG    1       -9.944   7.532  -0.632  0.00  0.00    +0.410 HD
ATOM     19  O   LIG    1       -8.341  10.003   0.290  0.00  0.00    -0.510 OA
BRANCH  17  20
ATOM     20  C   LIG    1      -10.855   9.447  -0.510  0.00  0.00    +0.320 C 
BRANCH  20  21
ATOM     21  C   LIG    1      -12.131   8.757  -0.996  0.00  0.00    +0.450 C 
ATOM     22  F   LIG    1      -11.902   8.181  -2.250  0.00  0.00    -0.180 F 
ATOM     23  F   LIG    1      -13.161   9.698  -1.096  0.00  0.00    -0.170 F 
ATOM     24  F   LIG    1      -12.498   7.760  -0.086  0.00  0.00    -0.180 F 
ENDBRANCH  20  21
ENDBRANCH  17  20
ENDBRANCH  15  16
ENDBRANCH   1  15
TORSDOF 6
