REMARK  Name = ZINCqH0000002KAX.2
REMARK                            x       y       z     vdW  Elec       q    Type
REMARK                         _______ _______ _______ _____ _____    ______ ____
ROOT
ATOM      1  N   LIG    1       -0.421   1.389   0.095  0.00  0.00    -0.720 N 
ATOM      2  H   LIG    1       -1.227   1.925   0.027  0.00  0.00    +0.400 HD
ATOM      3  C   LIG    1       -0.508   0.044   0.134  0.00  0.00    +0.530 C 
ATOM      4  O   LIG    1        0.500  -0.626   0.213  0.00  0.00    -0.520 OA
ENDROOT
BRANCH   1   5
ATOM      5  C   LIG    1        0.890   2.040   0.147  0.00  0.00    +0.280 C 
BRANCH   5   6
ATOM      6  C   LIG    1        0.715   3.552  -0.011  0.00  0.00    +0.030 C 
BRANCH   6   7
ATOM      7  C   LIG    1        2.045   4.234   0.180  0.00  0.00    -0.060 A 
ATOM      8  C   LIG    1        3.104   3.931  -0.654  0.00  0.00    +0.050 A 
ATOM      9  C   LIG    1        4.324   4.557  -0.479  0.00  0.00    +0.040 A 
ATOM     10  C   LIG    1        4.486   5.487   0.532  0.00  0.00    -0.030 A 
ATOM     11  C   LIG    1        3.426   5.791   1.368  0.00  0.00    +0.050 A 
ATOM     12 CL   LIG    1        6.018   6.273   0.752  0.00  0.00    -0.050 Cl
ATOM     13  C   LIG    1        2.204   5.168   1.189  0.00  0.00    -0.020 A 
ATOM     14 CL   LIG    1        0.872   5.554   2.233  0.00  0.00    -0.050 Cl
ENDBRANCH   6   7
BRANCH   6  15
ATOM     15  C   LIG    1        0.181   3.859  -1.412  0.00  0.00    +0.030 C 
BRANCH  15  17
ATOM     16  C   LIG    1       -0.768   5.643  -2.881  0.00  0.00    +0.000 C 
ATOM     17  C   LIG    1       -0.117   5.356  -1.527  0.00  0.00    +0.000 C 
ENDBRANCH  15  17
ENDBRANCH   6  15
ENDBRANCH   5   6
ENDBRANCH   1   5
BRANCH   3  18
ATOM     18  C   LIG    1       -1.856  -0.626   0.080  0.00  0.00    +0.090 C 
BRANCH  18  19
ATOM     19  S   LIG    1       -1.641  -2.422   0.152  0.00  0.00    +0.090 S 
BRANCH  19  20
ATOM     20  C   LIG    1       -3.325  -2.935   0.074  0.00  0.00    +0.360 A 
ATOM     21  N   LIG    1       -4.277  -2.017  -0.005  0.00  0.00    -0.620 NA
ATOM     22  C   LIG    1       -5.559  -2.368  -0.071  0.00  0.00    +0.480 A 
ATOM     23  C   LIG    1       -5.894  -3.718  -0.045  0.00  0.00    -0.230 A 
ATOM     24  C   LIG    1       -4.867  -4.654   0.044  0.00  0.00    +0.480 A 
ATOM     25  N   LIG    1       -3.607  -4.230   0.101  0.00  0.00    -0.590 NA
BRANCH  24  26
ATOM     26  N   LIG    1       -5.153  -6.010   0.073  0.00  0.00    -0.840 N 
ATOM     27  H   LIG    1       -6.074  -6.312   0.031  0.00  0.00    +0.410 HD
ATOM     28  H   LIG    1       -4.433  -6.657   0.135  0.00  0.00    +0.410 HD
ENDBRANCH  24  26
BRANCH  22  29
ATOM     29  N   LIG    1       -6.548  -1.400  -0.159  0.00  0.00    -0.840 N 
ATOM     30  H   LIG    1       -6.307  -0.461  -0.177  0.00  0.00    +0.410 HD
ATOM     31  H   LIG    1       -7.481  -1.663  -0.204  0.00  0.00    +0.410 HD
ENDBRANCH  22  29
ENDBRANCH  19  20
ENDBRANCH  18  19
ENDBRANCH   3  18
TORSDOF 10
