REMARK  Name = ZINCpe00000MJKWn.0
REMARK                            x       y       z     vdW  Elec       q    Type
REMARK                         _______ _______ _______ _____ _____    ______ ____
ROOT
ATOM      1  C   LIG    1       -0.856  10.129  -2.407  0.00  0.00    -0.020 C 
ATOM      2  C   LIG    1       -2.133   9.338  -2.701  0.00  0.00    +0.020 C 
ATOM      3  C   LIG    1       -1.762   7.989  -3.325  0.00  0.00    +0.270 C 
ATOM      4  N   LIG    1       -0.817   7.301  -2.436  0.00  0.00    -0.610 N 
ATOM      5  C   LIG    1        0.399   8.008  -2.013  0.00  0.00    +0.260 C 
ATOM      6  C   LIG    1       -1.064   6.045  -2.011  0.00  0.00    +0.500 C 
ATOM      7  O   LIG    1       -2.074   5.474  -2.363  0.00  0.00    -0.530 OA
ATOM      8  C   LIG    1        0.007   9.354  -1.408  0.00  0.00    +0.040 C 
ENDROOT
BRANCH   1   9
ATOM      9  C   LIG    1       -1.224  11.491  -1.815  0.00  0.00    +0.330 C 
BRANCH   9  13
ATOM     10  C   LIG    1        2.095  15.236  -2.101  0.00  0.00    +0.110 C 
ATOM     11  C   LIG    1        1.440  13.921  -1.766  0.00  0.00    -0.240 A 
ATOM     12  C   LIG    1        0.204  13.526  -2.151  0.00  0.00    +0.220 A 
ATOM     13  N   LIG    1       -0.010  12.293  -1.645  0.00  0.00    -0.370 N 
ATOM     14  N   LIG    1        1.136  11.914  -0.934  0.00  0.00    -0.290 NA
ATOM     15  C   LIG    1        2.004  12.890  -1.007  0.00  0.00    +0.230 A 
ENDBRANCH   9  13
ENDBRANCH   1   9
BRANCH   6  16
ATOM     16  C   LIG    1       -0.085   5.352  -1.099  0.00  0.00    +0.310 C 
BRANCH  16  17
ATOM     17  N   LIG    1       -0.578   4.009  -0.783  0.00  0.00    -0.590 N 
ATOM     18  C   LIG    1       -1.442   3.804   0.391  0.00  0.00    +0.280 C 
ATOM     19  C   LIG    1       -0.639   3.072   1.468  0.00  0.00    +0.010 C 
ATOM     20  C   LIG    1       -0.711   1.569   1.266  0.00  0.00    +0.030 C 
ATOM     21  C   LIG    1       -0.013   1.086   0.008  0.00  0.00    +0.050 C 
ATOM     22  C   LIG    1       -0.741   1.587  -1.242  0.00  0.00    +0.180 C 
ATOM     23  C   LIG    1       -0.242   2.980  -1.562  0.00  0.00    +0.490 C 
ATOM     24  O   LIG    1        0.466   3.161  -2.530  0.00  0.00    -0.530 OA
BRANCH  22  25
ATOM     25  O   LIG    1       -0.470   0.712  -2.338  0.00  0.00    -0.540 OA
ATOM     26  H   LIG    1       -0.901   0.971  -3.164  0.00  0.00    +0.390 HD
ENDBRANCH  22  25
ENDBRANCH  16  17
ENDBRANCH   6  16
TORSDOF 5
