REMARK  Name = ZINCrH000004o1Ns.0
REMARK                            x       y       z     vdW  Elec       q    Type
REMARK                         _______ _______ _______ _____ _____    ______ ____
ROOT
ATOM      1  N   LIG    1        2.193   0.511  -0.712  0.00  0.00    -0.500 NA
ATOM      2  C   LIG    1        2.046  -0.525   0.319  0.00  0.00    +0.190 C 
ENDROOT
BRANCH   1   4
ATOM      3  C   LIG    1        1.969   2.498   0.703  0.00  0.00    +0.030 C 
ATOM      4  C   LIG    1        1.338   1.669  -0.418  0.00  0.00    +0.170 C 
BRANCH   4   5
ATOM      5  C   LIG    1        1.202   2.520  -1.655  0.00  0.00    +0.510 C 
ATOM      6  N   LIG    1        0.217   3.436  -1.738  0.00  0.00    -0.680 N 
ATOM      7  H   LIG    1       -0.367   3.590  -0.980  0.00  0.00    +0.410 HD
ATOM      8  O   LIG    1        1.983   2.383  -2.574  0.00  0.00    -0.470 OA
BRANCH   6   9
ATOM      9  C   LIG    1        0.038   4.165  -2.919  0.00  0.00    +0.160 A 
ATOM     10  C   LIG    1        1.138   4.549  -3.674  0.00  0.00    +0.040 A 
ATOM     11  C   LIG    1        0.958   5.263  -4.842  0.00  0.00    +0.040 A 
ATOM     12  C   LIG    1       -0.317   5.606  -5.255  0.00  0.00    +0.020 A 
ATOM     13  C   LIG    1       -1.415   5.230  -4.503  0.00  0.00    -0.070 A 
ATOM     14 BR   LIG    1       -3.156   5.700  -5.071  0.00  0.00    -0.050 Br
ATOM     15  C   LIG    1       -1.241   4.510  -3.336  0.00  0.00    +0.010 A 
ENDBRANCH   6   9
ENDBRANCH   4   5
ENDBRANCH   1   4
BRANCH   1  16
ATOM     16  C   LIG    1        3.598   0.916  -0.855  0.00  0.00    +0.240 C 
BRANCH  16  17
ATOM     17  C   LIG    1        4.401  -0.240  -1.393  0.00  0.00    -0.060 A 
ATOM     18  C   LIG    1        5.158  -1.014  -0.535  0.00  0.00    +0.010 A 
ATOM     19  C   LIG    1        5.895  -2.075  -1.028  0.00  0.00    +0.000 A 
ATOM     20  C   LIG    1        5.878  -2.364  -2.380  0.00  0.00    +0.010 A 
ATOM     21  C   LIG    1        5.123  -1.594  -3.243  0.00  0.00    -0.030 A 
ATOM     22  C   LIG    1        4.377  -0.531  -2.751  0.00  0.00    +0.110 A 
BRANCH  22  23
ATOM     23  N   LIG    1        3.609   0.246  -3.620  0.00  0.00    -0.470 N 
ATOM     24  C   LIG    1        2.542  -0.554  -4.240  0.00  0.00    +0.160 C 
ATOM     25  C   LIG    1        1.690   0.349  -5.136  0.00  0.00    +0.230 C 
ATOM     26  O   LIG    1        2.530   0.976  -6.109  0.00  0.00    -0.390 OA
ATOM     27  C   LIG    1        3.580   1.764  -5.541  0.00  0.00    +0.230 C 
ATOM     28  C   LIG    1        4.451   0.876  -4.648  0.00  0.00    +0.150 C 
ENDBRANCH  22  23
ENDBRANCH  16  17
ENDBRANCH   1  16
TORSDOF 6
