REMARK  Name = ZINCrD00000nZUU8.0
REMARK                            x       y       z     vdW  Elec       q    Type
REMARK                         _______ _______ _______ _____ _____    ______ ____
ROOT
ATOM      1  C   LIG    1        1.924  -1.882   3.150  0.00  0.00    -0.690 A 
ATOM      2  C   LIG    1        1.872  -0.502   3.095  0.00  0.00    +0.140 A 
ATOM      3  C   LIG    1        1.237   0.129   2.041  0.00  0.00    -0.070 A 
ATOM      4  C   LIG    1        0.641  -0.622   1.042  0.00  0.00    +0.150 A 
ATOM      5  C   LIG    1        0.693  -2.014   1.096  0.00  0.00    +0.100 A 
ATOM      6  C   LIG    1        1.337  -2.639   2.154  0.00  0.00    +0.170 A 
ENDROOT
BRANCH   5   7
ATOM      7  N   LIG    1        0.098  -2.779   0.085  0.00  0.00    -0.660 N 
ATOM      8  H   LIG    1       -0.027  -2.401  -0.799  0.00  0.00    +0.420 HD
ATOM      9  C   LIG    1       -0.302  -4.040   0.342  0.00  0.00    +0.550 C 
ATOM     10  O   LIG    1       -0.238  -4.480   1.475  0.00  0.00    -0.520 OA
BRANCH   9  11
ATOM     11  C   LIG    1       -0.812  -4.881  -0.742  0.00  0.00    -0.090 C 
ATOM     12  C   LIG    1       -1.212  -6.142  -0.486  0.00  0.00    +0.140 C 
BRANCH  12  13
ATOM     13  C   LIG    1       -1.726  -6.988  -1.576  0.00  0.00    -0.080 A 
ATOM     14  C   LIG    1       -1.806  -6.484  -2.878  0.00  0.00    +0.030 A 
ATOM     15  C   LIG    1       -2.282  -7.284  -3.895  0.00  0.00    +0.010 A 
ATOM     16  C   LIG    1       -2.692  -8.579  -3.628  0.00  0.00    +0.030 A 
ATOM     17  C   LIG    1       -2.622  -9.083  -2.341  0.00  0.00    +0.010 A 
ATOM     18  C   LIG    1       -2.142  -8.297  -1.314  0.00  0.00    +0.040 A 
ENDBRANCH  12  13
ENDBRANCH   9  11
ENDBRANCH   5   7
BRANCH   1  19
ATOM     19  S   LIG    1        2.741  -2.678   4.493  0.00  0.00    +2.690 S 
ATOM     20  O   LIG    1        2.181  -3.981   4.588  0.00  0.00    -0.950 OA
ATOM     21  O   LIG    1        2.739  -1.751   5.570  0.00  0.00    -0.950 OA
BRANCH  19  22
ATOM     22  N   LIG    1        4.324  -2.881   4.053  0.00  0.00    -1.000 NA
BRANCH  22  24
ATOM     23  C   LIG    1        6.012  -2.171   5.674  0.00  0.00    +0.010 C 
ATOM     24  C   LIG    1        5.308  -1.839   4.356  0.00  0.00    +0.280 C 
ENDBRANCH  22  24
BRANCH  22  25
ATOM     25  C   LIG    1        4.741  -4.102   3.360  0.00  0.00    +0.290 C 
ATOM     26  C   LIG    1        4.733  -3.860   1.849  0.00  0.00    +0.000 C 
ENDBRANCH  22  25
ENDBRANCH  19  22
ENDBRANCH   1  19
BRANCH   4  27
ATOM     27  O   LIG    1        0.013  -0.004   0.007  0.00  0.00    -0.310 OA
ATOM     28  C   LIG    1       -0.001   1.425   0.017  0.00  0.00    +0.250 C 
ENDBRANCH   4  27
TORSDOF 8
