REMARK  Name = ZINCpk000005ZIep.0
REMARK                            x       y       z     vdW  Elec       q    Type
REMARK                         _______ _______ _______ _____ _____    ______ ____
ROOT
ATOM      1  O   LIG    1        4.010  -0.519   5.684  0.00  0.00    -0.550 OA
ATOM      2  C   LIG    1        3.843   0.013   4.598  0.00  0.00    +0.510 A 
ATOM      3  C   LIG    1        4.087  -0.714   3.426  0.00  0.00    -0.100 A 
ATOM      4  C   LIG    1        3.848  -0.128   2.218  0.00  0.00    +0.120 A 
ATOM      5  C   LIG    1        3.342   1.177   2.190  0.00  0.00    -0.110 A 
ATOM      6  C   LIG    1        3.113   1.855   3.345  0.00  0.00    +0.200 A 
ATOM      7  C   LIG    1        2.501   3.233   3.233  0.00  0.00    +0.070 C 
ATOM      8  C   LIG    1        2.914   4.070   4.448  0.00  0.00    +0.060 C 
ATOM      9  C   LIG    1        2.509   3.292   5.703  0.00  0.00    +0.010 C 
ATOM     10  C   LIG    1        3.349   2.030   5.808  0.00  0.00    +0.290 C 
ATOM     11  C   LIG    1        1.020   2.983   5.693  0.00  0.00    +0.240 C 
ATOM     12  N   LIG    1        0.635   2.275   4.468  0.00  0.00    -0.460 N 
ATOM     13  C   LIG    1        0.973   3.062   3.272  0.00  0.00    +0.220 C 
ATOM     14  N   LIG    1        3.423   1.302   4.541  0.00  0.00    -0.470 N 
ENDROOT
BRANCH  12  15
ATOM     15  C   LIG    1       -0.710   1.951   4.484  0.00  0.00    +0.410 A 
ATOM     16  N   LIG    1       -1.649   2.550   5.183  0.00  0.00    -0.350 NA
ATOM     17  N   LIG    1       -2.789   1.996   4.972  0.00  0.00    -0.030 NA
ATOM     18  N   LIG    1       -2.666   1.024   4.135  0.00  0.00    -0.070 NA
ATOM     19  N   LIG    1       -1.307   0.960   3.782  0.00  0.00    -0.360 N 
BRANCH  19  20
ATOM     20  C   LIG    1       -0.671   0.018   2.857  0.00  0.00    +0.350 C 
BRANCH  20  21
ATOM     21  C   LIG    1       -0.835   0.523   1.422  0.00  0.00    +0.000 C 
ATOM     22  C   LIG    1       -2.278   0.408   0.984  0.00  0.00    -0.040 C 
ATOM     23  C   LIG    1       -2.365  -0.089  -0.220  0.00  0.00    -0.020 C 
ATOM     24  C   LIG    1       -0.997  -0.389  -0.785  0.00  0.00    +0.060 C 
ATOM     25  C   LIG    1       -0.054  -0.381   0.441  0.00  0.00    +0.050 C 
ENDBRANCH  20  21
ENDBRANCH  19  20
ENDBRANCH  12  15
TORSDOF 3
