REMARK  Name = ZINCrH00000No58S.0
REMARK                            x       y       z     vdW  Elec       q    Type
REMARK                         _______ _______ _______ _____ _____    ______ ____
ROOT
ATOM      1  N   LIG    1       -7.229   0.363  -0.615  0.00  0.00    -0.490 N 
ATOM      2  C   LIG    1       -6.962  -1.073  -0.773  0.00  0.00    +0.190 C 
ATOM      3  C   LIG    1       -5.927  -1.514   0.267  0.00  0.00    +0.300 C 
ATOM      4  N   LIG    1       -4.746  -0.646   0.148  0.00  0.00    -0.610 N 
ATOM      5  C   LIG    1       -4.949   0.811   0.165  0.00  0.00    +0.290 C 
ATOM      6  C   LIG    1       -3.510  -1.171   0.031  0.00  0.00    +0.560 C 
ATOM      7  O   LIG    1       -3.368  -2.376  -0.073  0.00  0.00    -0.540 OA
ATOM      8  C   LIG    1       -6.023   1.160  -0.876  0.00  0.00    +0.190 C 
ENDROOT
BRANCH   1  13
ATOM      9  C   LIG    1       -9.744   2.494  -2.247  0.00  0.00    +0.150 A 
ATOM     10  C   LIG    1      -10.380   1.568  -3.061  0.00  0.00    -0.100 A 
ATOM     11  C   LIG    1       -9.971   0.248  -3.061  0.00  0.00    +0.080 A 
ATOM     12  C   LIG    1       -8.926  -0.154  -2.252  0.00  0.00    -0.080 A 
ATOM     13  C   LIG    1       -8.285   0.769  -1.434  0.00  0.00    +0.150 A 
ATOM     14  C   LIG    1       -8.699   2.094  -1.429  0.00  0.00    -0.040 A 
BRANCH   9  16
ATOM     15  C   LIG    1      -11.233   4.132  -3.112  0.00  0.00    +0.250 C 
ATOM     16  O   LIG    1      -10.147   3.791  -2.248  0.00  0.00    -0.320 OA
ENDBRANCH   9  16
ENDBRANCH   1  13
BRANCH   6  17
ATOM     17  C   LIG    1       -2.377  -0.322   0.030  0.00  0.00    -0.090 C 
ATOM     18  C   LIG    1       -1.130  -0.855   0.014  0.00  0.00    +0.170 C 
BRANCH  18  19
ATOM     19  C   LIG    1        0.003  -0.005   0.013  0.00  0.00    -0.020 A 
ATOM     20  C   LIG    1       -0.016   1.374   0.027  0.00  0.00    +0.010 A 
ATOM     21  C   LIG    1        1.324   1.791   0.020  0.00  0.00    -0.050 A 
ATOM     22  C   LIG    1        2.089   0.677   0.003  0.00  0.00    +0.060 A 
ATOM     23  O   LIG    1        1.293  -0.401  -0.002  0.00  0.00    -0.160 OA
BRANCH  22  24
ATOM     24  C   LIG    1        3.596   0.651  -0.010  0.00  0.00    +0.050 C 
ATOM     25  C   LIG    1        4.277  -0.700  -0.236  0.00  0.00    +0.050 C 
ATOM     26  C   LIG    1        4.301  -0.053   1.151  0.00  0.00    -0.010 C 
ATOM     27  C   LIG    1        3.422  -0.676   2.237  0.00  0.00    +0.060 C 
ENDBRANCH  22  24
ENDBRANCH  18  19
ENDBRANCH   6  17
TORSDOF 5
