REMARK  Name = ZINCpk00001AZiZ9.0
REMARK                            x       y       z     vdW  Elec       q    Type
REMARK                         _______ _______ _______ _____ _____    ______ ____
ROOT
ATOM      1  C   LIG    1        3.547   4.274   2.793  0.00  0.00    +0.530 C 
ATOM      2  N   LIG    1        2.413   3.929   2.151  0.00  0.00    -0.710 N 
ATOM      3  H   LIG    1        1.563   4.300   2.434  0.00  0.00    +0.410 HD
ATOM      4  O   LIG    1        4.609   3.809   2.439  0.00  0.00    -0.540 OA
ENDROOT
BRANCH   2   5
ATOM      5  C   LIG    1        2.465   2.991   1.026  0.00  0.00    +0.240 C 
ATOM      6  C   LIG    1        1.966   1.579   1.377  0.00  0.00    +0.020 C 
ATOM      7  C   LIG    1        1.286   1.562  -0.002  0.00  0.00    +0.180 C 
ATOM      8  C   LIG    1        1.257   3.097   0.080  0.00  0.00    +0.280 C 
BRANCH   8   9
ATOM      9  N   LIG    1        1.562   3.759  -1.190  0.00  0.00    -0.360 N 
ATOM     10  C   LIG    1        2.134   3.182  -2.268  0.00  0.00    +0.220 A 
ATOM     11  C   LIG    1        2.241   4.126  -3.232  0.00  0.00    -0.230 A 
ATOM     12  C   LIG    1        1.726   5.322  -2.723  0.00  0.00    +0.230 A 
ATOM     13  C   LIG    1        2.820   3.925  -4.609  0.00  0.00    +0.110 C 
ATOM     14  N   LIG    1        1.318   5.103  -1.499  0.00  0.00    -0.290 NA
ENDBRANCH   8   9
BRANCH   7  15
ATOM     15  O   LIG    1       -0.011   0.963   0.007  0.00  0.00    -0.550 OA
ATOM     16  H   LIG    1        0.002  -0.004   0.002  0.00  0.00    +0.390 HD
ENDBRANCH   7  15
ENDBRANCH   2   5
BRANCH   1  17
ATOM     17  C   LIG    1        3.494   5.238   3.950  0.00  0.00    +0.080 C 
BRANCH  17  18
ATOM     18  C   LIG    1        4.906   5.458   4.495  0.00  0.00    +0.210 C 
BRANCH  18  19
ATOM     19  O   LIG    1        4.856   6.372   5.593  0.00  0.00    -0.310 OA
BRANCH  19  25
ATOM     20  C   LIG    1        6.060   7.562   7.271  0.00  0.00    +0.100 A 
ATOM     21  C   LIG    1        7.265   7.871   7.882  0.00  0.00    -0.030 A 
ATOM     22  C   LIG    1        8.438   7.301   7.424  0.00  0.00    +0.010 A 
ATOM     23  C   LIG    1        8.414   6.424   6.356  0.00  0.00    +0.010 A 
ATOM     24  C   LIG    1        7.214   6.107   5.745  0.00  0.00    -0.030 A 
ATOM     25  C   LIG    1        6.035   6.678   6.196  0.00  0.00    +0.100 A 
BRANCH  20  27
ATOM     26  C   LIG    1        5.007   9.019   8.828  0.00  0.00    +0.240 C 
ATOM     27  O   LIG    1        4.905   8.122   7.720  0.00  0.00    -0.310 OA
ENDBRANCH  20  27
ENDBRANCH  19  25
ENDBRANCH  18  19
ENDBRANCH  17  18
ENDBRANCH   1  17
TORSDOF 8
