REMARK  Name = ZINCrD00000kZKrr.0
REMARK                            x       y       z     vdW  Elec       q    Type
REMARK                         _______ _______ _______ _____ _____    ______ ____
ROOT
ATOM      1  N   LIG    1       -0.811   0.624   5.292  0.00  0.00    -0.650 N 
ATOM      2  H   LIG    1        0.008   0.357   4.846  0.00  0.00    +0.420 HD
ATOM      3  C   LIG    1       -1.849   1.093   4.572  0.00  0.00    +0.610 C 
ATOM      4  O   LIG    1       -2.909   1.333   5.117  0.00  0.00    -0.510 OA
ENDROOT
BRANCH   3   5
ATOM      5  C   LIG    1       -1.699   1.316   3.119  0.00  0.00    -0.020 A 
ATOM      6  N   LIG    1       -0.613   1.100   2.401  0.00  0.00    -0.250 NA
ATOM      7  N   LIG    1       -0.829   1.398   1.174  0.00  0.00    -0.270 N 
ATOM      8  C   LIG    1        0.116   1.296   0.052  0.00  0.00    +0.340 C 
ATOM      9  C   LIG    1       -0.680   1.345  -1.257  0.00  0.00    +0.130 C 
ATOM     10  N   LIG    1       -1.595   2.495  -1.240  0.00  0.00    -0.690 NA
ATOM     11  H   LIG    1       -1.948   2.690  -2.165  0.00  0.00    +0.360 HD
ATOM     12  C   LIG    1       -2.699   2.277  -0.289  0.00  0.00    +0.290 C 
ATOM     13  C   LIG    1        0.286   1.480  -2.436  0.00  0.00    +0.060 C 
ATOM     14  C   LIG    1       -2.105   1.838   1.025  0.00  0.00    +0.010 A 
ATOM     15  C   LIG    1       -2.693   1.801   2.234  0.00  0.00    +0.010 A 
ENDBRANCH   3   5
BRANCH   1  21
ATOM     16  C   LIG    1       -0.121  -0.391   7.377  0.00  0.00    +0.100 A 
ATOM     17  C   LIG    1       -0.223  -0.491   8.752  0.00  0.00    -0.040 A 
ATOM     18  C   LIG    1       -1.120   0.322   9.443  0.00  0.00    -0.030 A 
ATOM     19  C   LIG    1       -1.911   1.234   8.746  0.00  0.00    +0.010 A 
ATOM     20  C   LIG    1       -1.804   1.335   7.375  0.00  0.00    +0.070 A 
ATOM     21  C   LIG    1       -0.914   0.522   6.684  0.00  0.00    +0.130 A 
BRANCH  18  22
ATOM     22  C   LIG    1       -1.233   0.217  10.919  0.00  0.00    -0.040 A 
ATOM     23  C   LIG    1       -0.447  -0.698  11.617  0.00  0.00    +0.010 A 
ATOM     24  C   LIG    1       -0.552  -0.787  12.990  0.00  0.00    +0.000 A 
ATOM     25  C   LIG    1       -1.443   0.021  13.672  0.00  0.00    +0.000 A 
ATOM     26  C   LIG    1       -2.230   0.927  12.984  0.00  0.00    +0.010 A 
ATOM     27  C   LIG    1       -2.129   1.029  11.611  0.00  0.00    +0.020 A 
ENDBRANCH  18  22
BRANCH  16  29
ATOM     28  C   LIG    1        1.535  -2.095   7.475  0.00  0.00    +0.250 C 
ATOM     29  O   LIG    1        0.754  -1.183   6.701  0.00  0.00    -0.320 OA
ENDBRANCH  16  29
ENDBRANCH   1  21
TORSDOF 4
