REMARK  Name = ZINCvU0000000GoF.0
REMARK                            x       y       z     vdW  Elec       q    Type
REMARK                         _______ _______ _______ _____ _____    ______ ____
ROOT
ATOM      1  C   LIG    1        1.166  -2.089  -0.030  0.00  0.00    -0.220 C 
ATOM      2  C   LIG    1        1.218  -0.709   0.226  0.00  0.00    +0.170 C 
ATOM      3  O   LIG    1        0.071  -0.052   0.488  0.00  0.00    -0.210 OA
ATOM      4  C   LIG    1        0.087   1.262   0.738  0.00  0.00    +0.150 C 
ATOM      5  C   LIG    1        1.240   1.986   0.740  0.00  0.00    -0.060 C 
ATOM      6  C   LIG    1        2.462   1.336   0.469  0.00  0.00    +0.010 C 
ATOM      7  C   LIG    1        2.437  -0.033   0.209  0.00  0.00    -0.120 C 
ATOM      8  C   LIG    1        3.722  -0.759  -0.085  0.00  0.00    +0.090 C 
ATOM      9  C   LIG    1        3.605  -2.212   0.385  0.00  0.00    +0.040 C 
ATOM     10  C   LIG    1        2.419  -2.868  -0.327  0.00  0.00    +0.110 C 
ENDROOT
BRANCH   6  11
ATOM     11  C   LIG    1        3.739   2.088   0.460  0.00  0.00    -0.050 A 
ATOM     12  C   LIG    1        4.719   1.814   1.413  0.00  0.00    +0.030 A 
ATOM     13  C   LIG    1        5.908   2.514   1.396  0.00  0.00    +0.010 A 
ATOM     14  C   LIG    1        6.124   3.494   0.444  0.00  0.00    +0.010 A 
ATOM     15  C   LIG    1        5.153   3.774  -0.501  0.00  0.00    +0.010 A 
ATOM     16  C   LIG    1        3.962   3.077  -0.498  0.00  0.00    +0.020 A 
ENDBRANCH   6  11
BRANCH   4  17
ATOM     17  C   LIG    1       -1.189   1.952   1.015  0.00  0.00    -0.060 A 
ATOM     18  C   LIG    1       -1.202   3.322   1.286  0.00  0.00    +0.040 A 
ATOM     19  C   LIG    1       -2.398   3.960   1.539  0.00  0.00    +0.010 A 
ATOM     20  C   LIG    1       -3.582   3.244   1.536  0.00  0.00    +0.030 A 
ATOM     21  C   LIG    1       -3.576   1.885   1.275  0.00  0.00    +0.010 A 
ATOM     22  C   LIG    1       -2.388   1.235   1.015  0.00  0.00    +0.050 A 
ENDBRANCH   4  17
BRANCH   1  24
ATOM     23  C   LIG    1       -0.308  -3.687   0.991  0.00  0.00    -0.150 C 
ATOM     24  C   LIG    1       -0.038  -2.733  -0.007  0.00  0.00    +0.280 C 
BRANCH  23  25
ATOM     25  C   LIG    1        0.615  -3.889   2.044  0.00  0.00    +0.520 C 
ATOM     26  O   LIG    1        1.597  -3.175   2.138  0.00  0.00    -0.480 OA
BRANCH  25  27
ATOM     27  O   LIG    1        0.408  -4.873   2.944  0.00  0.00    -0.350 OA
BRANCH  27  29
ATOM     28  C   LIG    1        0.979  -6.177   4.897  0.00  0.00    +0.070 C 
ATOM     29  C   LIG    1        1.380  -5.020   3.981  0.00  0.00    +0.200 C 
ENDBRANCH  27  29
ENDBRANCH  25  27
ENDBRANCH  23  25
BRANCH  23  30
ATOM     30  C   LIG    1       -1.517  -4.453   0.942  0.00  0.00    +0.260 C 
ATOM     31  N   LIG    1       -2.475  -5.061   0.903  0.00  0.00    -0.410 NA
ENDBRANCH  23  30
ENDBRANCH   1  24
TORSDOF 7
