REMARK  Name = ZINCtV00000L6l7t.0
REMARK                            x       y       z     vdW  Elec       q    Type
REMARK                         _______ _______ _______ _____ _____    ______ ____
ROOT
ATOM      1  C   LIG    1        6.404   2.011   0.687  0.00  0.00    +0.160 A 
ATOM      2  N   LIG    1        6.342   3.257   0.276  0.00  0.00    -0.280 NA
ATOM      3  N   LIG    1        7.483   3.830   0.424  0.00  0.00    -0.260 NA
ATOM      4  C   LIG    1        8.346   2.985   0.940  0.00  0.00    +0.230 A 
ATOM      5  N   LIG    1        7.681   1.794   1.130  0.00  0.00    -0.410 N 
ENDROOT
BRANCH   4   6
ATOM      6  C   LIG    1        9.762   3.262   1.261  0.00  0.00    -0.020 A 
ATOM      7  C   LIG    1       10.223   4.578   1.318  0.00  0.00    +0.090 A 
ATOM      8  C   LIG    1       11.546   4.830   1.618  0.00  0.00    +0.030 A 
ATOM      9  C   LIG    1       12.415   3.782   1.863  0.00  0.00    +0.070 A 
ATOM     10  C   LIG    1       11.964   2.474   1.808  0.00  0.00    -0.090 A 
ATOM     11 BR   LIG    1       13.161   1.049   2.145  0.00  0.00    -0.040 Br
ATOM     12  C   LIG    1       10.642   2.208   1.514  0.00  0.00    +0.060 A 
ENDBRANCH   4   6
BRANCH   5  13
ATOM     13  C   LIG    1        8.203   0.607   1.662  0.00  0.00    +0.090 A 
ATOM     14  C   LIG    1        8.626   0.565   2.984  0.00  0.00    +0.030 A 
ATOM     15  C   LIG    1        9.137  -0.608   3.507  0.00  0.00    +0.040 A 
ATOM     16  C   LIG    1        9.235  -1.735   2.713  0.00  0.00    +0.050 A 
ATOM     17  C   LIG    1        8.819  -1.695   1.395  0.00  0.00    +0.040 A 
ATOM     18  C   LIG    1        8.303  -0.527   0.867  0.00  0.00    +0.030 A 
ENDBRANCH   5  13
BRANCH   1  19
ATOM     19  S   LIG    1        5.088   0.840   0.678  0.00  0.00    +0.070 S 
BRANCH  19  21
ATOM     20  C   LIG    1        4.125   2.237  -1.463  0.00  0.00    +0.090 C 
ATOM     21  C   LIG    1        3.767   1.858  -0.025  0.00  0.00    -0.010 C 
BRANCH  21  22
ATOM     22  C   LIG    1        2.475   1.081  -0.016  0.00  0.00    +0.420 C 
ATOM     23  O   LIG    1        2.497  -0.132  -0.024  0.00  0.00    -0.430 OA
BRANCH  22  24
ATOM     24  C   LIG    1        1.188   1.793   0.000  0.00  0.00    -0.170 A 
ATOM     25  C   LIG    1       -0.013   1.076   0.008  0.00  0.00    +0.080 A 
ATOM     26  C   LIG    1       -1.215   1.751   0.017  0.00  0.00    +0.000 A 
ATOM     27  C   LIG    1       -1.236   3.135   0.031  0.00  0.00    +0.050 A 
ATOM     28  C   LIG    1       -0.052   3.852   0.023  0.00  0.00    +0.000 A 
ATOM     29  C   LIG    1        1.158   3.192   0.008  0.00  0.00    +0.060 A 
ENDBRANCH  22  24
ENDBRANCH  21  22
ENDBRANCH  19  21
ENDBRANCH   1  19
TORSDOF 6
