REMARK  Name = ZINCpe000000X8wO.0
REMARK                            x       y       z     vdW  Elec       q    Type
REMARK                         _______ _______ _______ _____ _____    ______ ____
ROOT
ATOM      1  C   LIG    1        2.908   1.439  -1.437  0.00  0.00    +0.500 C 
ATOM      2  N   LIG    1        4.167   1.033  -1.696  0.00  0.00    -0.610 N 
ATOM      3  C   LIG    1        5.099   0.737  -0.599  0.00  0.00    +0.260 C 
ATOM      4  C   LIG    1        5.663  -0.677  -0.805  0.00  0.00    +0.020 C 
ATOM      5  C   LIG    1        6.284  -0.774  -2.201  0.00  0.00    +0.070 C 
ATOM      6  C   LIG    1        5.206  -0.527  -3.259  0.00  0.00    +0.030 C 
ATOM      7  C   LIG    1        4.636   0.884  -3.080  0.00  0.00    +0.270 C 
ATOM      8  O   LIG    1        2.150   1.685  -2.351  0.00  0.00    -0.530 OA
ENDROOT
BRANCH   5   9
ATOM      9  C   LIG    1        6.871  -2.148  -2.394  0.00  0.00    -0.230 A 
ATOM     10  C   LIG    1        8.168  -2.430  -2.658  0.00  0.00    +0.240 A 
ATOM     11  N   LIG    1        8.286  -3.771  -2.757  0.00  0.00    -0.480 N 
ATOM     12  H   LIG    1        9.104  -4.260  -2.939  0.00  0.00    +0.440 HD
ATOM     13  N   LIG    1        7.018  -4.331  -2.556  0.00  0.00    -0.290 NA
ATOM     14  C   LIG    1        6.171  -3.358  -2.339  0.00  0.00    +0.240 A 
ENDBRANCH   5   9
BRANCH   1  15
ATOM     15  C   LIG    1        2.443   1.587  -0.011  0.00  0.00    +0.360 C 
BRANCH  15  21
ATOM     16  C   LIG    1       -2.068   1.870   1.279  0.00  0.00    +0.090 C 
ATOM     17  C   LIG    1       -1.235   2.107   0.018  0.00  0.00    +0.160 C 
ATOM     18  N   LIG    1       -0.664   3.465   0.026  0.00  0.00    -0.720 N 
ATOM     19  H   LIG    1       -1.157   4.301   0.034  0.00  0.00    +0.440 HD
ATOM     20  C   LIG    1        0.673   3.321   0.013  0.00  0.00    +0.710 C 
ATOM     21  N   LIG    1        1.048   2.037   0.003  0.00  0.00    -0.560 N 
ATOM     22  O   LIG    1        1.453   4.253   0.010  0.00  0.00    -0.540 OA
ATOM     23  C   LIG    1       -0.014   1.208   0.009  0.00  0.00    +0.540 C 
ATOM     24  O   LIG    1        0.002  -0.004   0.002  0.00  0.00    -0.460 OA
BRANCH  17  25
ATOM     25  C   LIG    1       -2.079   1.882  -1.237  0.00  0.00    -0.040 C 
ATOM     26  C   LIG    1       -2.134   3.015  -2.264  0.00  0.00    +0.040 C 
ATOM     27  C   LIG    1       -3.354   2.715  -1.390  0.00  0.00    +0.040 C 
ENDBRANCH  17  25
ENDBRANCH  15  21
ENDBRANCH   1  15
TORSDOF 4
