REMARK  Name = ZINCfA000000baDz.0
REMARK                            x       y       z     vdW  Elec       q    Type
REMARK                         _______ _______ _______ _____ _____    ______ ____
ROOT
ATOM      1  N   LIG    1       -0.700   1.560   1.217  0.00  0.00    -0.510 N 
ATOM      2  H   LIG    1       -1.647   1.210   1.224  0.00  0.00    +0.430 HD
ATOM      3  H   LIG    1       -0.714   2.568   1.222  0.00  0.00    +0.430 HD
ENDROOT
BRANCH   1   4
ATOM      4  C   LIG    1        0.010   1.073   2.407  0.00  0.00    +0.250 C 
BRANCH   4   5
ATOM      5  C   LIG    1       -0.706   1.566   3.666  0.00  0.00    +0.030 C 
BRANCH   5   6
ATOM      6  C   LIG    1        0.034   1.060   4.905  0.00  0.00    +0.020 C 
BRANCH   6   8
ATOM      7  C   LIG    1       -2.118   1.023   6.175  0.00  0.00    +0.050 C 
ATOM      8  C   LIG    1       -0.682   1.553   6.164  0.00  0.00    +0.130 C 
ATOM      9  C   LIG    1        0.058   1.046   7.403  0.00  0.00    +0.020 C 
BRANCH   8  10
ATOM     10  O   LIG    1       -0.702   2.982   6.172  0.00  0.00    -0.560 OA
ATOM     11  H   LIG    1        0.176   3.387   6.165  0.00  0.00    +0.380 HD
ENDBRANCH   8  10
ENDBRANCH   6   8
ENDBRANCH   5   6
ENDBRANCH   4   5
ENDBRANCH   1   4
BRANCH   1  12
ATOM     12  C   LIG    1       -0.013   1.086   0.008  0.00  0.00    +0.370 C 
BRANCH  12  13
ATOM     13  C   LIG    1       -0.742   1.585  -1.213  0.00  0.00    -0.300 A 
ATOM     14  C   LIG    1       -0.496   2.738  -1.837  0.00  0.00    +0.100 A 
ATOM     15  C   LIG    1       -1.295   2.986  -2.940  0.00  0.00    +0.020 A 
ATOM     16  C   LIG    1       -2.189   2.033  -3.212  0.00  0.00    -0.110 A 
ATOM     17 CL   LIG    1       -3.321   2.068  -4.528  0.00  0.00    +0.020 Cl
ATOM     18  S   LIG    1       -2.041   0.733  -2.037  0.00  0.00    +0.200 S 
ENDBRANCH  12  13
ENDBRANCH   1  12
TORSDOF 7
