REMARK  Name = ZINCvU0000000FIM.0
REMARK                            x       y       z     vdW  Elec       q    Type
REMARK                         _______ _______ _______ _____ _____    ______ ____
ROOT
ATOM      1  C   LIG    1       -3.587   3.478   4.575  0.00  0.00    +0.310 C 
ATOM      2  N   LIG    1       -2.306   3.486   5.285  0.00  0.00    -0.600 N 
ATOM      3  C   LIG    1       -1.248   2.825   4.775  0.00  0.00    +0.600 C 
ATOM      4  O   LIG    1       -0.205   2.776   5.396  0.00  0.00    -0.510 OA
ENDROOT
BRANCH   3   5
ATOM      5  C   LIG    1       -1.358   2.157   3.455  0.00  0.00    -0.030 A 
ATOM      6  N   LIG    1       -2.439   2.020   2.729  0.00  0.00    -0.310 NA
ATOM      7  O   LIG    1       -2.209   1.434   1.698  0.00  0.00    +0.130 OA
ATOM      8  C   LIG    1       -0.918   1.085   1.600  0.00  0.00    -0.040 A 
ATOM      9  C   LIG    1       -0.309   1.536   2.721  0.00  0.00    +0.050 A 
BRANCH   8  10
ATOM     10  C   LIG    1       -0.271   0.341   0.461  0.00  0.00    +0.350 C 
BRANCH  10  11
ATOM     11  O   LIG    1       -0.330  -1.064   0.715  0.00  0.00    -0.290 OA
BRANCH  11  12
ATOM     12  C   LIG    1        0.215  -1.884  -0.223  0.00  0.00    +0.140 A 
ATOM     13  C   LIG    1        0.788  -1.347  -1.366  0.00  0.00    -0.040 A 
ATOM     14  C   LIG    1        1.346  -2.182  -2.316  0.00  0.00    +0.090 A 
ATOM     15  C   LIG    1        1.322  -3.553  -2.133  0.00  0.00    -0.060 A 
ATOM     16  C   LIG    1        0.746  -4.092  -0.996  0.00  0.00    +0.090 A 
ATOM     17 CL   LIG    1        2.017  -4.599  -3.331  0.00  0.00    -0.050 Cl
ATOM     18  C   LIG    1        0.193  -3.260  -0.040  0.00  0.00    -0.060 A 
ATOM     19 CL   LIG    1       -0.531  -3.936   1.386  0.00  0.00    -0.040 Cl
ENDBRANCH  11  12
ENDBRANCH  10  11
ENDBRANCH   8  10
ENDBRANCH   3   5
BRANCH   2  20
ATOM     20  C   LIG    1       -2.174   4.212   6.551  0.00  0.00    +0.360 C 
BRANCH  20  21
ATOM     21  C   LIG    1       -1.742   5.629   6.274  0.00  0.00    -0.090 A 
ATOM     22  C   LIG    1       -2.692   6.613   6.074  0.00  0.00    +0.070 A 
ATOM     23  C   LIG    1       -2.301   7.915   5.820  0.00  0.00    +0.070 A 
ATOM     24  C   LIG    1       -0.955   8.236   5.765  0.00  0.00    +0.030 A 
ATOM     25  O   LIG    1       -0.316   9.420   5.536  0.00  0.00    -0.290 OA
ATOM     26  C   LIG    1        1.038   9.066   5.194  0.00  0.00    +0.570 C 
ATOM     27  O   LIG    1        1.242   7.807   5.863  0.00  0.00    -0.280 OA
ATOM     28  F   LIG    1        1.933  10.030   5.670  0.00  0.00    -0.110 F 
ATOM     29  F   LIG    1        1.171   8.914   3.809  0.00  0.00    -0.150 F 
ATOM     30  C   LIG    1        0.003   7.244   5.966  0.00  0.00    +0.030 A 
ATOM     31  C   LIG    1       -0.397   5.944   6.226  0.00  0.00    +0.090 A 
ENDBRANCH  20  21
ENDBRANCH   2  20
TORSDOF 6
