REMARK  Name = ZINCrD00000F5Lxr.0
REMARK                            x       y       z     vdW  Elec       q    Type
REMARK                         _______ _______ _______ _____ _____    ______ ____
ROOT
ATOM      1  O   LIG    1        7.839   5.004  -0.044  0.00  0.00    -0.520 OA
ATOM      2  C   LIG    1        8.125   3.822  -0.052  0.00  0.00    +0.500 C 
ENDROOT
BRANCH   2   3
ATOM      3  C   LIG    1        9.485   3.421  -0.066  0.00  0.00    -0.070 C 
ATOM      4  C   LIG    1       10.463   4.352  -0.070  0.00  0.00    +0.160 C 
BRANCH   4   5
ATOM      5  C   LIG    1       11.873   3.937  -0.085  0.00  0.00    -0.090 A 
ATOM      6  C   LIG    1       12.204   2.577  -0.089  0.00  0.00    +0.060 A 
ATOM      7  C   LIG    1       13.527   2.192  -0.108  0.00  0.00    +0.020 A 
ATOM      8  C   LIG    1       14.536   3.149  -0.111  0.00  0.00    +0.070 A 
ATOM      9  O   LIG    1       15.834   2.744  -0.119  0.00  0.00    -0.300 OA
ATOM     10  C   LIG    1       16.810   3.719  -0.502  0.00  0.00    +0.230 C 
ATOM     11  C   LIG    1       16.507   5.022   0.250  0.00  0.00    +0.230 C 
ATOM     12  O   LIG    1       15.190   5.452  -0.111  0.00  0.00    -0.310 OA
ATOM     13  C   LIG    1       14.213   4.505  -0.103  0.00  0.00    +0.040 A 
ATOM     14  C   LIG    1       12.889   4.899  -0.089  0.00  0.00    +0.060 A 
ENDBRANCH   4   5
ENDBRANCH   2   3
BRANCH   2  15
ATOM     15  O   LIG    1        7.147   2.892  -0.048  0.00  0.00    -0.330 OA
BRANCH  15  16
ATOM     16  C   LIG    1        5.800   3.367  -0.034  0.00  0.00    +0.220 C 
BRANCH  16  17
ATOM     17  C   LIG    1        4.854   2.194  -0.031  0.00  0.00    +0.430 C 
ATOM     18  O   LIG    1        5.291   1.061  -0.041  0.00  0.00    -0.440 OA
BRANCH  17  19
ATOM     19  C   LIG    1        3.453   2.413  -0.018  0.00  0.00    -0.270 A 
ATOM     20  C   LIG    1        2.806   3.630  -0.005  0.00  0.00    +0.330 A 
ATOM     21  N   LIG    1        1.474   3.433   0.006  0.00  0.00    -0.570 N 
ATOM     22  H   LIG    1        0.812   4.142   0.016  0.00  0.00    +0.420 HD
ATOM     23  C   LIG    1        1.179   2.085   0.002  0.00  0.00    +0.070 A 
ATOM     24  C   LIG    1       -0.017   1.374   0.010  0.00  0.00    +0.000 A 
ATOM     25  C   LIG    1        0.002  -0.004   0.002  0.00  0.00    +0.030 A 
ATOM     26  C   LIG    1        1.205  -0.695  -0.013  0.00  0.00    +0.000 A 
ATOM     27  C   LIG    1        2.400  -0.008  -0.020  0.00  0.00    +0.060 A 
ATOM     28  C   LIG    1        2.395   1.383  -0.013  0.00  0.00    -0.060 A 
ENDBRANCH  17  19
ENDBRANCH  16  17
ENDBRANCH  15  16
ENDBRANCH   2  15
TORSDOF 6
