REMARK  Name = ZINCrH000004qKNY.0
REMARK                            x       y       z     vdW  Elec       q    Type
REMARK                         _______ _______ _______ _____ _____    ______ ____
ROOT
ATOM      1  N   LIG    1        3.432   2.549  -0.167  0.00  0.00    -0.450 N 
ATOM      2  C   LIG    1        2.620   1.331   0.051  0.00  0.00    +0.270 C 
ATOM      3  C   LIG    1        1.179   1.788   0.016  0.00  0.00    -0.110 A 
ATOM      4  C   LIG    1       -0.003   1.092  -0.155  0.00  0.00    +0.070 A 
ATOM      5  C   LIG    1       -1.210   1.763  -0.151  0.00  0.00    +0.010 A 
ATOM      6  C   LIG    1       -1.236   3.139   0.034  0.00  0.00    +0.140 A 
ATOM      7  C   LIG    1       -0.048   3.837   0.206  0.00  0.00    +0.040 A 
ATOM      8  C   LIG    1        1.156   3.162   0.196  0.00  0.00    -0.080 A 
ATOM      9  C   LIG    1        2.581   3.642   0.355  0.00  0.00    +0.280 C 
ENDROOT
BRANCH   1  13
ATOM     10  C   LIG    1        7.824   0.464   0.598  0.00  0.00    +0.140 C 
ATOM     11  C   LIG    1        6.762   1.484   0.915  0.00  0.00    +0.190 A 
ATOM     12  C   LIG    1        5.585   1.514   0.195  0.00  0.00    -0.090 A 
ATOM     13  C   LIG    1        4.630   2.478   0.526  0.00  0.00    +0.350 A 
ATOM     14  N   LIG    1        4.891   3.330   1.512  0.00  0.00    -0.550 NA
ATOM     15  C   LIG    1        6.026   3.262   2.177  0.00  0.00    +0.360 A 
ATOM     16  N   LIG    1        6.947   2.365   1.889  0.00  0.00    -0.530 NA
BRANCH  15  17
ATOM     17  C   LIG    1        6.282   4.242   3.293  0.00  0.00    +0.160 C 
BRANCH  17  18
ATOM     18  C   LIG    1        6.967   5.489   2.729  0.00  0.00    -0.050 C 
ATOM     19  C   LIG    1        8.383   5.799   3.218  0.00  0.00    +0.020 C 
ATOM     20  C   LIG    1        7.207   6.657   3.688  0.00  0.00    +0.030 C 
ENDBRANCH  17  18
ENDBRANCH  15  17
ENDBRANCH   1  13
BRANCH   6  21
ATOM     21  N   LIG    1       -2.458   3.822   0.044  0.00  0.00    -0.640 N 
ATOM     22  H   LIG    1       -3.251   3.392   0.400  0.00  0.00    +0.420 HD
ATOM     23  C   LIG    1       -2.532   5.077  -0.442  0.00  0.00    +0.480 C 
ATOM     24  O   LIG    1       -1.565   5.580  -0.974  0.00  0.00    -0.450 OA
BRANCH  23  25
ATOM     25  C   LIG    1       -3.817   5.856  -0.324  0.00  0.00    +0.460 C 
ATOM     26  F   LIG    1       -4.155   5.995   1.027  0.00  0.00    -0.160 F 
ATOM     27  F   LIG    1       -4.839   5.173  -0.992  0.00  0.00    -0.160 F 
ATOM     28  F   LIG    1       -3.649   7.121  -0.896  0.00  0.00    -0.150 F 
ENDBRANCH  23  25
ENDBRANCH   6  21
TORSDOF 5
