REMARK  Name = ZINCrg00000fSaQs.0
REMARK                            x       y       z     vdW  Elec       q    Type
REMARK                         _______ _______ _______ _____ _____    ______ ____
ROOT
ATOM      1  N   LIG    1        4.598   1.515  -2.202  0.00  0.00    -0.740 N 
ATOM      2  H   LIG    1        4.221   0.764  -1.716  0.00  0.00    +0.410 HD
ATOM      3  C   LIG    1        4.465   1.587  -3.541  0.00  0.00    +0.710 C 
ATOM      4  N   LIG    1        3.808   0.615  -4.206  0.00  0.00    -0.660 N 
ATOM      5  H   LIG    1        3.431  -0.135  -3.720  0.00  0.00    +0.410 HD
ATOM      6  O   LIG    1        4.937   2.527  -4.149  0.00  0.00    -0.580 OA
ENDROOT
BRANCH   4   7
ATOM      7  C   LIG    1        3.669   0.690  -5.605  0.00  0.00    +0.040 A 
ATOM      8  C   LIG    1        4.139   1.682  -6.403  0.00  0.00    +0.260 A 
ATOM      9  N   LIG    1        3.798   1.376  -7.682  0.00  0.00    -0.360 N 
ATOM     10  N   LIG    1        3.092   0.167  -7.661  0.00  0.00    -0.240 NA
ATOM     11  C   LIG    1        4.108   2.173  -8.872  0.00  0.00    +0.360 C 
ATOM     12  C   LIG    1        3.014  -0.244  -6.421  0.00  0.00    -0.030 A 
BRANCH  12  13
ATOM     13  C   LIG    1        2.337  -1.505  -5.950  0.00  0.00    +0.490 C 
ATOM     14  F   LIG    1        2.981  -1.979  -4.802  0.00  0.00    -0.190 F 
ATOM     15  F   LIG    1        2.406  -2.475  -6.957  0.00  0.00    -0.190 F 
ENDBRANCH  12  13
ENDBRANCH   4   7
BRANCH   1  17
ATOM     16  C   LIG    1        6.813   2.276  -1.497  0.00  0.00    +0.040 C 
ATOM     17  C   LIG    1        5.312   2.571  -1.479  0.00  0.00    +0.250 C 
BRANCH  17  18
ATOM     18  C   LIG    1        4.819   2.620  -0.031  0.00  0.00    +0.310 C 
BRANCH  18  19
ATOM     19  N   LIG    1        3.364   2.784  -0.016  0.00  0.00    -0.540 N 
ATOM     20  C   LIG    1        2.824   4.029  -0.004  0.00  0.00    +0.630 A 
ATOM     21  N   LIG    1        1.541   4.245   0.010  0.00  0.00    -0.530 NA
ATOM     22  C   LIG    1        0.652   3.240   0.013  0.00  0.00    +0.330 A 
ATOM     23  C   LIG    1        1.117   1.915   0.002  0.00  0.00    -0.340 A 
ATOM     24  C   LIG    1       -0.013   1.076   0.008  0.00  0.00    +0.330 A 
ATOM     25  N   LIG    1       -1.080   1.825   0.017  0.00  0.00    -0.270 NA
ATOM     26  N   LIG    1       -0.705   3.174   0.025  0.00  0.00    -0.350 N 
ATOM     27  C   LIG    1       -1.619   4.319   0.040  0.00  0.00    +0.380 C 
ATOM     28  C   LIG    1        2.563   1.692  -0.014  0.00  0.00    +0.580 A 
ATOM     29  O   LIG    1        3.029   0.567  -0.023  0.00  0.00    -0.520 OA
ENDBRANCH  18  19
ENDBRANCH  17  18
ENDBRANCH   1  17
TORSDOF 5
