REMARK  Name = ZINCvU0000000Bed.0
REMARK                            x       y       z     vdW  Elec       q    Type
REMARK                         _______ _______ _______ _____ _____    ______ ____
ROOT
ATOM      1  C   LIG    1       -2.932  -2.541   1.438  0.00  0.00    +0.160 A 
ATOM      2  N   LIG    1       -3.475  -2.799   0.270  0.00  0.00    -0.280 NA
ATOM      3  N   LIG    1       -4.640  -3.317   0.435  0.00  0.00    -0.250 NA
ATOM      4  C   LIG    1       -4.911  -3.412   1.706  0.00  0.00    +0.190 A 
ATOM      5  N   LIG    1       -3.833  -2.921   2.390  0.00  0.00    -0.420 N 
ENDROOT
BRANCH   5   6
ATOM      6  C   LIG    1       -3.678  -2.824   3.844  0.00  0.00    +0.200 C 
ATOM      7  C   LIG    1       -2.582  -1.898   4.377  0.00  0.00    +0.070 C 
ATOM      8  C   LIG    1       -2.409  -3.417   4.460  0.00  0.00    +0.060 C 
ENDBRANCH   5   6
BRANCH   1   9
ATOM      9  S   LIG    1       -1.345  -1.831   1.721  0.00  0.00    +0.070 S 
BRANCH   9  10
ATOM     10  C   LIG    1       -0.786  -1.618   0.012  0.00  0.00    +0.240 C 
BRANCH  10  14
ATOM     11  C   LIG    1        2.222   0.401  -0.013  0.00  0.00    +0.220 A 
ATOM     12  N   LIG    1        2.699  -0.821   0.012  0.00  0.00    -0.270 NA
ATOM     13  N   LIG    1        1.722  -1.658   0.023  0.00  0.00    -0.250 NA
ATOM     14  C   LIG    1        0.591  -1.008   0.006  0.00  0.00    +0.170 A 
ATOM     15  O   LIG    1        0.877   0.305  -0.017  0.00  0.00    -0.210 OA
BRANCH  11  20
ATOM     16 CL   LIG    1        5.420   5.458  -0.098  0.00  0.00    -0.050 Cl
ATOM     17  C   LIG    1        4.492   3.991  -0.073  0.00  0.00    -0.010 A 
ATOM     18  C   LIG    1        5.139   2.767  -0.046  0.00  0.00    +0.040 A 
ATOM     19  C   LIG    1        4.407   1.598  -0.026  0.00  0.00    +0.100 A 
ATOM     20  C   LIG    1        3.012   1.651  -0.033  0.00  0.00    -0.030 A 
ATOM     21  C   LIG    1        2.366   2.888  -0.066  0.00  0.00    +0.070 A 
ATOM     22  C   LIG    1        3.109   4.050  -0.080  0.00  0.00    +0.040 A 
ENDBRANCH  11  20
ENDBRANCH  10  14
ENDBRANCH   9  10
ENDBRANCH   1   9
BRANCH   4  23
ATOM     23  C   LIG    1       -6.178  -3.961   2.310  0.00  0.00    +0.350 C 
BRANCH  23  24
ATOM     24  O   LIG    1       -7.124  -2.902   2.477  0.00  0.00    -0.300 OA
BRANCH  24  25
ATOM     25  C   LIG    1       -8.329  -3.230   3.014  0.00  0.00    +0.140 A 
ATOM     26  C   LIG    1       -8.595  -4.543   3.373  0.00  0.00    -0.060 A 
ATOM     27  C   LIG    1       -9.820  -4.874   3.919  0.00  0.00    +0.060 A 
ATOM     28  C   LIG    1      -10.781  -3.899   4.107  0.00  0.00    +0.000 A 
ATOM     29  C   LIG    1      -10.519  -2.588   3.750  0.00  0.00    +0.070 A 
ATOM     30  C   LIG    1       -9.293  -2.251   3.210  0.00  0.00    -0.070 A 
ATOM     31 CL   LIG    1       -8.961  -0.605   2.769  0.00  0.00    -0.050 Cl
ENDBRANCH  24  25
ENDBRANCH  23  24
ENDBRANCH   4  23
TORSDOF 8
