REMARK  Name = ZINCrg00001JduS6.0
REMARK                            x       y       z     vdW  Elec       q    Type
REMARK                         _______ _______ _______ _____ _____    ______ ____
ROOT
ATOM      1  C   LIG    1        2.430   1.042  -0.015  0.00  0.00    +0.560 C 
ATOM      2  N   LIG    1        3.588   1.732  -0.023  0.00  0.00    -0.610 N 
ATOM      3  C   LIG    1        3.718   3.214  -0.023  0.00  0.00    +0.270 C 
ATOM      4  C   LIG    1        5.104   3.442   0.587  0.00  0.00    -0.020 C 
ATOM      5  C   LIG    1        5.803   4.745   0.254  0.00  0.00    +0.250 C 
ATOM      6  O   LIG    1        7.120   4.661   0.827  0.00  0.00    -0.380 OA
ATOM      7  C   LIG    1        7.940   3.576   0.406  0.00  0.00    +0.210 C 
ATOM      8  C   LIG    1        7.242   2.212   0.574  0.00  0.00    +0.030 C 
ATOM      9  C   LIG    1        5.908   2.320  -0.135  0.00  0.00    -0.100 C 
ATOM     10  C   LIG    1        4.949   1.142  -0.039  0.00  0.00    +0.290 C 
ATOM     11  O   LIG    1        2.446  -0.173  -0.022  0.00  0.00    -0.520 OA
ENDROOT
BRANCH   1  13
ATOM     12  C   LIG    1       -0.013   1.076   0.008  0.00  0.00    +0.060 C 
ATOM     13  C   LIG    1        1.141   1.763   0.001  0.00  0.00    +0.040 C 
BRANCH  12  14
ATOM     14  C   LIG    1       -1.300   1.796   0.018  0.00  0.00    +0.490 C 
ATOM     15  O   LIG    1       -1.317   3.010   0.025  0.00  0.00    -0.500 OA
BRANCH  14  17
ATOM     16  C   LIG    1       -3.686   1.881   0.030  0.00  0.00    +0.290 C 
ATOM     17  O   LIG    1       -2.458   1.107   0.020  0.00  0.00    -0.350 OA
ENDBRANCH  14  17
ENDBRANCH  12  14
ENDBRANCH   1  13
BRANCH   9  18
ATOM     18  C   LIG    1        6.126   2.695  -1.601  0.00  0.00    +0.280 C 
BRANCH  18  19
ATOM     19  N   LIG    1        6.725   1.563  -2.312  0.00  0.00    -0.730 N 
ATOM     20  H   LIG    1        6.918   0.739  -1.837  0.00  0.00    +0.400 HD
ATOM     21  C   LIG    1        7.009   1.665  -3.625  0.00  0.00    +0.560 C 
ATOM     22  O   LIG    1        6.768   2.697  -4.221  0.00  0.00    -0.530 OA
BRANCH  21  23
ATOM     23  C   LIG    1        7.614   0.522  -4.342  0.00  0.00    -0.140 A 
ATOM     24  C   LIG    1        7.897  -0.663  -3.660  0.00  0.00    +0.030 A 
ATOM     25  C   LIG    1        8.457  -1.727  -4.336  0.00  0.00    +0.000 A 
ATOM     26  C   LIG    1        8.747  -1.619  -5.684  0.00  0.00    +0.040 A 
ATOM     27  C   LIG    1        8.473  -0.446  -6.365  0.00  0.00    +0.000 A 
ATOM     28  C   LIG    1        7.909   0.624  -5.702  0.00  0.00    +0.080 A 
ENDBRANCH  21  23
ENDBRANCH  18  19
ENDBRANCH   9  18
TORSDOF 6
