REMARK  Name = ZINCpk00000y4p5s.0
REMARK                            x       y       z     vdW  Elec       q    Type
REMARK                         _______ _______ _______ _____ _____    ______ ____
ROOT
ATOM      1  C   LIG    1       -0.939   0.466   2.648  0.00  0.00    +0.530 C 
ATOM      2  N   LIG    1       -0.066  -0.313   3.317  0.00  0.00    -0.700 N 
ATOM      3  H   LIG    1        0.676  -0.724   2.848  0.00  0.00    +0.400 HD
ATOM      4  O   LIG    1       -1.812   1.053   3.251  0.00  0.00    -0.490 OA
ENDROOT
BRANCH   1  12
ATOM      5  C   LIG    1        2.882   2.228  -1.067  0.00  0.00    +0.200 C 
ATOM      6  C   LIG    1        1.431   2.063  -1.439  0.00  0.00    +0.190 A 
ATOM      7  N   LIG    1        0.903   2.256  -2.621  0.00  0.00    -0.290 NA
ATOM      8  N   LIG    1       -0.365   2.022  -2.576  0.00  0.00    -0.270 NA
ATOM      9  C   LIG    1       -0.698   1.675  -1.372  0.00  0.00    +0.140 A 
ATOM     10  C   LIG    1       -2.054   1.311  -0.824  0.00  0.00    +0.370 C 
ATOM     11  N   LIG    1       -1.982   1.366   0.647  0.00  0.00    -0.500 NA
ATOM     12  C   LIG    1       -0.828   0.608   1.152  0.00  0.00    +0.170 C 
ATOM     13  C   LIG    1        0.470   1.347   0.804  0.00  0.00    +0.290 C 
ATOM     14  C   LIG    1       -1.947   2.756   1.121  0.00  0.00    +0.210 C 
ATOM     15  N   LIG    1        0.434   1.689  -0.618  0.00  0.00    -0.470 N 
ENDBRANCH   1  12
BRANCH   2  16
ATOM     16  C   LIG    1       -0.238  -0.539   4.755  0.00  0.00    +0.100 C 
ATOM     17  C   LIG    1       -0.151  -1.981   5.258  0.00  0.00    +0.040 C 
ATOM     18  C   LIG    1       -1.504  -1.269   5.208  0.00  0.00    +0.060 C 
BRANCH  16  19
ATOM     19  C   LIG    1        0.307   0.562   5.666  0.00  0.00    +0.130 C 
BRANCH  19  20
ATOM     20  C   LIG    1        1.764   0.793   5.358  0.00  0.00    -0.090 A 
ATOM     21  C   LIG    1        2.733   0.045   6.000  0.00  0.00    +0.050 A 
ATOM     22  C   LIG    1        4.069   0.252   5.714  0.00  0.00    -0.010 A 
ATOM     23  C   LIG    1        4.438   1.217   4.793  0.00  0.00    +0.100 A 
ATOM     24  C   LIG    1        3.466   1.970   4.154  0.00  0.00    -0.020 A 
ATOM     25  F   LIG    1        5.744   1.425   4.517  0.00  0.00    -0.140 F 
ATOM     26  C   LIG    1        2.131   1.758   4.438  0.00  0.00    +0.030 A 
ENDBRANCH  19  20
ENDBRANCH  16  19
ENDBRANCH   2  16
TORSDOF 4
