REMARK  Name = ZINCpk00000xJxzn.0
REMARK                            x       y       z     vdW  Elec       q    Type
REMARK                         _______ _______ _______ _____ _____    ______ ____
ROOT
ATOM      1  C   LIG    1       -2.731   0.860   1.534  0.00  0.00    +0.160 C 
ATOM      2  C   LIG    1       -4.043   0.048   1.586  0.00  0.00    +0.010 C 
ATOM      3  C   LIG    1       -4.801   0.685   2.780  0.00  0.00    +0.180 C 
ATOM      4  C   LIG    1       -4.398   2.175   2.648  0.00  0.00    +0.170 C 
ATOM      5  F   LIG    1       -6.184   0.525   2.639  0.00  0.00    -0.200 F 
ATOM      6  N   LIG    1       -2.987   2.147   2.207  0.00  0.00    -0.500 NA
ENDROOT
BRANCH   1   7
ATOM      7  C   LIG    1       -2.328   1.105   0.079  0.00  0.00    +0.270 C 
BRANCH   7   9
ATOM      8  C   LIG    1       -0.654  -0.738  -0.411  0.00  0.00    +0.280 C 
ATOM      9  N   LIG    1       -1.997  -0.173  -0.558  0.00  0.00    -0.620 N 
ATOM     10  C   LIG    1       -2.929  -0.828  -1.278  0.00  0.00    +0.520 C 
ATOM     11  O   LIG    1       -4.041  -0.360  -1.399  0.00  0.00    -0.520 OA
BRANCH  10  12
ATOM     12  C   LIG    1       -2.587  -2.139  -1.938  0.00  0.00    +0.120 C 
BRANCH  12  13
ATOM     13  C   LIG    1       -3.791  -2.656  -2.681  0.00  0.00    -0.120 A 
ATOM     14  C   LIG    1       -3.999  -2.312  -4.008  0.00  0.00    +0.070 A 
ATOM     15  C   LIG    1       -5.121  -2.812  -4.652  0.00  0.00    -0.030 A 
ATOM     16  C   LIG    1       -5.988  -3.631  -3.955  0.00  0.00    +0.260 A 
ATOM     17  N   LIG    1       -5.759  -3.938  -2.693  0.00  0.00    -0.480 NA
ATOM     18  C   LIG    1       -4.700  -3.485  -2.051  0.00  0.00    +0.260 A 
ENDBRANCH  12  13
ENDBRANCH  10  12
ENDBRANCH   7   9
ENDBRANCH   1   7
BRANCH   6  19
ATOM     19  C   LIG    1       -2.692   3.276   1.314  0.00  0.00    +0.260 C 
BRANCH  19  20
ATOM     20  C   LIG    1       -2.773   4.565   2.090  0.00  0.00    +0.080 A 
ATOM     21  C   LIG    1       -1.736   5.214   2.667  0.00  0.00    -0.100 A 
ATOM     22  C   LIG    1       -2.238   6.364   3.285  0.00  0.00    +0.230 A 
ATOM     23  N   LIG    1       -3.530   6.404   3.085  0.00  0.00    -0.290 NA
ATOM     24  N   LIG    1       -3.891   5.281   2.329  0.00  0.00    -0.370 N 
ATOM     25  C   LIG    1       -5.244   4.943   1.880  0.00  0.00    +0.340 C 
ENDBRANCH  19  20
ENDBRANCH   6  19
TORSDOF 6
