REMARK  Name = ZINCpe000000ZuVg.0
REMARK                            x       y       z     vdW  Elec       q    Type
REMARK                         _______ _______ _______ _____ _____    ______ ____
ROOT
ATOM      1  O   LIG    1       -3.229  -1.665   3.230  0.00  0.00    -0.530 OA
ATOM      2  C   LIG    1       -3.610  -2.190   2.202  0.00  0.00    +0.570 C 
ATOM      3  N   LIG    1       -2.842  -2.142   1.096  0.00  0.00    -0.600 N 
ATOM      4  C   LIG    1       -3.236  -2.865  -0.121  0.00  0.00    +0.260 C 
ATOM      5  C   LIG    1       -2.072  -3.759  -0.561  0.00  0.00    +0.030 C 
ATOM      6  C   LIG    1       -0.810  -2.908  -0.716  0.00  0.00    +0.020 C 
ATOM      7  C   LIG    1       -0.451  -2.276   0.630  0.00  0.00    +0.270 C 
ATOM      8  C   LIG    1       -1.595  -1.364   1.084  0.00  0.00    +0.290 C 
ENDROOT
BRANCH   7   9
ATOM      9  N   LIG    1        0.776  -1.487   0.488  0.00  0.00    -0.630 N 
ATOM     10  C   LIG    1        2.027  -1.715   1.226  0.00  0.00    +0.250 C 
ATOM     11  C   LIG    1        2.972  -0.619   0.699  0.00  0.00    +0.250 C 
ATOM     12  N   LIG    1        2.154   0.112  -0.280  0.00  0.00    -0.740 N 
ATOM     13  H   LIG    1        2.449   0.874  -0.803  0.00  0.00    +0.430 HD
ATOM     14  C   LIG    1        0.935  -0.442  -0.336  0.00  0.00    +0.700 C 
ATOM     15  O   LIG    1        0.055  -0.037  -1.070  0.00  0.00    -0.580 OA
ENDBRANCH   7   9
BRANCH   2  16
ATOM     16  C   LIG    1       -4.914  -2.882   2.166  0.00  0.00    -0.200 A 
ATOM     17  C   LIG    1       -5.339  -3.659   3.253  0.00  0.00    +0.170 A 
ATOM     18  C   LIG    1       -6.568  -4.282   3.174  0.00  0.00    -0.030 A 
ATOM     19  C   LIG    1       -7.335  -4.128   2.023  0.00  0.00    +0.370 A 
ATOM     20  N   LIG    1       -6.904  -3.391   1.010  0.00  0.00    -0.500 NA
ATOM     21  C   LIG    1       -5.741  -2.776   1.046  0.00  0.00    +0.350 A 
BRANCH  19  22
ATOM     22  N   LIG    1       -8.576  -4.759   1.935  0.00  0.00    -0.420 N 
ATOM     23  C   LIG    1       -9.405  -4.780   0.842  0.00  0.00    +0.160 A 
ATOM     24  C   LIG    1      -10.489  -5.500   1.188  0.00  0.00    +0.150 A 
ATOM     25  N   LIG    1      -10.336  -5.902   2.459  0.00  0.00    -0.470 NA
ATOM     26  C   LIG    1       -9.196  -5.465   2.918  0.00  0.00    +0.410 A 
ENDBRANCH  19  22
ENDBRANCH   2  16
TORSDOF 3
