REMARK  Name = ZINCvU00000009et.0
REMARK                            x       y       z     vdW  Elec       q    Type
REMARK                         _______ _______ _______ _____ _____    ______ ____
ROOT
ATOM      1  O   LIG    1       -4.662   5.053  -1.135  0.00  0.00    -0.510 OA
ATOM      2  C   LIG    1       -4.531   3.872  -1.374  0.00  0.00    +0.530 C 
ATOM      3  N   LIG    1       -3.508   3.183  -0.830  0.00  0.00    -0.720 N 
ATOM      4  H   LIG    1       -3.403   2.238  -1.021  0.00  0.00    +0.400 HD
ENDROOT
BRANCH   3   5
ATOM      5  C   LIG    1       -2.554   3.863   0.050  0.00  0.00    +0.390 C 
BRANCH   5   6
ATOM      6  C   LIG    1       -1.240   3.126   0.031  0.00  0.00    -0.090 A 
ATOM      7  C   LIG    1       -1.220   1.744   0.017  0.00  0.00    +0.010 A 
ATOM      8  C   LIG    1       -0.013   1.076   0.008  0.00  0.00    +0.010 A 
ATOM      9  C   LIG    1        1.184   1.781   0.000  0.00  0.00    -0.070 A 
ATOM     10  C   LIG    1        2.465   0.989  -0.001  0.00  0.00    +0.080 C 
ATOM     11  C   LIG    1        3.637   1.863  -0.442  0.00  0.00    +0.020 C 
ATOM     12  C   LIG    1        3.626   3.147   0.397  0.00  0.00    +0.020 C 
ATOM     13  C   LIG    1        2.421   3.986  -0.023  0.00  0.00    +0.080 C 
ATOM     14  C   LIG    1        1.164   3.158   0.002  0.00  0.00    -0.070 A 
ATOM     15  C   LIG    1       -0.052   3.828   0.020  0.00  0.00    +0.020 A 
ENDBRANCH   5   6
BRANCH   5  16
ATOM     16  C   LIG    1       -3.096   3.887   1.456  0.00  0.00    -0.180 A 
ATOM     17  C   LIG    1       -2.999   4.915   2.300  0.00  0.00    +0.020 A 
ATOM     18  C   LIG    1       -3.577   4.707   3.541  0.00  0.00    +0.010 A 
ATOM     19  C   LIG    1       -4.134   3.507   3.708  0.00  0.00    -0.050 A 
ATOM     20  S   LIG    1       -3.946   2.560   2.237  0.00  0.00    +0.100 S 
ENDBRANCH   5  16
ENDBRANCH   3   5
BRANCH   2  21
ATOM     21  C   LIG    1       -5.513   3.172  -2.279  0.00  0.00    +0.080 C 
BRANCH  21  22
ATOM     22  C   LIG    1       -6.567   4.173  -2.758  0.00  0.00    +0.080 C 
ATOM     23  S   LIG    1       -5.783   5.427  -3.815  0.00  0.00    -0.040 S 
ATOM     24  C   LIG    1       -5.510   4.521  -5.306  0.00  0.00    -0.140 A 
ATOM     25  C   LIG    1       -4.442   4.844  -6.126  0.00  0.00    +0.080 A 
ATOM     26  C   LIG    1       -4.236   4.141  -7.299  0.00  0.00    +0.000 A 
ATOM     27  C   LIG    1       -5.097   3.118  -7.649  0.00  0.00    +0.050 A 
ATOM     28  C   LIG    1       -6.161   2.789  -6.833  0.00  0.00    -0.010 A 
ATOM     29  C   LIG    1       -6.379   3.486  -5.649  0.00  0.00    +0.160 A 
ATOM     30  N   LIG    1       -7.455   3.129  -4.841  0.00  0.00    -0.650 N 
ATOM     31  H   LIG    1       -8.152   2.593  -5.250  0.00  0.00    +0.420 HD
ATOM     32  C   LIG    1       -7.618   3.453  -3.562  0.00  0.00    +0.530 C 
ATOM     33  O   LIG    1       -8.661   3.157  -3.018  0.00  0.00    -0.510 OA
ENDBRANCH  21  22
ENDBRANCH   2  21
TORSDOF 5
