REMARK  Name = ZINCpe000027pHxj.1
REMARK                            x       y       z     vdW  Elec       q    Type
REMARK                         _______ _______ _______ _____ _____    ______ ____
ROOT
ATOM      1  O   LIG    1       -0.208   4.101   0.757  0.00  0.00    -0.520 OA
ATOM      2  C   LIG    1       -0.826   3.319   1.448  0.00  0.00    +0.510 C 
ATOM      3  N   LIG    1       -0.866   2.013   1.116  0.00  0.00    -0.730 N 
ATOM      4  H   LIG    1       -1.360   1.387   1.669  0.00  0.00    +0.400 HD
ENDROOT
BRANCH   3   5
ATOM      5  C   LIG    1       -0.163   1.539  -0.079  0.00  0.00    +0.280 C 
BRANCH   5   6
ATOM      6  C   LIG    1       -0.367   0.030  -0.225  0.00  0.00    +0.000 C 
ATOM      7  C   LIG    1        0.467  -0.502  -1.404  0.00  0.00    +0.060 C 
ATOM      8  C   LIG    1       -0.532  -1.112  -2.410  0.00  0.00    +0.110 C 
ATOM      9  C   LIG    1       -1.772  -1.459  -1.551  0.00  0.00    +0.020 C 
ATOM     10  C   LIG    1       -1.843  -0.274  -0.556  0.00  0.00    +0.160 C 
BRANCH   8  11
ATOM     11  C   LIG    1        0.043  -2.357  -3.035  0.00  0.00    +0.230 A 
ATOM     12  N   LIG    1        0.258  -2.536  -4.312  0.00  0.00    -0.310 NA
ATOM     13  N   LIG    1        0.797  -3.825  -4.455  0.00  0.00    -0.490 N 
ATOM     14  H   LIG    1        1.064  -4.254  -5.283  0.00  0.00    +0.440 HD
ATOM     15  C   LIG    1        0.870  -4.345  -3.218  0.00  0.00    +0.480 A 
ATOM     16  N   LIG    1        0.419  -3.451  -2.375  0.00  0.00    -0.540 NA
ENDBRANCH   8  11
BRANCH  10  17
ATOM     17  O   LIG    1       -2.461   0.858  -1.171  0.00  0.00    -0.550 OA
ATOM     18  H   LIG    1       -3.390   0.723  -1.400  0.00  0.00    +0.380 HD
ENDBRANCH  10  17
ENDBRANCH   5   6
ENDBRANCH   3   5
BRANCH   2  19
ATOM     19  C   LIG    1       -1.549   3.806   2.677  0.00  0.00    +0.220 C 
BRANCH  19  20
ATOM     20  N   LIG    1       -1.464   5.271   2.746  0.00  0.00    -0.470 N 
ATOM     21  C   LIG    1       -2.389   5.902   1.779  0.00  0.00    +0.230 C 
ATOM     22  C   LIG    1       -3.646   6.170   2.637  0.00  0.00    +0.060 C 
ATOM     23  C   LIG    1       -3.080   6.274   4.040  0.00  0.00    -0.140 A 
ATOM     24  C   LIG    1       -3.612   6.780   5.206  0.00  0.00    +0.030 A 
ATOM     25  C   LIG    1       -2.870   6.760   6.373  0.00  0.00    +0.000 A 
ATOM     26  C   LIG    1       -1.592   6.230   6.368  0.00  0.00    +0.030 A 
ATOM     27  C   LIG    1       -1.056   5.719   5.204  0.00  0.00    +0.010 A 
ATOM     28  C   LIG    1       -1.799   5.734   4.025  0.00  0.00    +0.090 A 
ENDBRANCH  19  20
ENDBRANCH   2  19
TORSDOF 6
