REMARK  Name = ZINCpe000027pHxj.0
REMARK                            x       y       z     vdW  Elec       q    Type
REMARK                         _______ _______ _______ _____ _____    ______ ____
ROOT
ATOM      1  O   LIG    1       -4.017   4.767  -2.874  0.00  0.00    -0.510 OA
ATOM      2  C   LIG    1       -3.632   3.761  -3.431  0.00  0.00    +0.510 C 
ATOM      3  N   LIG    1       -2.944   2.830  -2.741  0.00  0.00    -0.730 N 
ATOM      4  H   LIG    1       -2.636   2.026  -3.187  0.00  0.00    +0.400 HD
ENDROOT
BRANCH   3   5
ATOM      5  C   LIG    1       -2.661   3.033  -1.319  0.00  0.00    +0.300 C 
BRANCH   5   6
ATOM      6  C   LIG    1       -1.873   1.838  -0.780  0.00  0.00    -0.010 C 
ATOM      7  C   LIG    1       -1.647   1.994   0.735  0.00  0.00    +0.050 C 
ATOM      8  C   LIG    1       -0.115   2.034   0.952  0.00  0.00    +0.120 C 
ATOM      9  C   LIG    1        0.459   1.312  -0.292  0.00  0.00    +0.000 C 
ATOM     10  C   LIG    1       -0.475   1.789  -1.431  0.00  0.00    +0.180 C 
BRANCH   8  11
ATOM     11  C   LIG    1        0.264   1.298   2.212  0.00  0.00    +0.190 A 
ATOM     12  N   LIG    1        0.520   1.834   3.374  0.00  0.00    -0.290 NA
ATOM     13  N   LIG    1        0.804   0.911   4.223  0.00  0.00    -0.290 NA
ATOM     14  C   LIG    1        0.751  -0.255   3.639  0.00  0.00    +0.370 A 
ATOM     15  N   LIG    1        0.407  -0.043   2.345  0.00  0.00    -0.580 N 
ATOM     16  H   LIG    1        0.287  -0.714   1.656  0.00  0.00    +0.430 HD
ENDBRANCH   8  11
BRANCH  10  17
ATOM     17  O   LIG    1       -0.088   3.089  -1.883  0.00  0.00    -0.550 OA
ATOM     18  H   LIG    1        0.806   3.128  -2.249  0.00  0.00    +0.380 HD
ENDBRANCH  10  17
ENDBRANCH   5   6
ENDBRANCH   3   5
BRANCH   2  19
ATOM     19  C   LIG    1       -3.923   3.552  -4.895  0.00  0.00    +0.220 C 
BRANCH  19  20
ATOM     20  N   LIG    1       -4.796   4.630  -5.380  0.00  0.00    -0.470 N 
ATOM     21  C   LIG    1       -6.189   4.428  -4.926  0.00  0.00    +0.230 C 
ATOM     22  C   LIG    1       -6.830   3.687  -6.122  0.00  0.00    +0.060 C 
ATOM     23  C   LIG    1       -5.971   4.128  -7.290  0.00  0.00    -0.140 A 
ATOM     24  C   LIG    1       -6.178   4.067  -8.652  0.00  0.00    +0.030 A 
ATOM     25  C   LIG    1       -5.223   4.562  -9.522  0.00  0.00    +0.000 A 
ATOM     26  C   LIG    1       -4.059   5.118  -9.023  0.00  0.00    +0.030 A 
ATOM     27  C   LIG    1       -3.846   5.179  -7.661  0.00  0.00    +0.010 A 
ATOM     28  C   LIG    1       -4.803   4.680  -6.779  0.00  0.00    +0.090 A 
ENDBRANCH  19  20
ENDBRANCH   2  19
TORSDOF 6
