REMARK  Name = ZINCtj0000002Sth.1
REMARK                            x       y       z     vdW  Elec       q    Type
REMARK                         _______ _______ _______ _____ _____    ______ ____
ROOT
ATOM      1  N   LIG    1        1.054   0.671  -7.468  0.00  0.00    -0.720 N 
ATOM      2  H   LIG    1        0.164   1.039  -7.580  0.00  0.00    +0.400 HD
ATOM      3  C   LIG    1        1.464   0.254  -6.254  0.00  0.00    +0.520 C 
ATOM      4  O   LIG    1        2.577  -0.206  -6.115  0.00  0.00    -0.520 OA
ENDROOT
BRANCH   3   5
ATOM      5  C   LIG    1        0.539   0.360  -5.069  0.00  0.00    +0.000 C 
ATOM      6  C   LIG    1        1.243  -0.178  -3.820  0.00  0.00    +0.090 C 
ATOM      7  C   LIG    1        0.328   0.005  -2.607  0.00  0.00    +0.270 C 
ATOM      8  N   LIG    1        0.029   1.431  -2.426  0.00  0.00    -0.380 N 
ATOM      9  C   LIG    1       -0.710   1.935  -3.590  0.00  0.00    +0.270 C 
ATOM     10  H   LIG    1        0.892   1.944  -2.329  0.00  0.00    +0.430 HD
ATOM     11  C   LIG    1        0.165   1.827  -4.840  0.00  0.00    +0.080 C 
BRANCH   8  12
ATOM     12  C   LIG    1       -0.784   1.609  -1.216  0.00  0.00    +0.200 C 
ATOM     13  C   LIG    1       -0.013   1.086   0.008  0.00  0.00    +0.090 C 
ATOM     14  C   LIG    1       -0.766   1.600   1.262  0.00  0.00    -0.270 C 
ATOM     15  S   LIG    1       -1.166   3.330   0.805  0.00  0.00    +2.410 S 
ATOM     16  O   LIG    1       -2.504   3.623   1.183  0.00  0.00    -0.900 OA
ATOM     17  O   LIG    1       -0.110   4.183   1.224  0.00  0.00    -0.900 OA
ATOM     18  C   LIG    1       -1.083   3.107  -1.009  0.00  0.00    -0.320 C 
ENDBRANCH   8  12
ENDBRANCH   3   5
BRANCH   1  20
ATOM     19  C   LIG    1        2.864   1.797  -8.668  0.00  0.00    +0.050 C 
ATOM     20  C   LIG    1        1.954   0.568  -8.620  0.00  0.00    +0.290 C 
BRANCH  20  21
ATOM     21  C   LIG    1        1.141   0.495  -9.887  0.00  0.00    -0.110 A 
ATOM     22  C   LIG    1        0.010   1.279 -10.027  0.00  0.00    +0.040 A 
ATOM     23  C   LIG    1       -0.734   1.218 -11.190  0.00  0.00    +0.010 A 
ATOM     24  C   LIG    1       -0.351   0.362 -12.213  0.00  0.00    +0.160 A 
ATOM     25  C   LIG    1        0.782  -0.427 -12.067  0.00  0.00    +0.040 A 
ATOM     26  C   LIG    1        1.524  -0.358 -10.905  0.00  0.00    +0.060 A 
BRANCH  24  27
ATOM     27  N   LIG    1       -1.107   0.294 -13.392  0.00  0.00    -0.340 N 
ATOM     28  C   LIG    1       -2.223   0.994 -13.677  0.00  0.00    +0.480 A 
ATOM     29  N   LIG    1       -2.625   0.645 -14.872  0.00  0.00    -0.530 NA
ATOM     30  C   LIG    1       -1.798  -0.269 -15.379  0.00  0.00    +0.450 A 
ATOM     31  N   LIG    1       -0.850  -0.511 -14.513  0.00  0.00    -0.310 NA
ENDBRANCH  24  27
ENDBRANCH  20  21
ENDBRANCH   1  20
TORSDOF 5
