REMARK  Name = ZINCrH000004qmVC.0
REMARK                            x       y       z     vdW  Elec       q    Type
REMARK                         _______ _______ _______ _____ _____    ______ ____
ROOT
ATOM      1  C   LIG    1        6.111  -0.739   5.169  0.00  0.00    +0.120 C 
ATOM      2  C   LIG    1        4.872   0.007   4.743  0.00  0.00    +0.010 A 
ATOM      3  C   LIG    1        3.906  -0.479   3.945  0.00  0.00    +0.000 A 
ATOM      4  C   LIG    1        2.908   0.589   3.806  0.00  0.00    -0.270 A 
ATOM      5  C   LIG    1        3.384   1.651   4.552  0.00  0.00    +0.120 A 
ATOM      6  C   LIG    1        2.709   2.988   4.717  0.00  0.00    +0.150 C 
ATOM      7  N   LIG    1        4.552   1.283   5.107  0.00  0.00    -0.430 N 
ENDROOT
BRANCH   4   8
ATOM      8  C   LIG    1        1.665   0.541   3.032  0.00  0.00    +0.400 C 
ATOM      9  O   LIG    1        0.929   1.505   3.006  0.00  0.00    -0.460 OA
BRANCH   8  10
ATOM     10  C   LIG    1        1.302  -0.706   2.267  0.00  0.00    +0.330 C 
BRANCH  10  11
ATOM     11  N   LIG    1        0.024  -0.503   1.581  0.00  0.00    -0.980 NA
ATOM     12  C   LIG    1       -1.235  -0.741   2.292  0.00  0.00    +0.320 C 
BRANCH  11  13
ATOM     13  S   LIG    1        0.002  -0.004   0.002  0.00  0.00    +2.720 S 
ATOM     14  O   LIG    1        1.252  -0.385  -0.556  0.00  0.00    -0.950 OA
ATOM     15  O   LIG    1       -1.247  -0.419  -0.533  0.00  0.00    -0.950 OA
BRANCH  13  16
ATOM     16  C   LIG    1       -0.022   1.758   0.012  0.00  0.00    -0.780 A 
ATOM     17  C   LIG    1        1.058   2.542   0.006  0.00  0.00    +0.170 A 
ATOM     18  C   LIG    1        0.792   3.900   0.015  0.00  0.00    -0.010 A 
ATOM     19  C   LIG    1       -0.503   4.220   0.029  0.00  0.00    +0.000 A 
ATOM     20  S   LIG    1       -1.473   2.752   0.023  0.00  0.00    +0.210 S 
ENDBRANCH  13  16
ENDBRANCH  11  13
ENDBRANCH  10  11
ENDBRANCH   8  10
ENDBRANCH   4   8
BRANCH   7  21
ATOM     21  C   LIG    1        5.370   2.134   5.974  0.00  0.00    +0.340 C 
BRANCH  21  22
ATOM     22  C   LIG    1        6.341   2.923   5.134  0.00  0.00    -0.120 A 
ATOM     23  C   LIG    1        7.593   2.407   4.857  0.00  0.00    +0.020 A 
ATOM     24  C   LIG    1        8.482   3.129   4.082  0.00  0.00    +0.010 A 
ATOM     25  C   LIG    1        8.122   4.370   3.592  0.00  0.00    +0.020 A 
ATOM     26  C   LIG    1        6.871   4.888   3.873  0.00  0.00    +0.010 A 
ATOM     27  C   LIG    1        5.981   4.164   4.644  0.00  0.00    +0.020 A 
ENDBRANCH  21  22
ENDBRANCH   7  21
TORSDOF 7
