REMARK  Name = ZINCpe00000VVH68.0
REMARK                            x       y       z     vdW  Elec       q    Type
REMARK                         _______ _______ _______ _____ _____    ______ ____
ROOT
ATOM      1  N   LIG    1       -1.069   1.056   2.815  0.00  0.00    -0.730 N 
ATOM      2  H   LIG    1       -0.305   1.337   2.286  0.00  0.00    +0.400 HD
ATOM      3  C   LIG    1       -1.068  -0.153   3.411  0.00  0.00    +0.710 C 
ATOM      4  N   LIG    1       -0.008  -0.972   3.271  0.00  0.00    -0.710 N 
ATOM      5  H   LIG    1        0.756  -0.692   2.742  0.00  0.00    +0.410 HD
ATOM      6  O   LIG    1       -2.025  -0.504   4.074  0.00  0.00    -0.590 OA
ENDROOT
BRANCH   1   7
ATOM      7  C   LIG    1       -2.222   1.947   2.967  0.00  0.00    +0.300 C 
BRANCH   7   8
ATOM      8  C   LIG    1       -1.932   3.279   2.272  0.00  0.00    -0.020 C 
ATOM      9  C   LIG    1       -1.681   3.033   0.783  0.00  0.00    +0.020 C 
ATOM     10  C   LIG    1       -2.919   2.390   0.156  0.00  0.00    +0.010 C 
ATOM     11  C   LIG    1       -4.119   3.324   0.324  0.00  0.00    +0.000 C 
ATOM     12  C   LIG    1       -4.371   3.570   1.813  0.00  0.00    +0.010 C 
ATOM     13  C   LIG    1       -3.132   4.213   2.439  0.00  0.00    +0.030 C 
BRANCH   8  20
ATOM     14  C   LIG    1       -2.033   4.264   4.987  0.00  0.00    +0.100 C 
ATOM     15  C   LIG    1       -0.760   4.385   4.188  0.00  0.00    -0.070 A 
ATOM     16  C   LIG    1        0.360   4.961   4.756  0.00  0.00    +0.000 A 
ATOM     17  C   LIG    1        1.528   5.071   4.024  0.00  0.00    +0.000 A 
ATOM     18  C   LIG    1        1.574   4.604   2.723  0.00  0.00    +0.000 A 
ATOM     19  C   LIG    1        0.454   4.027   2.156  0.00  0.00    +0.010 A 
ATOM     20  C   LIG    1       -0.712   3.913   2.889  0.00  0.00    -0.070 A 
ENDBRANCH   8  20
ENDBRANCH   7   8
ENDBRANCH   1   7
BRANCH   4  21
ATOM     21  C   LIG    1       -0.007  -2.287   3.919  0.00  0.00    +0.260 C 
BRANCH  21  22
ATOM     22  C   LIG    1        1.414  -2.733   4.147  0.00  0.00    +0.530 C 
ATOM     23  O   LIG    1        2.301  -2.323   3.430  0.00  0.00    -0.510 OA
ATOM     24  N   LIG    1        1.698  -3.589   5.149  0.00  0.00    -0.840 N 
ATOM     25  H   LIG    1        2.620  -3.821   5.342  0.00  0.00    +0.410 HD
ATOM     26  H   LIG    1        0.981  -3.974   5.676  0.00  0.00    +0.400 HD
ENDBRANCH  21  22
BRANCH  21  27
ATOM     27  C   LIG    1       -0.711  -3.283   3.033  0.00  0.00    +0.510 C 
ATOM     28  O   LIG    1       -0.721  -3.124   1.831  0.00  0.00    -0.510 OA
ATOM     29  N   LIG    1       -1.329  -4.350   3.578  0.00  0.00    -0.850 N 
ATOM     30  H   LIG    1       -1.718  -5.029   3.005  0.00  0.00    +0.410 HD
ATOM     31  H   LIG    1       -1.383  -4.438   4.542  0.00  0.00    +0.400 HD
ENDBRANCH  21  27
ENDBRANCH   4  21
TORSDOF 6
