REMARK  Name = ZINCvU00000009wR.0
REMARK                            x       y       z     vdW  Elec       q    Type
REMARK                         _______ _______ _______ _____ _____    ______ ____
ROOT
ATOM      1  C   LIG    1        8.686   0.726  -0.185  0.00  0.00    +0.520 C 
ATOM      2  N   LIG    1        7.987  -0.422  -0.081  0.00  0.00    -0.650 N 
ATOM      3  H   LIG    1        8.454  -1.268  -0.002  0.00  0.00    +0.420 HD
ATOM      4  O   LIG    1        8.106   1.791  -0.181  0.00  0.00    -0.490 OA
ENDROOT
BRANCH   2   5
ATOM      5  C   LIG    1        6.587  -0.393  -0.087  0.00  0.00    +0.160 A 
ATOM      6  C   LIG    1        5.924   0.660  -0.694  0.00  0.00    +0.080 A 
ATOM      7  C   LIG    1        4.535   0.696  -0.704  0.00  0.00    +0.080 A 
ATOM      8  C   LIG    1        3.818  -0.343  -0.096  0.00  0.00    -0.100 A 
ATOM      9  C   LIG    1        2.393  -0.006  -0.281  0.00  0.00    -0.120 A 
ATOM     10  C   LIG    1        2.377   1.206  -0.985  0.00  0.00    +0.090 A 
ATOM     11  C   LIG    1        1.156   1.783  -1.311  0.00  0.00    +0.030 A 
ATOM     12  C   LIG    1       -0.021   1.165  -0.944  0.00  0.00    +0.060 A 
ATOM     13  C   LIG    1       -0.002  -0.033  -0.248  0.00  0.00    -0.010 A 
ATOM     14  C   LIG    1        1.200  -0.621   0.085  0.00  0.00    +0.070 A 
ATOM     15  C   LIG    1        4.488  -1.401   0.513  0.00  0.00    +0.010 A 
ATOM     16  O   LIG    1        3.654   1.585  -1.214  0.00  0.00    -0.190 OA
ATOM     17  C   LIG    1        5.869  -1.426   0.518  0.00  0.00    +0.090 A 
BRANCH  17  18
ATOM     18  O   LIG    1        6.529  -2.457   1.111  0.00  0.00    -0.320 OA
ATOM     19  C   LIG    1        5.730  -3.479   1.710  0.00  0.00    +0.250 C 
ENDBRANCH  17  18
ENDBRANCH   2   5
BRANCH   1  20
ATOM     20  C   LIG    1       10.188   0.686  -0.305  0.00  0.00    +0.180 C 
ATOM     21  C   LIG    1       10.576   0.010  -1.622  0.00  0.00    +0.060 C 
BRANCH  20  22
ATOM     22  O   LIG    1       10.703   2.019  -0.284  0.00  0.00    -0.270 OA
BRANCH  22  27
ATOM     23  C   LIG    1       13.894   3.590   0.502  0.00  0.00    +0.210 A 
ATOM     24  C   LIG    1       14.609   2.500   0.975  0.00  0.00    -0.190 A 
ATOM     25  C   LIG    1       14.014   1.249   1.024  0.00  0.00    +0.210 A 
ATOM     26  C   LIG    1       12.703   1.087   0.602  0.00  0.00    -0.140 A 
ATOM     27  C   LIG    1       11.987   2.177   0.130  0.00  0.00    +0.210 A 
ATOM     28  C   LIG    1       12.584   3.428   0.075  0.00  0.00    -0.080 A 
BRANCH  23  30
ATOM     29  C   LIG    1       15.830   4.910   0.903  0.00  0.00    +0.250 C 
ATOM     30  O   LIG    1       14.477   4.816   0.453  0.00  0.00    -0.310 OA
ENDBRANCH  23  30
BRANCH  25  31
ATOM     31  O   LIG    1       14.715   0.180   1.487  0.00  0.00    -0.310 OA
ATOM     32  C   LIG    1       16.061   0.420   1.905  0.00  0.00    +0.250 C 
ENDBRANCH  25  31
ENDBRANCH  22  27
ENDBRANCH  20  22
ENDBRANCH   1  20
TORSDOF 7
