REMARK  Name = ZINCpk00000eaLlG.0
REMARK                            x       y       z     vdW  Elec       q    Type
REMARK                         _______ _______ _______ _____ _____    ______ ____
ROOT
ATOM      1  C   LIG    1       -4.071   2.115   1.157  0.00  0.00    +0.040 C 
ATOM      2  C   LIG    1       -3.619   1.638  -0.225  0.00  0.00    +0.250 C 
ENDROOT
BRANCH   2   3
ATOM      3  N   LIG    1       -2.343   0.928  -0.103  0.00  0.00    -0.740 N 
ATOM      4  H   LIG    1       -2.331  -0.038  -0.021  0.00  0.00    +0.400 HD
ATOM      5  C   LIG    1       -1.185   1.619  -0.105  0.00  0.00    +0.700 C 
ATOM      6  N   LIG    1       -0.011   0.966   0.007  0.00  0.00    -0.730 N 
ATOM      7  H   LIG    1        0.001  -0.001   0.089  0.00  0.00    +0.400 HD
ATOM      8  O   LIG    1       -1.200   2.830  -0.207  0.00  0.00    -0.590 OA
BRANCH   6   9
ATOM      9  C   LIG    1        1.248   1.716  -0.001  0.00  0.00    +0.240 C 
ATOM     10  C   LIG    1        2.439   0.785  -0.345  0.00  0.00    +0.020 C 
ATOM     11  C   LIG    1        3.324   0.870   0.934  0.00  0.00    +0.190 C 
ATOM     12  C   LIG    1        2.555   0.058   2.020  0.00  0.00    +0.000 C 
ATOM     13  C   LIG    1        1.364   0.988   2.365  0.00  0.00    +0.000 C 
ATOM     14  O   LIG    1        3.066   2.245   1.370  0.00  0.00    -0.370 OA
ATOM     15  C   LIG    1        1.603   2.214   1.433  0.00  0.00    +0.180 C 
ENDBRANCH   6   9
ENDBRANCH   2   3
BRANCH   2  16
ATOM     16  C   LIG    1       -4.673   0.695  -0.809  0.00  0.00    +0.330 C 
BRANCH  16  17
ATOM     17  N   LIG    1       -4.186   0.145  -2.077  0.00  0.00    -0.430 N 
ATOM     18  N   LIG    1       -4.465   0.825  -3.263  0.00  0.00    -0.230 NA
ATOM     19  C   LIG    1       -4.068   0.400  -4.426  0.00  0.00    +0.320 A 
ATOM     20  C   LIG    1       -3.296  -0.838  -4.528  0.00  0.00    -0.070 A 
ATOM     21  C   LIG    1       -2.850  -1.329  -5.756  0.00  0.00    +0.050 A 
ATOM     22  C   LIG    1       -2.126  -2.499  -5.798  0.00  0.00    +0.050 A 
ATOM     23  C   LIG    1       -1.834  -3.196  -4.633  0.00  0.00    +0.030 A 
ATOM     24  C   LIG    1       -2.263  -2.731  -3.409  0.00  0.00    +0.080 A 
ATOM     25  C   LIG    1       -2.998  -1.549  -3.342  0.00  0.00    -0.130 A 
ATOM     26  C   LIG    1       -3.477  -1.002  -2.066  0.00  0.00    +0.530 A 
ATOM     27  O   LIG    1       -3.241  -1.576  -1.018  0.00  0.00    -0.530 OA
ENDBRANCH  16  17
ENDBRANCH   2  16
TORSDOF 4
