REMARK  Name = ZINCpe00000zsilH.0
REMARK                            x       y       z     vdW  Elec       q    Type
REMARK                         _______ _______ _______ _____ _____    ______ ____
ROOT
ATOM      1  C   LIG    1       -0.724   1.576  -1.227  0.00  0.00    +0.510 C 
ATOM      2  N   LIG    1       -1.827   0.939  -1.667  0.00  0.00    -0.610 N 
ATOM      3  C   LIG    1       -2.444  -0.244  -1.039  0.00  0.00    +0.250 C 
ATOM      4  C   LIG    1       -3.228  -0.935  -2.182  0.00  0.00    +0.020 C 
ATOM      5  C   LIG    1       -3.764   0.285  -2.976  0.00  0.00    +0.190 C 
ATOM      6  C   LIG    1       -2.618   1.312  -2.848  0.00  0.00    +0.290 C 
ATOM      7  O   LIG    1       -0.304   2.544  -1.825  0.00  0.00    -0.500 OA
ENDROOT
BRANCH   1  12
ATOM      8  O   LIG    1        2.798   3.275   0.172  0.00  0.00    -0.520 OA
ATOM      9  C   LIG    1        1.691   2.828   0.393  0.00  0.00    +0.740 C 
ATOM     10  N   LIG    1        1.360   1.582  -0.002  0.00  0.00    -0.710 N 
ATOM     11  H   LIG    1        2.065   0.990  -0.307  0.00  0.00    +0.430 HD
ATOM     12  C   LIG    1       -0.013   1.086   0.008  0.00  0.00    +0.260 C 
ATOM     13  C   LIG    1       -0.772   1.571   1.249  0.00  0.00    +0.170 C 
ATOM     14  C   LIG    1       -0.432   3.023   1.461  0.00  0.00    -0.040 A 
ATOM     15  C   LIG    1       -1.121   4.001   2.043  0.00  0.00    +0.200 A 
ATOM     16  N   LIG    1       -0.376   5.123   1.993  0.00  0.00    -0.480 NA
ATOM     17  C   LIG    1        0.758   4.868   1.393  0.00  0.00    +0.480 A 
ATOM     18  N   LIG    1        0.768   3.566   1.037  0.00  0.00    -0.450 N 
ENDBRANCH   1  12
BRANCH   6  19
ATOM     19  C   LIG    1       -3.185   2.697  -2.669  0.00  0.00    -0.050 A 
ATOM     20  C   LIG    1       -3.244   3.564  -3.744  0.00  0.00    +0.000 A 
ATOM     21  C   LIG    1       -3.764   4.835  -3.581  0.00  0.00    +0.040 A 
ATOM     22  C   LIG    1       -4.226   5.239  -2.343  0.00  0.00    -0.020 A 
ATOM     23  C   LIG    1       -4.168   4.371  -1.265  0.00  0.00    +0.100 A 
ATOM     24  F   LIG    1       -4.620   4.765  -0.055  0.00  0.00    -0.140 F 
ATOM     25  C   LIG    1       -3.652   3.097  -1.431  0.00  0.00    +0.010 A 
ENDBRANCH   6  19
BRANCH   5  26
ATOM     26  O   LIG    1       -4.959   0.792  -2.379  0.00  0.00    -0.550 OA
ATOM     27  H   LIG    1       -5.689   0.158  -2.362  0.00  0.00    +0.380 HD
ENDBRANCH   5  26
TORSDOF 3
