REMARK  Name = ZINCrD000000ftXU.0
REMARK                            x       y       z     vdW  Elec       q    Type
REMARK                         _______ _______ _______ _____ _____    ______ ____
ROOT
ATOM      1  C   LIG    1        2.507   3.187  -4.702  0.00  0.00    +0.560 C 
ATOM      2  N   LIG    1        2.508   4.047  -5.740  0.00  0.00    -0.670 N 
ATOM      3  H   LIG    1        2.032   4.890  -5.672  0.00  0.00    +0.410 HD
ATOM      4  O   LIG    1        3.018   2.090  -4.822  0.00  0.00    -0.510 OA
ENDROOT
BRANCH   2   5
ATOM      5  C   LIG    1        3.194   3.725  -6.915  0.00  0.00    +0.130 A 
ATOM      6  C   LIG    1        4.261   2.837  -6.877  0.00  0.00    +0.140 A 
ATOM      7  C   LIG    1        4.936   2.520  -8.039  0.00  0.00    -0.650 A 
ATOM      8  C   LIG    1        4.552   3.087  -9.240  0.00  0.00    +0.100 A 
ATOM      9  C   LIG    1        3.490   3.973  -9.282  0.00  0.00    +0.020 A 
ATOM     10  C   LIG    1        2.807   4.289  -8.124  0.00  0.00    -0.060 A 
ATOM     11  C   LIG    1        1.646   5.249  -8.172  0.00  0.00    +0.100 C 
BRANCH   7  12
ATOM     12  S   LIG    1        6.290   1.393  -7.991  0.00  0.00    +2.500 S 
ATOM     13  O   LIG    1        6.789   1.501  -6.665  0.00  0.00    -0.930 OA
ATOM     14  O   LIG    1        7.090   1.759  -9.107  0.00  0.00    -0.940 OA
ATOM     15  C   LIG    1        5.534  -0.234  -8.256  0.00  0.00    -0.260 C 
ENDBRANCH   7  12
ENDBRANCH   2   5
BRANCH   1  18
ATOM     16  C   LIG    1        1.307   3.052  -1.149  0.00  0.00    -0.060 A 
ATOM     17  C   LIG    1        1.891   2.689  -2.343  0.00  0.00    +0.080 A 
ATOM     18  C   LIG    1        1.888   3.577  -3.421  0.00  0.00    -0.100 A 
ATOM     19  C   LIG    1        1.301   4.838  -3.282  0.00  0.00    -0.040 A 
ATOM     20  C   LIG    1        0.722   5.198  -2.080  0.00  0.00    +0.110 A 
ATOM     21  C   LIG    1        0.725   4.305  -1.010  0.00  0.00    +0.100 A 
BRANCH  20  22
ATOM     22  O   LIG    1        0.150   6.424  -1.942  0.00  0.00    -0.300 OA
ATOM     23  C   LIG    1        0.184   7.288  -3.079  0.00  0.00    +0.250 C 
ENDBRANCH  20  22
BRANCH  21  24
ATOM     24  O   LIG    1        0.155   4.660   0.171  0.00  0.00    -0.320 OA
ATOM     25  C   LIG    1        0.997   5.305   1.129  0.00  0.00    +0.230 C 
ENDBRANCH  21  24
BRANCH  16  26
ATOM     26  C   LIG    1        1.307   2.090   0.011  0.00  0.00    +0.120 C 
BRANCH  26  28
ATOM     27  C   LIG    1        0.020   0.015   0.023  0.00  0.00    +0.010 C 
ATOM     28  C   LIG    1        0.008   1.325   0.029  0.00  0.00    -0.040 C 
ENDBRANCH  26  28
ENDBRANCH  16  26
ENDBRANCH   1  18
TORSDOF 7
