REMARK  Name = ZINCrD00000762ud.0
REMARK                            x       y       z     vdW  Elec       q    Type
REMARK                         _______ _______ _______ _____ _____    ______ ____
ROOT
ATOM      1  C   LIG    1        2.409   3.324  -8.663  0.00  0.00    +0.060 A 
ATOM      2  C   LIG    1        1.919   2.287  -7.876  0.00  0.00    +0.000 A 
ATOM      3  C   LIG    1        1.889   2.393  -6.516  0.00  0.00    +0.060 A 
ATOM      4  C   LIG    1        2.359   3.560  -5.905  0.00  0.00    -0.200 A 
ATOM      5  C   LIG    1        2.853   4.620  -6.705  0.00  0.00    +0.190 A 
ATOM      6  N   LIG    1        3.304   5.728  -6.101  0.00  0.00    -0.540 NA
ATOM      7  C   LIG    1        3.282   5.828  -4.785  0.00  0.00    +0.420 A 
ATOM      8  N   LIG    1        2.821   4.859  -3.996  0.00  0.00    -0.590 NA
ATOM      9  C   LIG    1        2.353   3.726  -4.497  0.00  0.00    +0.480 A 
ATOM     10  C   LIG    1        2.863   4.480  -8.099  0.00  0.00    +0.030 A 
ENDROOT
BRANCH   7  11
ATOM     11  C   LIG    1        3.791   7.072  -4.159  0.00  0.00    -0.100 A 
ATOM     12  C   LIG    1        4.284   8.115  -4.949  0.00  0.00    +0.120 A 
ATOM     13  C   LIG    1        4.748   9.255  -4.316  0.00  0.00    -0.040 A 
ATOM     14  C   LIG    1        4.708   9.326  -2.935  0.00  0.00    +0.280 A 
ATOM     15  N   LIG    1        4.237   8.326  -2.216  0.00  0.00    -0.490 NA
ATOM     16  C   LIG    1        3.780   7.223  -2.773  0.00  0.00    +0.320 A 
ENDBRANCH   7  11
BRANCH   9  17
ATOM     17  N   LIG    1        1.878   2.731  -3.669  0.00  0.00    -0.700 N 
ATOM     18  H   LIG    1        1.539   1.905  -4.049  0.00  0.00    +0.410 HD
BRANCH  17  19
ATOM     19  C   LIG    1        1.887   2.920  -2.217  0.00  0.00    +0.300 C 
BRANCH  19  20
ATOM     20  C   LIG    1        1.312   1.675  -1.537  0.00  0.00    -0.010 C 
ATOM     21  C   LIG    1        1.388   1.721  -0.002  0.00  0.00    +0.060 C 
ATOM     22  C   LIG    1       -0.013   1.086   0.008  0.00  0.00    +0.260 C 
ATOM     23  C   LIG    1       -0.218   1.707  -1.384  0.00  0.00    +0.050 C 
BRANCH  22  24
ATOM     24  N   LIG    1       -0.900   1.637   1.035  0.00  0.00    -0.370 N 
ATOM     25  C   LIG    1       -1.635   2.759   0.947  0.00  0.00    +0.470 A 
ATOM     26  N   LIG    1       -2.290   2.904   2.070  0.00  0.00    -0.540 NA
ATOM     27  C   LIG    1       -1.994   1.904   2.899  0.00  0.00    +0.420 A 
ATOM     28  N   LIG    1       -1.146   1.102   2.310  0.00  0.00    -0.320 NA
ENDBRANCH  22  24
ENDBRANCH  19  20
ENDBRANCH  17  19
ENDBRANCH   9  17
TORSDOF 5
