REMARK  Name = ZINCrD0000075Qsf.0
REMARK                            x       y       z     vdW  Elec       q    Type
REMARK                         _______ _______ _______ _____ _____    ______ ____
ROOT
ATOM      1  C   LIG    1        1.402  -2.326   2.608  0.00  0.00    -0.220 A 
ATOM      2  C   LIG    1        1.509  -3.702   2.827  0.00  0.00    +0.230 A 
ATOM      3  C   LIG    1        0.972  -4.587   1.917  0.00  0.00    -0.120 A 
ATOM      4  C   LIG    1        0.325  -4.119   0.784  0.00  0.00    +0.190 A 
ATOM      5  C   LIG    1        0.207  -2.763   0.556  0.00  0.00    -0.060 A 
ATOM      6  C   LIG    1        0.747  -1.856   1.459  0.00  0.00    +0.320 A 
ENDROOT
BRANCH   3   7
ATOM      7  N   LIG    1        1.086  -6.044   2.151  0.00  0.00    +0.040 N 
ATOM      8  O   LIG    1        0.613  -6.828   1.349  0.00  0.00    -0.170 OA
ATOM      9  O   LIG    1        1.654  -6.458   3.146  0.00  0.00    -0.170 OA
ENDBRANCH   3   7
BRANCH   1  11
ATOM     10  O   LIG    1        1.789  -0.182   3.438  0.00  0.00    -0.510 OA
ATOM     11  C   LIG    1        1.974  -1.375   3.577  0.00  0.00    +0.530 C 
BRANCH  11  12
ATOM     12  O   LIG    1        2.702  -1.828   4.616  0.00  0.00    -0.340 OA
BRANCH  12  13
ATOM     13  C   LIG    1        3.234  -0.834   5.531  0.00  0.00    +0.290 C 
BRANCH  13  14
ATOM     14  C   LIG    1        4.014  -1.521   6.622  0.00  0.00    -0.100 A 
ATOM     15  C   LIG    1        3.380  -1.909   7.787  0.00  0.00    +0.080 A 
ATOM     16  C   LIG    1        4.095  -2.544   8.785  0.00  0.00    +0.020 A 
ATOM     17  C   LIG    1        5.446  -2.782   8.623  0.00  0.00    +0.080 A 
ATOM     18  C   LIG    1        6.082  -2.390   7.460  0.00  0.00    -0.180 A 
ATOM     19  C   LIG    1        5.367  -1.759   6.459  0.00  0.00    +0.100 A 
BRANCH  18  20
ATOM     20  C   LIG    1        7.556  -2.650   7.282  0.00  0.00    +0.510 C 
ATOM     21  F   LIG    1        7.838  -2.827   5.924  0.00  0.00    -0.180 F 
ATOM     22  F   LIG    1        7.915  -3.803   7.988  0.00  0.00    -0.170 F 
ATOM     23  F   LIG    1        8.284  -1.559   7.771  0.00  0.00    -0.180 F 
ENDBRANCH  18  20
ENDBRANCH  13  14
ENDBRANCH  12  13
ENDBRANCH  11  12
ENDBRANCH   1  11
BRANCH   6  24
ATOM     24  N   LIG    1        0.633  -0.491   1.229  0.00  0.00    -0.690 N 
ATOM     25  H   LIG    1        0.935   0.140   1.900  0.00  0.00    +0.430 HD
BRANCH  24  26
ATOM     26  C   LIG    1        0.056  -0.005  -0.027  0.00  0.00    +0.270 C 
BRANCH  26  27
ATOM     27  C   LIG    1        0.047   1.524  -0.026  0.00  0.00    +0.190 C 
BRANCH  27  28
ATOM     28  O   LIG    1        1.391   2.009  -0.015  0.00  0.00    -0.570 OA
ATOM     29  H   LIG    1        1.462   2.973  -0.014  0.00  0.00    +0.390 HD
ENDBRANCH  27  28
ENDBRANCH  26  27
ENDBRANCH  24  26
ENDBRANCH   6  24
TORSDOF 10
