REMARK  Name = ZINCvU0000000455.0
REMARK                            x       y       z     vdW  Elec       q    Type
REMARK                         _______ _______ _______ _____ _____    ______ ____
ROOT
ATOM      1  C   LIG    1        5.646   5.129   0.143  0.00  0.00    +0.290 A 
ATOM      2  N   LIG    1        5.718   5.309   1.430  0.00  0.00    -0.480 NA
ATOM      3  C   LIG    1        6.221   6.544   1.690  0.00  0.00    +0.050 A 
ATOM      4  C   LIG    1        6.506   7.239   2.868  0.00  0.00    +0.070 A 
ATOM      5  C   LIG    1        7.014   8.506   2.804  0.00  0.00    +0.000 A 
ATOM      6  C   LIG    1        7.251   9.113   1.579  0.00  0.00    +0.030 A 
ATOM      7  C   LIG    1        6.978   8.445   0.404  0.00  0.00    +0.010 A 
ATOM      8  C   LIG    1        6.462   7.157   0.449  0.00  0.00    +0.050 A 
ATOM      9  N   LIG    1        6.088   6.237  -0.510  0.00  0.00    -0.480 N 
ENDROOT
BRANCH   1  12
ATOM     10  N   LIG    1        3.584   2.123  -0.021  0.00  0.00    -0.560 N 
ATOM     11  C   LIG    1        3.679   3.585  -0.119  0.00  0.00    +0.300 C 
ATOM     12  C   LIG    1        5.140   3.877  -0.526  0.00  0.00    +0.090 C 
ATOM     13  C   LIG    1        5.873   2.627   0.014  0.00  0.00    +0.100 C 
ATOM     14  C   LIG    1        4.801   1.560   0.066  0.00  0.00    +0.520 C 
ATOM     15  O   LIG    1        5.010   0.370   0.170  0.00  0.00    -0.500 OA
BRANCH  10  21
ATOM     16  C   LIG    1       -1.332   2.113   0.060  0.00  0.00    +0.090 C 
ATOM     17  C   LIG    1       -0.017   1.378   0.026  0.00  0.00    -0.060 A 
ATOM     18  C   LIG    1        0.002  -0.004   0.001  0.00  0.00    -0.020 A 
ATOM     19  C   LIG    1        1.207  -0.682  -0.030  0.00  0.00    +0.040 A 
ATOM     20  C   LIG    1        2.396   0.020  -0.038  0.00  0.00    -0.010 A 
ATOM     21  C   LIG    1        2.381   1.409  -0.013  0.00  0.00    +0.170 A 
ATOM     22  C   LIG    1        1.169   2.087   0.019  0.00  0.00    -0.040 A 
ENDBRANCH  10  21
ENDBRANCH   1  12
BRANCH   9  23
ATOM     23  C   LIG    1        6.155   6.420  -1.962  0.00  0.00    +0.310 C 
BRANCH  23  24
ATOM     24  C   LIG    1        4.840   7.021  -2.462  0.00  0.00    +0.010 C 
BRANCH  24  25
ATOM     25  C   LIG    1        4.910   7.212  -3.978  0.00  0.00    +0.080 C 
BRANCH  25  26
ATOM     26  C   LIG    1        3.614   7.804  -4.470  0.00  0.00    -0.090 A 
ATOM     27  C   LIG    1        2.580   6.975  -4.861  0.00  0.00    +0.000 A 
ATOM     28  C   LIG    1        1.390   7.518  -5.309  0.00  0.00    +0.000 A 
ATOM     29  C   LIG    1        1.238   8.890  -5.374  0.00  0.00    +0.000 A 
ATOM     30  C   LIG    1        2.274   9.720  -4.988  0.00  0.00    +0.000 A 
ATOM     31  C   LIG    1        3.463   9.177  -4.537  0.00  0.00    +0.000 A 
ENDBRANCH  25  26
ENDBRANCH  24  25
ENDBRANCH  23  24
ENDBRANCH   9  23
TORSDOF 6
