REMARK  Name = ZINCqH0000038GFD.0
REMARK                            x       y       z     vdW  Elec       q    Type
REMARK                         _______ _______ _______ _____ _____    ______ ____
ROOT
ATOM      1  N   LIG    1        4.267   2.661  -2.863  0.00  0.00    -0.740 N 
ATOM      2  H   LIG    1        5.057   2.976  -2.397  0.00  0.00    +0.400 HD
ATOM      3  C   LIG    1        3.310   1.992  -2.189  0.00  0.00    +0.720 C 
ATOM      4  N   LIG    1        3.452   1.761  -0.869  0.00  0.00    -0.630 N 
ATOM      5  C   LIG    1        4.597   2.181  -0.041  0.00  0.00    +0.240 C 
ATOM      6  C   LIG    1        4.603   1.198   1.155  0.00  0.00    +0.040 C 
ATOM      7  C   LIG    1        3.085   1.003   1.407  0.00  0.00    +0.040 C 
ATOM      8  C   LIG    1        2.490   1.047  -0.016  0.00  0.00    +0.290 C 
ATOM      9  O   LIG    1        2.320   1.596  -2.773  0.00  0.00    -0.570 OA
ENDROOT
BRANCH   1  15
ATOM     10  C   LIG    1        2.317   6.236  -8.987  0.00  0.00    +0.190 C 
ATOM     11  C   LIG    1        2.922   5.436  -7.862  0.00  0.00    +0.220 A 
ATOM     12  N   LIG    1        2.493   5.418  -6.625  0.00  0.00    -0.310 NA
ATOM     13  N   LIG    1        3.335   4.551  -5.923  0.00  0.00    -0.370 N 
ATOM     14  C   LIG    1        3.283   4.183  -4.508  0.00  0.00    +0.310 C 
ATOM     15  C   LIG    1        4.113   2.912  -4.298  0.00  0.00    +0.260 C 
ATOM     16  C   LIG    1        5.494   3.093  -4.935  0.00  0.00    +0.040 C 
ATOM     17  C   LIG    1        5.346   3.125  -6.462  0.00  0.00    +0.180 C 
ATOM     18  C   LIG    1        4.241   4.093  -6.808  0.00  0.00    +0.270 A 
ATOM     19  N   LIG    1        3.981   4.631  -7.967  0.00  0.00    -0.530 NA
ENDBRANCH   1  15
BRANCH   8  20
ATOM     20  C   LIG    1        1.175   1.783   0.000  0.00  0.00    -0.070 A 
ATOM     21  C   LIG    1        1.157   3.165   0.009  0.00  0.00    +0.040 A 
ATOM     22  C   LIG    1       -0.048   3.842   0.023  0.00  0.00    +0.040 A 
ATOM     23  C   LIG    1       -1.237   3.136   0.031  0.00  0.00    -0.030 A 
ATOM     24  C   LIG    1       -1.220   1.751   0.017  0.00  0.00    -0.030 A 
ATOM     25 CL   LIG    1       -2.711   0.863   0.019  0.00  0.00    -0.050 Cl
ATOM     26 CL   LIG    1       -2.752   3.985   0.051  0.00  0.00    -0.050 Cl
ATOM     27  C   LIG    1       -0.013   1.076   0.008  0.00  0.00    +0.060 A 
ENDBRANCH   8  20
TORSDOF 2
