REMARK  Name = ZINCrD000000A75U.0
REMARK                            x       y       z     vdW  Elec       q    Type
REMARK                         _______ _______ _______ _____ _____    ______ ____
ROOT
ATOM      1  C   LIG    1        1.592   6.544  -3.428  0.00  0.00    +0.080 C 
ATOM      2  N   LIG    1        1.290   5.831  -2.389  0.00  0.00    -0.200 NA
ATOM      3  N   LIG    1       -0.042   5.604  -2.027  0.00  0.00    -0.450 N 
ATOM      4  C   LIG    1       -1.033   5.788  -2.922  0.00  0.00    +0.500 C 
ATOM      5  C   LIG    1       -0.702   6.242  -4.322  0.00  0.00    +0.090 C 
ATOM      6  O   LIG    1       -2.186   5.590  -2.603  0.00  0.00    -0.500 OA
ATOM      7  C   LIG    1        0.516   7.167  -4.277  0.00  0.00    +0.120 C 
ENDROOT
BRANCH   1   9
ATOM      8  O   LIG    1        3.298   7.501  -4.690  0.00  0.00    -0.490 OA
ATOM      9  C   LIG    1        3.002   6.751  -3.778  0.00  0.00    +0.580 C 
ATOM     10  N   LIG    1        3.969   6.112  -3.091  0.00  0.00    -0.590 N 
BRANCH  10  11
ATOM     11  C   LIG    1        3.621   5.299  -1.922  0.00  0.00    +0.330 C 
BRANCH  11  12
ATOM     12  C   LIG    1        3.283   3.877  -2.372  0.00  0.00    +0.440 C 
ATOM     13  F   LIG    1        2.174   3.909  -3.224  0.00  0.00    -0.180 F 
ATOM     14  F   LIG    1        2.989   3.091  -1.253  0.00  0.00    -0.170 F 
ATOM     15  F   LIG    1        4.377   3.330  -3.051  0.00  0.00    -0.190 F 
ENDBRANCH  11  12
ENDBRANCH  10  11
BRANCH  10  16
ATOM     16  C   LIG    1        5.367   6.229  -3.511  0.00  0.00    +0.300 C 
BRANCH  16  17
ATOM     17  C   LIG    1        6.013   7.425  -2.808  0.00  0.00    -0.040 C 
ATOM     18  C   LIG    1        5.795   8.761  -3.538  0.00  0.00    +0.020 C 
ATOM     19  C   LIG    1        7.253   9.101  -3.180  0.00  0.00    +0.000 C 
ATOM     20  C   LIG    1        7.510   7.587  -3.118  0.00  0.00    +0.020 C 
ENDBRANCH  16  17
ENDBRANCH  10  16
ENDBRANCH   1   9
BRANCH   3  21
ATOM     21  C   LIG    1       -0.363   5.169  -0.666  0.00  0.00    +0.370 C 
BRANCH  21  22
ATOM     22  C   LIG    1       -0.523   3.671  -0.641  0.00  0.00    -0.120 A 
ATOM     23  C   LIG    1        0.538   2.869  -0.266  0.00  0.00    +0.030 A 
ATOM     24  C   LIG    1        0.391   1.494  -0.244  0.00  0.00    +0.000 A 
ATOM     25  C   LIG    1       -0.818   0.923  -0.596  0.00  0.00    +0.010 A 
ATOM     26  C   LIG    1       -1.877   1.725  -0.976  0.00  0.00    -0.010 A 
ATOM     27  C   LIG    1       -1.732   3.100  -0.994  0.00  0.00    +0.040 A 
ENDBRANCH  21  22
ENDBRANCH   3  21
TORSDOF 7
