REMARK  Name = ZINCvU00000003J7.0
REMARK                            x       y       z     vdW  Elec       q    Type
REMARK                         _______ _______ _______ _____ _____    ______ ____
ROOT
ATOM      1  N   LIG    1       -7.258   2.927  -1.357  0.00  0.00    -0.970 NA
ENDROOT
BRANCH   1   2
ATOM      2  S   LIG    1       -8.681   2.473  -0.641  0.00  0.00    +2.690 S 
ATOM      3  O   LIG    1       -8.508   2.668   0.755  0.00  0.00    -0.930 OA
ATOM      4  O   LIG    1       -9.036   1.222  -1.214  0.00  0.00    -0.920 OA
BRANCH   2   5
ATOM      5  C   LIG    1       -9.913   3.623  -1.155  0.00  0.00    -0.660 A 
ATOM      6  C   LIG    1       -9.541   4.814  -1.749  0.00  0.00    +0.130 A 
ATOM      7  C   LIG    1      -10.509   5.715  -2.157  0.00  0.00    -0.050 A 
ATOM      8  C   LIG    1      -11.848   5.428  -1.961  0.00  0.00    +0.110 A 
ATOM      9  C   LIG    1      -12.219   4.239  -1.363  0.00  0.00    +0.050 A 
ATOM     10 CL   LIG    1      -10.043   7.209  -2.909  0.00  0.00    -0.040 Cl
ATOM     11  C   LIG    1      -11.252   3.336  -0.960  0.00  0.00    +0.050 A 
ATOM     12 CL   LIG    1      -11.719   1.842  -0.209  0.00  0.00    -0.030 Cl
ENDBRANCH   2   5
ENDBRANCH   1   2
BRANCH   1  13
ATOM     13  C   LIG    1       -6.312   3.779  -0.631  0.00  0.00    +0.330 C 
BRANCH  13  16
ATOM     14  N   LIG    1       -4.500   3.495   1.029  0.00  0.00    -0.670 N 
ATOM     15  H   LIG    1       -4.409   4.460   1.048  0.00  0.00    +0.410 HD
ATOM     16  C   LIG    1       -5.429   2.921   0.238  0.00  0.00    +0.490 C 
ATOM     17  O   LIG    1       -5.553   1.715   0.226  0.00  0.00    -0.490 OA
BRANCH  14  25
ATOM     18  C   LIG    1       -4.365   4.052   3.817  0.00  0.00    +0.090 C 
ATOM     19  C   LIG    1       -3.572   2.935   3.188  0.00  0.00    -0.090 A 
ATOM     20  C   LIG    1       -2.746   2.149   3.967  0.00  0.00    +0.000 A 
ATOM     21  C   LIG    1       -2.023   1.121   3.392  0.00  0.00    +0.000 A 
ATOM     22  C   LIG    1       -2.120   0.879   2.034  0.00  0.00    +0.000 A 
ATOM     23  C   LIG    1       -2.940   1.664   1.248  0.00  0.00    -0.070 A 
ATOM     24  C   LIG    1       -3.046   1.399  -0.232  0.00  0.00    +0.110 C 
ATOM     25  C   LIG    1       -3.668   2.698   1.823  0.00  0.00    +0.140 A 
ENDBRANCH  14  25
ENDBRANCH  13  16
ENDBRANCH   1  13
BRANCH   1  26
ATOM     26  C   LIG    1       -6.944   2.477  -2.715  0.00  0.00    +0.350 C 
BRANCH  26  27
ATOM     27  C   LIG    1       -6.054   1.263  -2.649  0.00  0.00    -0.100 A 
ATOM     28  C   LIG    1       -4.688   1.398  -2.807  0.00  0.00    +0.010 A 
ATOM     29  C   LIG    1       -3.870   0.285  -2.741  0.00  0.00    +0.000 A 
ATOM     30  C   LIG    1       -4.421  -0.965  -2.529  0.00  0.00    +0.010 A 
ATOM     31  C   LIG    1       -5.788  -1.101  -2.376  0.00  0.00    +0.000 A 
ATOM     32  C   LIG    1       -6.605   0.013  -2.436  0.00  0.00    +0.050 A 
ENDBRANCH  26  27
ENDBRANCH   1  26
TORSDOF 7
