REMARK  Name = ZINCrH000004rRJg.0
REMARK                            x       y       z     vdW  Elec       q    Type
REMARK                         _______ _______ _______ _____ _____    ______ ____
ROOT
ATOM      1  N   LIG    1        4.942   2.498   1.849  0.00  0.00    -0.560 N 
ATOM      2  C   LIG    1        5.502   1.516   1.133  0.00  0.00    +0.710 C 
ATOM      3  N   LIG    1        4.824   1.256   0.001  0.00  0.00    -0.720 N 
ATOM      4  H   LIG    1        5.046   0.589  -0.668  0.00  0.00    +0.440 HD
ATOM      5  C   LIG    1        3.678   2.181  -0.026  0.00  0.00    +0.170 C 
ATOM      6  C   LIG    1        3.755   3.097  -1.249  0.00  0.00    +0.100 C 
ATOM      7  O   LIG    1        6.511   0.927   1.467  0.00  0.00    -0.530 OA
ATOM      8  C   LIG    1        3.834   2.979   1.253  0.00  0.00    +0.540 C 
ATOM      9  O   LIG    1        3.113   3.866   1.655  0.00  0.00    -0.440 OA
ENDROOT
BRANCH   5  10
ATOM     10  C   LIG    1        2.379   1.417  -0.019  0.00  0.00    -0.090 A 
ATOM     11  C   LIG    1        2.390   0.035  -0.021  0.00  0.00    +0.070 A 
ATOM     12  C   LIG    1        1.199  -0.667  -0.015  0.00  0.00    +0.050 A 
ATOM     13  C   LIG    1       -0.005   0.014  -0.007  0.00  0.00    -0.010 A 
ATOM     14  C   LIG    1       -0.017   1.397  -0.005  0.00  0.00    +0.050 A 
ATOM     15 CL   LIG    1       -1.500  -0.868   0.000  0.00  0.00    -0.050 Cl
ATOM     16  C   LIG    1        1.175   2.099  -0.011  0.00  0.00    -0.010 A 
ATOM     17 CL   LIG    1        1.161   3.835  -0.009  0.00  0.00    -0.020 Cl
ENDBRANCH   5  10
BRANCH   1  18
ATOM     18  C   LIG    1        5.469   2.988   3.125  0.00  0.00    +0.360 C 
BRANCH  18  21
ATOM     19  N   LIG    1        7.052   4.723   3.902  0.00  0.00    -0.670 N 
ATOM     20  H   LIG    1        6.820   4.484   4.813  0.00  0.00    +0.410 HD
ATOM     21  C   LIG    1        6.439   4.113   2.869  0.00  0.00    +0.500 C 
ATOM     22  O   LIG    1        6.667   4.470   1.732  0.00  0.00    -0.510 OA
BRANCH  19  28
ATOM     23  C   LIG    1       11.265   6.910   5.184  0.00  0.00    +0.090 C 
ATOM     24  C   LIG    1       10.076   6.783   4.266  0.00  0.00    -0.070 A 
ATOM     25  C   LIG    1        9.945   7.634   3.184  0.00  0.00    -0.010 A 
ATOM     26  C   LIG    1        8.855   7.521   2.340  0.00  0.00    +0.030 A 
ATOM     27  C   LIG    1        7.895   6.557   2.575  0.00  0.00    +0.020 A 
ATOM     28  C   LIG    1        8.024   5.701   3.661  0.00  0.00    +0.140 A 
ATOM     29  C   LIG    1        9.116   5.820   4.510  0.00  0.00    -0.010 A 
ENDBRANCH  19  28
ENDBRANCH  18  21
ENDBRANCH   1  18
TORSDOF 4
