REMARK  Name = ZINCrD00000F5Lsi.0
REMARK                            x       y       z     vdW  Elec       q    Type
REMARK                         _______ _______ _______ _____ _____    ______ ____
ROOT
ATOM      1  N   LIG    1        0.002  -0.004   0.002  0.00  0.00    -1.000 NA
ATOM      2  C   LIG    1       -0.018   1.465   0.010  0.00  0.00    +0.280 C 
ATOM      3  C   LIG    1        1.426   1.978  -0.001  0.00  0.00    +0.030 C 
ATOM      4  C   LIG    1        2.171   1.366  -1.189  0.00  0.00    +0.040 C 
ATOM      5  C   LIG    1        2.201  -0.158  -1.045  0.00  0.00    +0.000 C 
ATOM      6  C   LIG    1        0.766  -0.695  -1.046  0.00  0.00    +0.330 C 
ENDROOT
BRANCH   5   7
ATOM      7  C   LIG    1        2.963  -0.757  -2.199  0.00  0.00    +0.540 C 
ATOM      8  N   LIG    1        4.254  -0.427  -2.398  0.00  0.00    -0.580 N 
ATOM      9  H   LIG    1        4.693   0.197  -1.798  0.00  0.00    +0.390 HD
ATOM     10  O   LIG    1        2.414  -1.537  -2.949  0.00  0.00    -0.490 OA
BRANCH   8  11
ATOM     11  N   LIG    1        4.963  -0.984  -3.470  0.00  0.00    -0.230 NA
ATOM     12  C   LIG    1        6.209  -0.665  -3.662  0.00  0.00    +0.280 C 
BRANCH  12  13
ATOM     13  C   LIG    1        6.951  -1.248  -4.785  0.00  0.00    -0.150 A 
ATOM     14  C   LIG    1        8.255  -0.992  -5.086  0.00  0.00    +0.060 A 
ATOM     15  C   LIG    1        8.727  -1.664  -6.191  0.00  0.00    +0.050 A 
ATOM     16  C   LIG    1        7.838  -2.461  -6.796  0.00  0.00    -0.210 A 
ATOM     17 BR   LIG    1        8.187  -3.509  -8.331  0.00  0.00    +0.010 Br
ATOM     18  S   LIG    1        6.298  -2.394  -5.949  0.00  0.00    +0.240 S 
ENDBRANCH  12  13
ENDBRANCH   8  11
ENDBRANCH   5   7
BRANCH   1  19
ATOM     19  S   LIG    1       -0.821  -0.865   1.152  0.00  0.00    +2.690 S 
ATOM     20  O   LIG    1       -0.967  -0.003   2.272  0.00  0.00    -0.950 OA
ATOM     21  O   LIG    1       -0.192  -2.137   1.228  0.00  0.00    -0.950 OA
BRANCH  19  26
ATOM     22  C   LIG    1       -6.380  -1.840  -0.983  0.00  0.00    +0.090 C 
ATOM     23  C   LIG    1       -4.991  -1.596  -0.450  0.00  0.00    -0.030 A 
ATOM     24  C   LIG    1       -3.983  -2.507  -0.706  0.00  0.00    -0.010 A 
ATOM     25  C   LIG    1       -2.710  -2.284  -0.217  0.00  0.00    +0.130 A 
ATOM     26  C   LIG    1       -2.444  -1.150   0.528  0.00  0.00    -0.690 A 
ATOM     27  C   LIG    1       -3.454  -0.242   0.788  0.00  0.00    +0.120 A 
ATOM     28  C   LIG    1       -4.726  -0.462   0.294  0.00  0.00    -0.010 A 
ENDBRANCH  19  26
ENDBRANCH   1  19
TORSDOF 5
