REMARK  Name = ZINCrD00000dTlyN.0
REMARK                            x       y       z     vdW  Elec       q    Type
REMARK                         _______ _______ _______ _____ _____    ______ ____
ROOT
ATOM      1  N   LIG    1        1.350   1.694  -0.175  0.00  0.00    -0.450 N 
ATOM      2  C   LIG    1        0.038   1.373   0.080  0.00  0.00    +0.270 A 
ATOM      3  N   LIG    1       -0.021   0.068   0.211  0.00  0.00    -0.280 NA
ATOM      4  N   LIG    1        1.148  -0.441   0.057  0.00  0.00    -0.300 NA
ATOM      5  C   LIG    1        2.025   0.506  -0.181  0.00  0.00    +0.350 A 
ENDROOT
BRANCH   5   6
ATOM      6  N   LIG    1        3.383   0.333  -0.398  0.00  0.00    -0.450 N 
ATOM      7  C   LIG    1        3.628  -0.382  -1.661  0.00  0.00    +0.200 C 
ATOM      8  C   LIG    1        5.103  -0.222  -2.031  0.00  0.00    +0.100 C 
ATOM      9  C   LIG    1        5.970  -0.581  -0.852  0.00  0.00    -0.050 A 
ATOM     10  C   LIG    1        7.313  -0.842  -1.075  0.00  0.00    -0.010 A 
ATOM     11  C   LIG    1        8.146  -1.171  -0.019  0.00  0.00    +0.110 A 
ATOM     12  C   LIG    1        7.632  -1.239   1.268  0.00  0.00    -0.020 A 
ATOM     13  C   LIG    1        6.295  -0.980   1.486  0.00  0.00    +0.040 A 
ATOM     14  C   LIG    1        5.460  -0.652   0.428  0.00  0.00    -0.080 A 
ATOM     15  C   LIG    1        4.007  -0.382   0.719  0.00  0.00    +0.220 C 
ATOM     16  C   LIG    1        3.896   0.467   1.987  0.00  0.00    +0.050 C 
BRANCH  11  17
ATOM     17  O   LIG    1        9.463  -1.425  -0.242  0.00  0.00    -0.500 OA
ATOM     18  H   LIG    1       10.029  -0.644  -0.187  0.00  0.00    +0.390 HD
ENDBRANCH  11  17
ENDBRANCH   5   6
BRANCH   2  19
ATOM     19  C   LIG    1       -1.095   2.319   0.182  0.00  0.00    +0.060 A 
ATOM     20  C   LIG    1       -2.393   1.994   0.429  0.00  0.00    +0.210 A 
ATOM     21  N   LIG    1       -3.095   3.166   0.438  0.00  0.00    -0.560 N 
ATOM     22  H   LIG    1       -4.048   3.263   0.589  0.00  0.00    +0.430 HD
ATOM     23  C   LIG    1       -2.218   4.166   0.198  0.00  0.00    +0.250 A 
ATOM     24  N   LIG    1       -1.026   3.661   0.052  0.00  0.00    -0.470 NA
BRANCH  23  25
ATOM     25  C   LIG    1       -2.562   5.631   0.121  0.00  0.00    +0.060 C 
ATOM     26  C   LIG    1       -4.036   6.003  -0.056  0.00  0.00    +0.030 C 
ATOM     27  C   LIG    1       -3.060   6.170  -1.222  0.00  0.00    +0.050 C 
ENDBRANCH  23  25
ENDBRANCH   2  19
BRANCH   1  29
ATOM     28  C   LIG    1        2.238   3.674   0.954  0.00  0.00    +0.040 C 
ATOM     29  C   LIG    1        1.909   3.030  -0.395  0.00  0.00    +0.320 C 
ENDBRANCH   1  29
TORSDOF 5
