REMARK  Name = ZINCpk000000n19I.0
REMARK                            x       y       z     vdW  Elec       q    Type
REMARK                         _______ _______ _______ _____ _____    ______ ____
ROOT
ATOM      1  N   LIG    1       -3.639   3.352   2.655  0.00  0.00    -0.660 N 
ATOM      2  H   LIG    1       -3.251   3.051   3.491  0.00  0.00    +0.430 HD
ATOM      3  C   LIG    1       -3.058   3.021   1.484  0.00  0.00    +0.530 C 
ATOM      4  O   LIG    1       -3.587   3.325   0.437  0.00  0.00    -0.510 OA
ENDROOT
BRANCH   1  10
ATOM      5  C   LIG    1       -5.033   5.060   3.690  0.00  0.00    -0.260 A 
ATOM      6  C   LIG    1       -6.208   5.816   3.649  0.00  0.00    +0.340 A 
ATOM      7  N   LIG    1       -7.079   5.647   2.676  0.00  0.00    -0.500 NA
ATOM      8  C   LIG    1       -6.885   4.774   1.703  0.00  0.00    +0.320 A 
ATOM      9  C   LIG    1       -5.751   3.990   1.660  0.00  0.00    -0.030 A 
ATOM     10  C   LIG    1       -4.793   4.123   2.663  0.00  0.00    +0.250 A 
BRANCH   5  12
ATOM     11  C   LIG    1       -4.389   6.158   5.931  0.00  0.00    +0.090 C 
ATOM     12  C   LIG    1       -4.064   5.242   4.778  0.00  0.00    +0.410 C 
ATOM     13  O   LIG    1       -3.003   4.655   4.750  0.00  0.00    -0.470 OA
ENDBRANCH   5  12
ENDBRANCH   1  10
BRANCH   3  14
ATOM     14  C   LIG    1       -1.750   2.273   1.478  0.00  0.00    +0.060 C 
BRANCH  14  15
ATOM     15  C   LIG    1       -1.312   2.025   0.033  0.00  0.00    +0.360 C 
BRANCH  15  16
ATOM     16  N   LIG    1       -0.040   1.297   0.026  0.00  0.00    -0.460 N 
ATOM     17  N   LIG    1        1.167   2.002   0.019  0.00  0.00    +0.090 NA
ATOM     18  N   LIG    1        2.313   1.424   0.007  0.00  0.00    -0.190 NA
ATOM     19  C   LIG    1        2.436   0.073   0.002  0.00  0.00    +0.060 A 
ATOM     20  C   LIG    1        3.690  -0.542  -0.010  0.00  0.00    +0.080 A 
ATOM     21  C   LIG    1        3.777  -1.916  -0.015  0.00  0.00    +0.070 A 
ATOM     22  C   LIG    1        2.631  -2.701  -0.009  0.00  0.00    +0.040 A 
ATOM     23  C   LIG    1        1.383  -2.118   0.003  0.00  0.00    +0.100 A 
ATOM     24  C   LIG    1        1.273  -0.728   0.009  0.00  0.00    -0.150 A 
ATOM     25  C   LIG    1       -0.035  -0.057   0.022  0.00  0.00    +0.530 A 
ATOM     26  O   LIG    1       -1.073  -0.693   0.028  0.00  0.00    -0.500 OA
ENDBRANCH  15  16
ENDBRANCH  14  15
ENDBRANCH   3  14
TORSDOF 5
