REMARK  Name = ZINCpk000000oYdh.0
REMARK                            x       y       z     vdW  Elec       q    Type
REMARK                         _______ _______ _______ _____ _____    ______ ____
ROOT
ATOM      1  C   LIG    1       -5.896   9.628  -2.798  0.00  0.00    +0.650 C 
ATOM      2  N   LIG    1       -5.145   8.536  -2.553  0.00  0.00    -0.600 N 
ATOM      3  C   LIG    1       -5.206   7.371  -3.446  0.00  0.00    +0.300 C 
ATOM      4  C   LIG    1       -5.552   6.131  -2.611  0.00  0.00    +0.290 C 
ATOM      5  N   LIG    1       -4.657   6.085  -1.446  0.00  0.00    -0.610 N 
ATOM      6  C   LIG    1       -4.600   7.248  -0.550  0.00  0.00    +0.280 C 
ATOM      7  C   LIG    1       -3.906   4.993  -1.202  0.00  0.00    +0.500 C 
ATOM      8  O   LIG    1       -3.897   4.073  -1.992  0.00  0.00    -0.500 OA
ATOM      9  C   LIG    1       -4.250   8.490  -1.388  0.00  0.00    +0.290 C 
ATOM     10  O   LIG    1       -6.632   9.655  -3.764  0.00  0.00    -0.570 OA
ENDROOT
BRANCH   7  11
ATOM     11  C   LIG    1       -3.078   4.914   0.055  0.00  0.00    +0.270 C 
ATOM     12  C   LIG    1       -3.986   4.602   1.246  0.00  0.00    +0.080 C 
BRANCH  11  13
ATOM     13  N   LIG    1       -2.076   3.855  -0.086  0.00  0.00    -0.540 N 
ATOM     14  C   LIG    1       -2.322   2.550  -0.317  0.00  0.00    +0.650 A 
ATOM     15  O   LIG    1       -1.161   1.881  -0.388  0.00  0.00    -0.240 OA
ATOM     16  C   LIG    1       -0.135   2.750  -0.215  0.00  0.00    +0.040 A 
ATOM     17  C   LIG    1        1.242   2.595  -0.196  0.00  0.00    +0.060 A 
ATOM     18  C   LIG    1        2.056   3.694   0.001  0.00  0.00    +0.030 A 
ATOM     19  C   LIG    1        1.503   4.949   0.185  0.00  0.00    +0.040 A 
ATOM     20  C   LIG    1        0.131   5.112   0.174  0.00  0.00    +0.020 A 
ATOM     21  O   LIG    1       -3.427   2.054  -0.433  0.00  0.00    -0.460 OA
ATOM     22  C   LIG    1       -0.692   4.015  -0.023  0.00  0.00    +0.070 A 
ENDBRANCH  11  13
ENDBRANCH   7  11
BRANCH   1  23
ATOM     23  O   LIG    1       -5.830  10.690  -1.972  0.00  0.00    -0.370 OA
BRANCH  23  25
ATOM     24  C   LIG    1       -6.458  12.930  -1.253  0.00  0.00    +0.070 C 
ATOM     25  C   LIG    1       -6.667  11.831  -2.297  0.00  0.00    +0.220 C 
ENDBRANCH  23  25
ENDBRANCH   1  23
TORSDOF 4
