REMARK  Name = ZINCpk00000xIfBj.0
REMARK                            x       y       z     vdW  Elec       q    Type
REMARK                         _______ _______ _______ _____ _____    ______ ____
ROOT
ATOM      1  C   LIG    1        4.150   4.669  -1.673  0.00  0.00    +0.290 C 
ENDROOT
BRANCH   1   2
ATOM      2  C   LIG    1        2.646   4.540  -1.421  0.00  0.00    +0.000 C 
ATOM      3  C   LIG    1        1.973   5.931  -1.371  0.00  0.00    +0.060 C 
ATOM      4  C   LIG    1        1.972   6.290   0.099  0.00  0.00    +0.520 C 
ATOM      5  N   LIG    1        2.202   5.193   0.844  0.00  0.00    -0.620 N 
ATOM      6  C   LIG    1        2.277   5.186   2.307  0.00  0.00    +0.300 C 
ATOM      7  O   LIG    1        1.793   7.405   0.542  0.00  0.00    -0.520 OA
ATOM      8  C   LIG    1        2.368   4.004   0.001  0.00  0.00    +0.300 C 
BRANCH   8   9
ATOM      9  C   LIG    1        1.107   3.179   0.009  0.00  0.00    -0.160 A 
ATOM     10  C   LIG    1        1.174   1.794   0.001  0.00  0.00    +0.080 A 
ATOM     11  C   LIG    1       -0.013   1.076   0.008  0.00  0.00    -0.030 A 
ATOM     12  C   LIG    1       -1.214   1.759   0.017  0.00  0.00    +0.260 A 
ATOM     13  N   LIG    1       -1.239   3.078   0.030  0.00  0.00    -0.480 NA
ATOM     14  C   LIG    1       -0.132   3.793   0.024  0.00  0.00    +0.270 A 
ENDBRANCH   8   9
ENDBRANCH   1   2
BRANCH   1  16
ATOM     15  C   LIG    1        5.638   5.239  -3.516  0.00  0.00    +0.570 C 
ATOM     16  N   LIG    1        4.380   5.064  -3.064  0.00  0.00    -0.730 N 
ATOM     17  H   LIG    1        3.627   5.201  -3.661  0.00  0.00    +0.400 HD
ATOM     18  O   LIG    1        6.581   5.068  -2.769  0.00  0.00    -0.510 OA
BRANCH  15  24
ATOM     19  C   LIG    1        7.173   5.828  -5.400  0.00  0.00    +0.370 A 
ATOM     20  N   LIG    1        7.377   6.179  -6.658  0.00  0.00    -0.540 NA
ATOM     21  C   LIG    1        6.376   6.373  -7.496  0.00  0.00    +0.340 A 
ATOM     22  C   LIG    1        5.063   6.211  -7.093  0.00  0.00    -0.070 A 
ATOM     23  C   LIG    1        4.792   5.838  -5.789  0.00  0.00    +0.130 A 
ATOM     24  C   LIG    1        5.869   5.637  -4.918  0.00  0.00    -0.220 A 
BRANCH  19  26
ATOM     25  C   LIG    1        9.531   5.856  -5.126  0.00  0.00    +0.250 C 
ATOM     26  O   LIG    1        8.230   5.646  -4.573  0.00  0.00    -0.270 OA
ENDBRANCH  19  26
ENDBRANCH  15  24
ENDBRANCH   1  16
TORSDOF 5
