REMARK  Name = ZINCpe000000YYGq.0
REMARK                            x       y       z     vdW  Elec       q    Type
REMARK                         _______ _______ _______ _____ _____    ______ ____
ROOT
ATOM      1  C   LIG    1       -0.393   7.546  -1.750  0.00  0.00    +0.390 C 
ENDROOT
BRANCH   1   3
ATOM      2  O   LIG    1       -2.685   7.342  -1.226  0.00  0.00    -0.520 OA
ATOM      3  C   LIG    1       -1.564   6.919  -1.039  0.00  0.00    +0.510 C 
ATOM      4  N   LIG    1       -1.365   5.887  -0.195  0.00  0.00    -0.610 N 
ATOM      5  C   LIG    1       -2.488   5.253   0.516  0.00  0.00    +0.290 C 
ATOM      6  C   LIG    1       -2.596   3.808   0.029  0.00  0.00    +0.070 C 
ATOM      7  C   LIG    1       -1.246   3.140   0.029  0.00  0.00    -0.070 A 
ATOM      8  C   LIG    1       -1.216   1.751   0.017  0.00  0.00    +0.000 A 
ATOM      9  C   LIG    1       -0.013   1.076   0.008  0.00  0.00    +0.010 A 
ATOM     10  C   LIG    1        1.174   1.785   0.000  0.00  0.00    +0.010 A 
ATOM     11  C   LIG    1        1.146   3.165   0.012  0.00  0.00    +0.020 A 
ATOM     12  C   LIG    1       -0.063   3.845   0.028  0.00  0.00    -0.100 A 
ATOM     13  C   LIG    1       -0.022   5.352   0.054  0.00  0.00    +0.330 C 
ENDBRANCH   1   3
BRANCH   1  14
ATOM     14  N   LIG    1       -0.869   8.638  -2.604  0.00  0.00    -0.530 N 
ATOM     15  C   LIG    1       -1.014   9.945  -2.277  0.00  0.00    +0.570 A 
ATOM     16  O   LIG    1       -1.475  10.558  -3.379  0.00  0.00    +0.010 OA
ATOM     17  N   LIG    1       -1.611   9.770  -4.287  0.00  0.00    -0.300 NA
ATOM     18  O   LIG    1       -0.774  10.459  -1.202  0.00  0.00    -0.460 OA
ATOM     19  C   LIG    1       -1.266   8.569  -3.932  0.00  0.00    +0.290 A 
BRANCH  19  20
ATOM     20  C   LIG    1       -1.296   7.356  -4.782  0.00  0.00    +0.130 A 
ATOM     21  C   LIG    1       -1.728   7.439  -6.105  0.00  0.00    +0.300 A 
ATOM     22  N   LIG    1       -1.748   6.356  -6.859  0.00  0.00    -0.430 NA
ATOM     23  C   LIG    1       -1.369   5.192  -6.359  0.00  0.00    +0.260 A 
ATOM     24  C   LIG    1       -0.944   5.105  -5.043  0.00  0.00    +0.250 A 
ATOM     25  N   LIG    1       -0.915   6.183  -4.283  0.00  0.00    -0.420 NA
ENDBRANCH  19  20
ENDBRANCH   1  14
TORSDOF 3
