REMARK  Name = ZINCpk000000o3pA.0
REMARK                            x       y       z     vdW  Elec       q    Type
REMARK                         _______ _______ _______ _____ _____    ______ ____
ROOT
ATOM      1  C   LIG    1       -1.187   1.624   0.007  0.00  0.00    +0.610 C 
ATOM      2  N   LIG    1       -0.011   0.966   0.004  0.00  0.00    -0.710 N 
ATOM      3  H   LIG    1        0.002  -0.004   0.006  0.00  0.00    +0.420 HD
ATOM      4  O   LIG    1       -1.204   2.840   0.005  0.00  0.00    -0.540 OA
ENDROOT
BRANCH   1   7
ATOM      5  N   LIG    1       -4.580   0.385   0.021  0.00  0.00    -0.360 N 
ATOM      6  C   LIG    1       -3.708   1.413   0.016  0.00  0.00    +0.310 A 
ATOM      7  C   LIG    1       -2.455   0.870   0.013  0.00  0.00    -0.110 A 
ATOM      8  N   LIG    1       -2.572  -0.469   0.010  0.00  0.00    -0.200 NA
ATOM      9  N   LIG    1       -3.818  -0.792   0.020  0.00  0.00    -0.050 NA
BRANCH   5  10
ATOM     10  C   LIG    1       -6.042   0.479   0.025  0.00  0.00    +0.350 C 
BRANCH  10  12
ATOM     11  C   LIG    1       -6.011  -1.719  -1.269  0.00  0.00    +0.090 C 
ATOM     12  C   LIG    1       -6.608  -0.315  -1.153  0.00  0.00    -0.150 C 
ATOM     13  C   LIG    1       -6.626   0.468  -2.480  0.00  0.00    +0.210 C 
ATOM     14  O   LIG    1       -7.945  -0.086  -2.658  0.00  0.00    -0.370 OA
ATOM     15  C   LIG    1       -8.145  -0.283  -1.244  0.00  0.00    +0.240 C 
ENDBRANCH  10  12
ENDBRANCH   5  10
ENDBRANCH   1   7
BRANCH   2  16
ATOM     16  C   LIG    1        1.248   1.716  -0.007  0.00  0.00    +0.320 C 
BRANCH  16  17
ATOM     17  C   LIG    1        2.406   0.752  -0.015  0.00  0.00    +0.510 C 
ATOM     18  N   LIG    1        3.671   1.218  -0.026  0.00  0.00    -0.670 N 
ATOM     19  H   LIG    1        3.835   2.172  -0.097  0.00  0.00    +0.420 HD
ATOM     20  O   LIG    1        2.201  -0.443  -0.011  0.00  0.00    -0.510 OA
BRANCH  18  21
ATOM     21  C   LIG    1        4.746   0.327   0.064  0.00  0.00    +0.160 A 
ATOM     22  C   LIG    1        5.898   0.695   0.747  0.00  0.00    +0.000 A 
ATOM     23  C   LIG    1        6.956  -0.189   0.839  0.00  0.00    +0.070 A 
ATOM     24  C   LIG    1        6.872  -1.435   0.243  0.00  0.00    -0.100 A 
ATOM     25  C   LIG    1        5.728  -1.801  -0.442  0.00  0.00    +0.070 A 
ATOM     26 BR   LIG    1        8.325  -2.639   0.365  0.00  0.00    -0.050 Br
ATOM     27  C   LIG    1        4.665  -0.924  -0.533  0.00  0.00    +0.040 A 
ENDBRANCH  18  21
ENDBRANCH  16  17
ENDBRANCH   2  16
TORSDOF 6
