REMARK  Name = ZINCpk00000KfLIM.0
REMARK                            x       y       z     vdW  Elec       q    Type
REMARK                         _______ _______ _______ _____ _____    ______ ____
ROOT
ATOM      1  N   LIG    1        0.503  -0.919  -1.409  0.00  0.00    -0.530 NA
ATOM      2  C   LIG    1        1.956  -0.717  -1.495  0.00  0.00    +0.200 C 
ATOM      3  C   LIG    1        2.427  -1.013  -2.921  0.00  0.00    +0.200 C 
ATOM      4  N   LIG    1        1.719  -0.131  -3.860  0.00  0.00    -0.500 NA
ATOM      5  C   LIG    1        0.266  -0.333  -3.775  0.00  0.00    +0.200 C 
ATOM      6  C   LIG    1       -0.204  -0.037  -2.349  0.00  0.00    +0.180 C 
ENDROOT
BRANCH   1   7
ATOM      7  C   LIG    1        0.024  -0.718  -0.036  0.00  0.00    +0.270 C 
ATOM      8  C   LIG    1        0.697  -1.730   0.893  0.00  0.00    +0.080 C 
BRANCH   7  13
ATOM      9  C   LIG    1       -4.872  -0.186   0.873  0.00  0.00    +0.210 C 
ATOM     10  C   LIG    1       -3.542  -0.699   0.385  0.00  0.00    +0.170 A 
ATOM     11  N   LIG    1       -3.344  -1.764  -0.333  0.00  0.00    -0.390 NA
ATOM     12  O   LIG    1       -2.161  -1.904  -0.560  0.00  0.00    +0.100 OA
ATOM     13  C   LIG    1       -1.470  -0.911   0.009  0.00  0.00    +0.190 A 
ATOM     14  N   LIG    1       -2.340  -0.141   0.617  0.00  0.00    -0.480 NA
ENDBRANCH   7  13
ENDBRANCH   1   7
BRANCH   4  15
ATOM     15  C   LIG    1        2.199  -0.332  -5.234  0.00  0.00    +0.230 C 
BRANCH  15  16
ATOM     16  C   LIG    1        3.675  -0.037  -5.299  0.00  0.00    -0.090 A 
ATOM     17  C   LIG    1        4.119   1.147  -5.858  0.00  0.00    +0.070 A 
ATOM     18  C   LIG    1        5.473   1.420  -5.913  0.00  0.00    -0.010 A 
ATOM     19  C   LIG    1        6.385   0.503  -5.419  0.00  0.00    +0.110 A 
ATOM     20  C   LIG    1        5.939  -0.685  -4.865  0.00  0.00    -0.010 A 
ATOM     21  F   LIG    1        7.708   0.767  -5.478  0.00  0.00    -0.140 F 
ATOM     22  C   LIG    1        4.585  -0.954  -4.805  0.00  0.00    +0.050 A 
ENDBRANCH  15  16
BRANCH  15  23
ATOM     23  C   LIG    1        1.953  -1.760  -5.648  0.00  0.00    +0.490 C 
ATOM     24  O   LIG    1        1.430  -2.534  -4.875  0.00  0.00    -0.530 OA
ATOM     25  N   LIG    1        2.314  -2.177  -6.878  0.00  0.00    -0.850 N 
ATOM     26  H   LIG    1        2.156  -3.097  -7.144  0.00  0.00    +0.400 HD
ATOM     27  H   LIG    1        2.733  -1.558  -7.496  0.00  0.00    +0.400 HD
ENDBRANCH  15  23
ENDBRANCH   4  15
TORSDOF 5
