REMARK  Name = ZINCvU00000003Py.0
REMARK                            x       y       z     vdW  Elec       q    Type
REMARK                         _______ _______ _______ _____ _____    ______ ____
ROOT
ATOM      1  C   LIG    1       -0.008   8.329   0.129  0.00  0.00    +0.070 A 
ATOM      2  C   LIG    1       -0.992   7.724  -0.689  0.00  0.00    -0.060 A 
ATOM      3  C   LIG    1       -1.914   8.465  -1.435  0.00  0.00    +0.050 A 
ATOM      4  C   LIG    1       -2.834   7.811  -2.202  0.00  0.00    +0.050 A 
ATOM      5  C   LIG    1       -2.868   6.420  -2.252  0.00  0.00    +0.050 A 
ATOM      6  C   LIG    1       -1.982   5.669  -1.536  0.00  0.00    +0.050 A 
ATOM      7  C   LIG    1       -1.026   6.308  -0.741  0.00  0.00    -0.050 A 
ATOM      8  C   LIG    1       -0.074   5.596   0.031  0.00  0.00    +0.150 A 
ATOM      9  N   LIG    1        0.793   6.277   0.762  0.00  0.00    -0.240 NA
ATOM     10  N   LIG    1        0.827   7.556   0.804  0.00  0.00    -0.270 NA
ENDROOT
BRANCH   8  11
ATOM     11  C   LIG    1       -0.054   4.116   0.024  0.00  0.00    -0.050 A 
ATOM     12  C   LIG    1       -0.177   3.420  -1.179  0.00  0.00    +0.070 A 
ATOM     13  C   LIG    1       -0.158   2.041  -1.180  0.00  0.00    -0.010 A 
ATOM     14  C   LIG    1       -0.018   1.347   0.011  0.00  0.00    +0.120 A 
ATOM     15  C   LIG    1        0.099   2.033   1.209  0.00  0.00    -0.010 A 
ATOM     16  F   LIG    1       -0.000  -0.004   0.004  0.00  0.00    -0.130 F 
ATOM     17  C   LIG    1        0.087   3.412   1.220  0.00  0.00    +0.090 A 
ENDBRANCH   8  11
BRANCH   1  18
ATOM     18  S   LIG    1        0.102  10.083   0.247  0.00  0.00    +0.060 S 
BRANCH  18  19
ATOM     19  C   LIG    1        1.494  10.235   1.394  0.00  0.00    +0.100 C 
BRANCH  19  30
ATOM     20  C   LIG    1        3.573  14.177   1.540  0.00  0.00    +0.050 C 
ATOM     21  C   LIG    1        3.149  13.428   2.805  0.00  0.00    +0.230 C 
ATOM     22  C   LIG    1        4.333  13.309   3.778  0.00  0.00    +0.100 C 
ATOM     23  C   LIG    1        4.550  11.820   3.934  0.00  0.00    -0.130 A 
ATOM     24  C   LIG    1        5.470  11.112   4.682  0.00  0.00    +0.060 A 
ATOM     25  C   LIG    1        5.466   9.730   4.660  0.00  0.00    -0.010 A 
ATOM     26  C   LIG    1        4.539   9.057   3.886  0.00  0.00    +0.050 A 
ATOM     27  C   LIG    1        3.619   9.759   3.137  0.00  0.00    -0.020 A 
ATOM     28  C   LIG    1        3.612  11.155   3.159  0.00  0.00    +0.130 A 
ATOM     29  N   LIG    1        2.779  12.048   2.479  0.00  0.00    -0.540 N 
ATOM     30  C   LIG    1        1.778  11.692   1.650  0.00  0.00    +0.550 C 
ATOM     31  O   LIG    1        1.105  12.545   1.110  0.00  0.00    -0.500 OA
ENDBRANCH  19  30
ENDBRANCH  18  19
ENDBRANCH   1  18
TORSDOF 4
