REMARK  Name = ZINCpe000000UxSx.0
REMARK                            x       y       z     vdW  Elec       q    Type
REMARK                         _______ _______ _______ _____ _____    ______ ____
ROOT
ATOM      1  N   LIG    1       -1.291  -1.119   1.068  0.00  0.00    -0.700 N 
ATOM      2  H   LIG    1       -1.457  -2.075   1.067  0.00  0.00    +0.410 HD
ATOM      3  C   LIG    1       -2.325  -0.257   1.133  0.00  0.00    +0.590 C 
ATOM      4  O   LIG    1       -2.115   0.939   1.212  0.00  0.00    -0.530 OA
ENDROOT
BRANCH   3   5
ATOM      5  C   LIG    1       -3.704  -0.760   1.110  0.00  0.00    +0.020 A 
ATOM      6  C   LIG    1       -4.067  -2.072   1.116  0.00  0.00    +0.060 A 
ATOM      7  C   LIG    1       -5.476  -2.124   1.087  0.00  0.00    -0.230 A 
ATOM      8  C   LIG    1       -6.425  -3.166   1.078  0.00  0.00    +0.420 A 
ATOM      9  N   LIG    1       -7.714  -2.844   1.047  0.00  0.00    -0.580 NA
ATOM     10  C   LIG    1       -8.103  -1.582   1.025  0.00  0.00    +0.550 A 
ATOM     11  N   LIG    1       -7.255  -0.577   1.032  0.00  0.00    -0.550 NA
ATOM     12  C   LIG    1       -5.941  -0.793   1.062  0.00  0.00    +0.340 A 
ATOM     13  N   LIG    1       -4.846   0.023   1.083  0.00  0.00    -0.430 N 
ATOM     14  C   LIG    1       -4.874   1.487   1.074  0.00  0.00    +0.340 C 
BRANCH   8  15
ATOM     15  N   LIG    1       -6.026  -4.486   1.102  0.00  0.00    -0.480 N 
ATOM     16  C   LIG    1       -5.116  -4.781  -0.013  0.00  0.00    +0.230 C 
ATOM     17  C   LIG    1       -7.186  -5.387   1.087  0.00  0.00    +0.240 C 
ENDBRANCH   8  15
ENDBRANCH   3   5
BRANCH   1  18
ATOM     18  C   LIG    1        0.082  -0.613   0.998  0.00  0.00    +0.270 C 
ATOM     19  C   LIG    1        0.243   0.253  -0.253  0.00  0.00    +0.060 C 
ATOM     20  C   LIG    1        0.379   0.227   2.242  0.00  0.00    +0.060 C 
BRANCH  18  24
ATOM     21  C   LIG    1        4.233  -3.405   0.742  0.00  0.00    +0.370 C 
ATOM     22  N   LIG    1        2.833  -2.982   0.823  0.00  0.00    -0.290 N 
ATOM     23  C   LIG    1        2.391  -1.704   0.855  0.00  0.00    +0.160 A 
ATOM     24  C   LIG    1        1.042  -1.773   0.934  0.00  0.00    -0.030 A 
ATOM     25  N   LIG    1        0.728  -3.073   0.937  0.00  0.00    -0.270 NA
ATOM     26  N   LIG    1        1.811  -3.764   0.870  0.00  0.00    -0.080 NA
ENDBRANCH  18  24
ENDBRANCH   1  18
TORSDOF 4
