REMARK  Name = ZINCpe000000Zzw1.0
REMARK                            x       y       z     vdW  Elec       q    Type
REMARK                         _______ _______ _______ _____ _____    ______ ____
ROOT
ATOM      1  C   LIG    1        1.168   3.470   0.623  0.00  0.00    -0.690 A 
ATOM      2  C   LIG    1        1.292   2.092   0.621  0.00  0.00    +0.150 A 
ATOM      3  C   LIG    1        0.180   1.290   0.433  0.00  0.00    -0.010 A 
ATOM      4  C   LIG    1       -1.060   1.862   0.241  0.00  0.00    +0.100 A 
ATOM      5  C   LIG    1       -1.194   3.251   0.245  0.00  0.00    -0.150 A 
ATOM      6  C   LIG    1       -0.068   4.054   0.436  0.00  0.00    +0.180 A 
ENDROOT
BRANCH   5   7
ATOM      7  C   LIG    1       -2.522   3.870   0.045  0.00  0.00    +0.550 C 
ATOM      8  N   LIG    1       -3.624   3.277   0.545  0.00  0.00    -0.600 N 
ATOM      9  C   LIG    1       -3.494   1.972   1.153  0.00  0.00    +0.270 C 
ATOM     10  C   LIG    1       -3.674   0.874   0.083  0.00  0.00    +0.020 C 
ATOM     11  C   LIG    1       -5.079   0.804  -0.345  0.00  0.00    +0.000 C 
ATOM     12  C   LIG    1       -5.596   2.074  -1.014  0.00  0.00    +0.010 C 
ATOM     13  C   LIG    1       -6.064   3.042   0.045  0.00  0.00    +0.020 C 
ATOM     14  C   LIG    1       -4.915   3.985   0.445  0.00  0.00    +0.270 C 
ATOM     15  O   LIG    1       -2.619   4.913  -0.571  0.00  0.00    -0.520 OA
ENDBRANCH   5   7
BRANCH   1  16
ATOM     16  S   LIG    1        2.590   4.481   0.864  0.00  0.00    +2.700 S 
ATOM     17  O   LIG    1        3.540   3.680   1.553  0.00  0.00    -0.940 OA
ATOM     18  O   LIG    1        2.118   5.726   1.359  0.00  0.00    -0.940 OA
BRANCH  16  22
ATOM     19  O   LIG    1        2.071   6.299  -3.611  0.00  0.00    -0.540 OA
ATOM     20  C   LIG    1        2.634   5.537  -2.853  0.00  0.00    +0.510 C 
ATOM     21  C   LIG    1        2.816   5.956  -1.420  0.00  0.00    +0.350 C 
ATOM     22  N   LIG    1        3.233   4.787  -0.632  0.00  0.00    -1.000 NA
ATOM     23  C   LIG    1        4.251   3.902  -1.224  0.00  0.00    +0.310 C 
ATOM     24  C   LIG    1        3.674   3.321  -2.522  0.00  0.00    +0.250 C 
ATOM     25  N   LIG    1        3.064   4.368  -3.329  0.00  0.00    -0.720 N 
ATOM     26  H   LIG    1        2.963   4.204  -4.280  0.00  0.00    +0.400 HD
ENDBRANCH  16  22
ENDBRANCH   1  16
TORSDOF 3
