REMARK  Name = ZINCrD0000075Qhy.0
REMARK                            x       y       z     vdW  Elec       q    Type
REMARK                         _______ _______ _______ _____ _____    ______ ____
ROOT
ATOM      1  C   LIG    1       -1.716   7.269  -2.107  0.00  0.00    +0.270 C 
ENDROOT
BRANCH   1   2
ATOM      2  C   LIG    1       -1.040   7.845  -3.324  0.00  0.00    -0.070 A 
ATOM      3  C   LIG    1        0.326   8.066  -3.313  0.00  0.00    +0.030 A 
ATOM      4  C   LIG    1        0.952   8.588  -4.426  0.00  0.00    +0.030 A 
ATOM      5  C   LIG    1        0.203   8.905  -5.560  0.00  0.00    -0.120 A 
ATOM      6  C   LIG    1       -1.176   8.684  -5.562  0.00  0.00    +0.080 A 
ATOM      7  C   LIG    1       -1.788   8.156  -4.445  0.00  0.00    +0.030 A 
BRANCH   5   8
ATOM      8  C   LIG    1        0.866   9.471  -6.754  0.00  0.00    +0.570 C 
ATOM      9  N   LIG    1        2.163   9.832  -6.697  0.00  0.00    -0.620 N 
ATOM     10  C   LIG    1        3.060   9.625  -5.550  0.00  0.00    +0.250 C 
ATOM     11  C   LIG    1        4.434  10.216  -5.931  0.00  0.00    +0.030 C 
ATOM     12  C   LIG    1        4.075  11.234  -7.046  0.00  0.00    +0.040 C 
ATOM     13  C   LIG    1        2.916  10.505  -7.771  0.00  0.00    +0.250 C 
ATOM     14  O   LIG    1        0.241   9.611  -7.787  0.00  0.00    -0.530 OA
ENDBRANCH   5   8
ENDBRANCH   1   2
BRANCH   1  15
ATOM     15  O   LIG    1       -1.731   5.820  -2.201  0.00  0.00    -0.350 OA
BRANCH  15  17
ATOM     16  O   LIG    1       -2.774   5.753  -0.254  0.00  0.00    -0.500 OA
ATOM     17  C   LIG    1       -2.303   5.149  -1.188  0.00  0.00    +0.470 C 
BRANCH  17  18
ATOM     18  C   LIG    1       -2.355   3.642  -1.217  0.00  0.00    +0.020 C 
ATOM     19  C   LIG    1       -3.053   3.140   0.047  0.00  0.00    +0.070 C 
ATOM     20  C   LIG    1       -3.138   1.609   0.016  0.00  0.00    -0.020 C 
ATOM     21  C   LIG    1       -2.361   1.045   1.212  0.00  0.00    +0.040 C 
ATOM     22  C   LIG    1       -0.902   1.492   1.145  0.00  0.00    +0.010 C 
ATOM     23  C   LIG    1       -0.238   0.997  -0.139  0.00  0.00    +0.040 C 
ATOM     24  C   LIG    1       -0.974   1.559  -1.362  0.00  0.00    -0.020 C 
ATOM     25  C   LIG    1       -2.431   1.138  -1.245  0.00  0.00    +0.370 C 
ATOM     26  O   LIG    1       -2.985   0.479  -2.091  0.00  0.00    -0.450 OA
ATOM     27  C   LIG    1       -0.932   3.091  -1.305  0.00  0.00    +0.080 C 
ENDBRANCH  17  18
ENDBRANCH  15  17
ENDBRANCH   1  15
TORSDOF 5
