REMARK  Name = ZINCpe000000Sxs0.0
REMARK                            x       y       z     vdW  Elec       q    Type
REMARK                         _______ _______ _______ _____ _____    ______ ____
ROOT
ATOM      1  C   LIG    1       -0.013   1.086   0.008  0.00  0.00    +0.220 C 
ENDROOT
BRANCH   1   2
ATOM      2  O   LIG    1       -0.682   1.547   1.184  0.00  0.00    -0.530 OA
ATOM      3  H   LIG    1       -0.732   2.510   1.256  0.00  0.00    +0.380 HD
ENDBRANCH   1   2
BRANCH   1   4
ATOM      4  C   LIG    1        1.423   1.615  -0.003  0.00  0.00    +0.310 C 
BRANCH   4   7
ATOM      5  C   LIG    1        3.660   0.001   2.294  0.00  0.00    -0.040 A 
ATOM      6  C   LIG    1        3.331   0.352   1.029  0.00  0.00    +0.150 A 
ATOM      7  N   LIG    1        2.166   1.035   1.118  0.00  0.00    -0.290 N 
ATOM      8  N   LIG    1        1.826   1.092   2.358  0.00  0.00    -0.050 NA
ATOM      9  N   LIG    1        2.693   0.479   3.085  0.00  0.00    -0.250 NA
BRANCH   5  10
ATOM     10  C   LIG    1        4.876  -0.777   2.726  0.00  0.00    +0.250 C 
ATOM     11  C   LIG    1        4.856  -0.952   4.246  0.00  0.00    +0.090 C 
BRANCH  10  13
ATOM     12  C   LIG    1        5.855  -2.482   1.279  0.00  0.00    +0.030 C 
ATOM     13  C   LIG    1        4.868  -2.131   2.065  0.00  0.00    -0.060 C 
ENDBRANCH  10  13
BRANCH  10  14
ATOM     14  O   LIG    1        6.056  -0.067   2.344  0.00  0.00    -0.540 OA
ATOM     15  H   LIG    1        6.135   0.080   1.391  0.00  0.00    +0.370 HD
ENDBRANCH  10  14
ENDBRANCH   5  10
ENDBRANCH   4   7
ENDBRANCH   1   4
BRANCH   1  16
ATOM     16  C   LIG    1       -0.753   1.593  -1.232  0.00  0.00    +0.190 C 
BRANCH  16  17
ATOM     17  O   LIG    1       -2.054   1.005  -1.282  0.00  0.00    -0.290 OA
BRANCH  17  18
ATOM     18  C   LIG    1       -2.846   1.353  -2.328  0.00  0.00    +0.170 A 
ATOM     19  C   LIG    1       -2.380   2.247  -3.284  0.00  0.00    -0.090 A 
ATOM     20  C   LIG    1       -3.178   2.598  -4.350  0.00  0.00    +0.120 A 
ATOM     21  C   LIG    1       -4.464   2.062  -4.463  0.00  0.00    -0.170 A 
ATOM     22  C   LIG    1       -4.932   1.167  -3.497  0.00  0.00    +0.140 A 
ATOM     23  C   LIG    1       -4.125   0.817  -2.437  0.00  0.00    -0.020 A 
BRANCH  21  24
ATOM     24  C   LIG    1       -5.325   2.440  -5.599  0.00  0.00    +0.510 C 
ATOM     25  O   LIG    1       -6.442   1.973  -5.696  0.00  0.00    -0.510 OA
BRANCH  24  26
ATOM     26  O   LIG    1       -4.872   3.303  -6.530  0.00  0.00    -0.360 OA
ATOM     27  C   LIG    1       -5.774   3.629  -7.620  0.00  0.00    +0.260 C 
ENDBRANCH  24  26
ENDBRANCH  21  24
ENDBRANCH  17  18
ENDBRANCH  16  17
ENDBRANCH   1  16
TORSDOF 11
