REMARK  Name = ZINCpk00001AZitH.0
REMARK                            x       y       z     vdW  Elec       q    Type
REMARK                         _______ _______ _______ _____ _____    ______ ____
ROOT
ATOM      1  N   LIG    1       -0.017   0.444  -0.203  0.00  0.00    -0.610 N 
ATOM      2  C   LIG    1       -0.041  -0.180  -1.397  0.00  0.00    +0.530 C 
ATOM      3  O   LIG    1       -0.133   0.468  -2.418  0.00  0.00    -0.510 OA
ENDROOT
BRANCH   1   4
ATOM      4  C   LIG    1       -0.162   1.900  -0.134  0.00  0.00    +0.340 C 
BRANCH   4   9
ATOM      5  C   LIG    1        3.162   3.386   0.864  0.00  0.00    -0.080 A 
ATOM      6  C   LIG    1        3.691   3.729  -0.366  0.00  0.00    +0.010 A 
ATOM      7  C   LIG    1        2.973   3.480  -1.521  0.00  0.00    -0.080 A 
ATOM      8  C   LIG    1        1.727   2.888  -1.446  0.00  0.00    +0.030 A 
ATOM      9  C   LIG    1        1.197   2.545  -0.216  0.00  0.00    -0.100 A 
ATOM     10  C   LIG    1        3.551   3.854  -2.862  0.00  0.00    +0.090 C 
ATOM     11  C   LIG    1        1.912   2.799   0.939  0.00  0.00    +0.010 A 
BRANCH   5  13
ATOM     12  C   LIG    1        3.597   5.051   2.649  0.00  0.00    +0.030 C 
ATOM     13  C   LIG    1        3.944   3.657   2.123  0.00  0.00    +0.060 C 
ENDBRANCH   5  13
ENDBRANCH   4   9
ENDBRANCH   1   4
BRANCH   2  14
ATOM     14  C   LIG    1        0.045  -1.683  -1.464  0.00  0.00    +0.270 C 
BRANCH  14  15
ATOM     15  N   LIG    1        0.162  -2.104  -2.862  0.00  0.00    -0.720 N 
ATOM     16  H   LIG    1        0.174  -1.440  -3.569  0.00  0.00    +0.410 HD
ATOM     17  C   LIG    1        0.254  -3.414  -3.167  0.00  0.00    +0.630 C 
ATOM     18  O   LIG    1        0.239  -4.244  -2.283  0.00  0.00    -0.540 OA
ENDBRANCH  14  15
ENDBRANCH   2  14
BRANCH   1  19
ATOM     19  C   LIG    1        0.156  -0.334   1.026  0.00  0.00    +0.330 C 
BRANCH  19  20
ATOM     20  C   LIG    1       -1.209  -0.568   1.677  0.00  0.00    -0.560 C 
ATOM     21  C   LIG    1       -1.906   0.776   1.898  0.00  0.00    +0.100 C 
ATOM     22  C   LIG    1       -1.018  -1.271   3.023  0.00  0.00    +0.100 C 
BRANCH  20  23
ATOM     23  S   LIG    1       -2.227  -1.606   0.592  0.00  0.00    +2.400 S 
ATOM     24  O   LIG    1       -1.650  -2.903   0.535  0.00  0.00    -0.920 OA
ATOM     25  O   LIG    1       -2.465  -0.899  -0.617  0.00  0.00    -0.930 OA
ATOM     26  C   LIG    1       -3.783  -1.705   1.520  0.00  0.00    -0.270 C 
ENDBRANCH  20  23
ENDBRANCH  19  20
ENDBRANCH   1  19
TORSDOF 8
