REMARK  Name = ZINCpk00000y6yjc.0
REMARK                            x       y       z     vdW  Elec       q    Type
REMARK                         _______ _______ _______ _____ _____    ______ ____
ROOT
ATOM      1  C   LIG    1       -0.207   5.574   1.517  0.00  0.00    +0.170 C 
ATOM      2  C   LIG    1       -1.418   5.409   2.473  0.00  0.00    +0.100 C 
ATOM      3  C   LIG    1       -1.525   3.878   2.634  0.00  0.00    +0.340 C 
ATOM      4  N   LIG    1       -0.862   3.269   1.472  0.00  0.00    -0.610 N 
ATOM      5  C   LIG    1       -0.723   1.947   1.250  0.00  0.00    +0.500 C 
ATOM      6  O   LIG    1       -1.166   1.148   2.048  0.00  0.00    -0.500 OA
ATOM      7  C   LIG    1       -0.369   4.344   0.592  0.00  0.00    +0.250 C 
ENDROOT
BRANCH   3   8
ATOM      8  C   LIG    1       -2.974   3.467   2.671  0.00  0.00    +0.170 A 
ATOM      9  N   LIG    1       -3.883   3.909   3.497  0.00  0.00    -0.280 NA
ATOM     10  N   LIG    1       -5.011   3.346   3.242  0.00  0.00    -0.280 NA
ATOM     11  C   LIG    1       -4.871   2.513   2.247  0.00  0.00    +0.210 A 
ATOM     12  N   LIG    1       -3.575   2.565   1.857  0.00  0.00    -0.560 N 
ATOM     13  H   LIG    1       -3.160   2.060   1.139  0.00  0.00    +0.420 HD
BRANCH  11  14
ATOM     14  C   LIG    1       -5.951   1.651   1.645  0.00  0.00    +0.060 C 
ATOM     15  C   LIG    1       -5.683   1.043   0.267  0.00  0.00    +0.030 C 
ATOM     16  C   LIG    1       -6.682   2.192   0.414  0.00  0.00    +0.060 C 
ENDBRANCH  11  14
ENDBRANCH   3   8
BRANCH   1  18
ATOM     17  C   LIG    1        2.080   6.277   1.652  0.00  0.00    +0.210 C 
ATOM     18  O   LIG    1        1.026   5.509   2.236  0.00  0.00    -0.370 OA
ENDBRANCH   1  18
BRANCH   5  19
ATOM     19  C   LIG    1       -0.018   1.461   0.010  0.00  0.00    +0.370 C 
BRANCH  19  20
ATOM     20  N   LIG    1        0.002  -0.004   0.002  0.00  0.00    -0.360 N 
ATOM     21  N   LIG    1        1.002  -0.818   0.549  0.00  0.00    -0.280 NA
ATOM     22  C   LIG    1        0.668  -2.067   0.350  0.00  0.00    +0.080 A 
ATOM     23  C   LIG    1       -0.550  -2.089  -0.338  0.00  0.00    -0.110 A 
ATOM     24  C   LIG    1        1.461  -3.274   0.781  0.00  0.00    +0.160 C 
ATOM     25  C   LIG    1       -0.937  -0.808  -0.539  0.00  0.00    +0.090 A 
ATOM     26  C   LIG    1       -2.193  -0.359  -1.242  0.00  0.00    +0.140 C 
ENDBRANCH  19  20
ENDBRANCH   5  19
TORSDOF 5
