REMARK  Name = ZINCpk00000y6yjc.1
REMARK                            x       y       z     vdW  Elec       q    Type
REMARK                         _______ _______ _______ _____ _____    ______ ____
ROOT
ATOM      1  C   LIG    1       -2.755   3.569   0.648  0.00  0.00    +0.180 C 
ATOM      2  C   LIG    1       -3.562   2.381   0.060  0.00  0.00    +0.080 C 
ATOM      3  C   LIG    1       -2.522   1.242   0.021  0.00  0.00    +0.350 C 
ATOM      4  N   LIG    1       -1.191   1.867   0.018  0.00  0.00    -0.600 N 
ATOM      5  C   LIG    1       -0.014   1.209   0.009  0.00  0.00    +0.520 C 
ATOM      6  O   LIG    1        0.002  -0.004   0.002  0.00  0.00    -0.500 OA
ATOM      7  C   LIG    1       -1.355   3.332   0.033  0.00  0.00    +0.260 C 
ENDROOT
BRANCH   3   8
ATOM      8  C   LIG    1       -2.705   0.420  -1.229  0.00  0.00    +0.230 A 
ATOM      9  N   LIG    1       -2.363   0.786  -2.436  0.00  0.00    -0.300 NA
ATOM     10  N   LIG    1       -2.708  -0.271  -3.294  0.00  0.00    -0.480 N 
ATOM     11  H   LIG    1       -2.582  -0.305  -4.255  0.00  0.00    +0.440 HD
ATOM     12  C   LIG    1       -3.249  -1.227  -2.518  0.00  0.00    +0.320 A 
ATOM     13  N   LIG    1       -3.235  -0.801  -1.281  0.00  0.00    -0.520 NA
BRANCH  12  14
ATOM     14  C   LIG    1       -3.772  -2.559  -2.990  0.00  0.00    +0.050 C 
ATOM     15  C   LIG    1       -3.061  -3.218  -4.173  0.00  0.00    +0.050 C 
ATOM     16  C   LIG    1       -4.450  -2.606  -4.361  0.00  0.00    +0.050 C 
ENDBRANCH  12  14
ENDBRANCH   3   8
BRANCH   1  18
ATOM     17  C   LIG    1       -2.615   4.769   2.718  0.00  0.00    +0.210 C 
ATOM     18  O   LIG    1       -2.703   3.496   2.074  0.00  0.00    -0.370 OA
ENDBRANCH   1  18
BRANCH   5  19
ATOM     19  C   LIG    1        1.280   1.980   0.001  0.00  0.00    +0.360 C 
BRANCH  19  20
ATOM     20  N   LIG    1        2.407   1.043  -0.015  0.00  0.00    -0.360 N 
ATOM     21  N   LIG    1        3.055   0.515   1.109  0.00  0.00    -0.290 NA
ATOM     22  C   LIG    1        4.005  -0.284   0.695  0.00  0.00    +0.080 A 
ATOM     23  C   LIG    1        3.999  -0.282  -0.704  0.00  0.00    -0.120 A 
ATOM     24  C   LIG    1        4.948  -1.065   1.573  0.00  0.00    +0.160 C 
ATOM     25  C   LIG    1        3.006   0.541  -1.115  0.00  0.00    +0.090 A 
ATOM     26  C   LIG    1        2.638   0.844  -2.545  0.00  0.00    +0.150 C 
ENDBRANCH  19  20
ENDBRANCH   5  19
TORSDOF 5
