REMARK  Name = ZINCrg00000bPEyx.1
REMARK                            x       y       z     vdW  Elec       q    Type
REMARK                         _______ _______ _______ _____ _____    ______ ____
ROOT
ATOM      1  C   LIG    1       -1.510   1.274   5.515  0.00  0.00    -0.020 C 
ATOM      2  C   LIG    1       -0.041   1.111   5.101  0.00  0.00    +0.280 C 
ATOM      3  N   LIG    1       -0.453   1.393   3.718  0.00  0.00    -0.650 N 
ATOM      4  C   LIG    1        0.000   1.080   2.488  0.00  0.00    +0.540 C 
ATOM      5  O   LIG    1        0.994   0.397   2.363  0.00  0.00    -0.540 OA
ATOM      6  C   LIG    1       -1.573   2.171   4.268  0.00  0.00    +0.270 C 
ENDROOT
BRANCH   1   7
ATOM      7  C   LIG    1       -1.712   2.023   6.833  0.00  0.00    +0.050 C 
BRANCH   7   8
ATOM      8  C   LIG    1       -3.197   2.014   7.203  0.00  0.00    +0.240 C 
ATOM      9  C   LIG    1       -3.416   2.867   8.454  0.00  0.00    +0.020 C 
BRANCH   8  11
ATOM     10  C   LIG    1       -4.920   0.296   7.319  0.00  0.00    +0.610 C 
ATOM     11  N   LIG    1       -3.626   0.639   7.469  0.00  0.00    -0.710 N 
ATOM     12  H   LIG    1       -2.978  -0.025   7.753  0.00  0.00    +0.410 HD
ATOM     13  O   LIG    1       -5.732   1.127   6.963  0.00  0.00    -0.520 OA
BRANCH  10  20
ATOM     14  C   LIG    1       -7.903  -0.872   7.067  0.00  0.00    +0.190 C 
ATOM     15  C   LIG    1       -6.658  -1.614   7.479  0.00  0.00    +0.070 A 
ATOM     16  N   LIG    1       -6.564  -2.879   7.812  0.00  0.00    -0.280 NA
ATOM     17  N   LIG    1       -5.341  -3.147   8.102  0.00  0.00    -0.230 N 
ATOM     18  H   LIG    1       -5.021  -4.020   8.379  0.00  0.00    +0.470 HD
ATOM     19  N   LIG    1       -4.596  -2.107   7.973  0.00  0.00    -0.240 NA
ATOM     20  C   LIG    1       -5.353  -1.092   7.587  0.00  0.00    -0.050 A 
ENDBRANCH  10  20
ENDBRANCH   8  11
ENDBRANCH   7   8
ENDBRANCH   1   7
BRANCH   4  21
ATOM     21  C   LIG    1       -0.729   1.579   1.267  0.00  0.00    +0.080 C 
BRANCH  21  22
ATOM     22  C   LIG    1       -0.013   1.086   0.008  0.00  0.00    +0.170 C 
BRANCH  22  23
ATOM     23  C   LIG    1       -0.742   1.585  -1.213  0.00  0.00    +0.210 A 
ATOM     24  N   LIG    1       -2.006   1.395  -1.474  0.00  0.00    -0.480 NA
ATOM     25  C   LIG    1       -2.309   1.981  -2.642  0.00  0.00    +0.000 A 
ATOM     26  C   LIG    1       -1.188   2.549  -3.127  0.00  0.00    -0.030 A 
ATOM     27  C   LIG    1       -1.054   3.313  -4.419  0.00  0.00    +0.130 C 
ATOM     28  C   LIG    1       -3.665   1.998  -3.300  0.00  0.00    +0.140 C 
ATOM     29  N   LIG    1       -0.193   2.298  -2.220  0.00  0.00    -0.560 N 
ATOM     30  H   LIG    1        0.733   2.579  -2.289  0.00  0.00    +0.420 HD
ENDBRANCH  22  23
ENDBRANCH  21  22
ENDBRANCH   4  21
TORSDOF 7
