REMARK  Name = ZINCrg00000bPEyx.0
REMARK                            x       y       z     vdW  Elec       q    Type
REMARK                         _______ _______ _______ _____ _____    ______ ____
ROOT
ATOM      1  C   LIG    1        0.000   1.080   2.488  0.00  0.00    +0.540 C 
ATOM      2  N   LIG    1       -0.453   1.393   3.718  0.00  0.00    -0.650 N 
ATOM      3  C   LIG    1       -1.573   2.171   4.268  0.00  0.00    +0.270 C 
ATOM      4  C   LIG    1       -1.510   1.274   5.515  0.00  0.00    -0.020 C 
ATOM      5  C   LIG    1       -0.041   1.111   5.101  0.00  0.00    +0.280 C 
ATOM      6  O   LIG    1        0.994   0.397   2.363  0.00  0.00    -0.540 OA
ENDROOT
BRANCH   1   7
ATOM      7  C   LIG    1       -0.729   1.579   1.267  0.00  0.00    +0.080 C 
BRANCH   7   8
ATOM      8  C   LIG    1       -0.013   1.086   0.008  0.00  0.00    +0.170 C 
BRANCH   8  14
ATOM      9  C   LIG    1       -3.665   1.998  -3.300  0.00  0.00    +0.140 C 
ATOM     10  C   LIG    1       -2.309   1.981  -2.642  0.00  0.00    +0.000 A 
ATOM     11  C   LIG    1       -1.188   2.549  -3.127  0.00  0.00    -0.030 A 
ATOM     12  N   LIG    1       -0.193   2.298  -2.220  0.00  0.00    -0.560 N 
ATOM     13  H   LIG    1        0.733   2.579  -2.289  0.00  0.00    +0.420 HD
ATOM     14  C   LIG    1       -0.742   1.585  -1.213  0.00  0.00    +0.210 A 
ATOM     15  C   LIG    1       -1.054   3.313  -4.419  0.00  0.00    +0.130 C 
ATOM     16  N   LIG    1       -2.006   1.395  -1.474  0.00  0.00    -0.480 NA
ENDBRANCH   8  14
ENDBRANCH   7   8
ENDBRANCH   1   7
BRANCH   4  17
ATOM     17  C   LIG    1       -1.712   2.023   6.833  0.00  0.00    +0.050 C 
BRANCH  17  18
ATOM     18  C   LIG    1       -3.197   2.014   7.203  0.00  0.00    +0.240 C 
ATOM     19  C   LIG    1       -3.416   2.867   8.454  0.00  0.00    +0.020 C 
BRANCH  18  20
ATOM     20  N   LIG    1       -3.626   0.639   7.469  0.00  0.00    -0.720 N 
ATOM     21  H   LIG    1       -2.978  -0.025   7.753  0.00  0.00    +0.390 HD
ATOM     22  C   LIG    1       -4.920   0.296   7.319  0.00  0.00    +0.600 C 
ATOM     23  O   LIG    1       -5.732   1.128   6.962  0.00  0.00    -0.500 OA
BRANCH  22  24
ATOM     24  C   LIG    1       -5.351  -1.087   7.586  0.00  0.00    -0.080 A 
ATOM     25  C   LIG    1       -6.620  -1.593   7.481  0.00  0.00    +0.070 A 
ATOM     26  N   LIG    1       -6.540  -2.881   7.817  0.00  0.00    -0.270 NA
ATOM     27  N   LIG    1       -5.322  -3.171   8.111  0.00  0.00    -0.040 NA
ATOM     28  C   LIG    1       -7.861  -0.843   7.069  0.00  0.00    +0.180 C 
ATOM     29  N   LIG    1       -4.567  -2.136   7.985  0.00  0.00    -0.380 N 
ATOM     30  H   LIG    1       -3.611  -2.105   8.146  0.00  0.00    +0.450 HD
ENDBRANCH  22  24
ENDBRANCH  18  20
ENDBRANCH  17  18
ENDBRANCH   4  17
TORSDOF 7
