REMARK  Name = ZINCqH0000009Byh.0
REMARK                            x       y       z     vdW  Elec       q    Type
REMARK                         _______ _______ _______ _____ _____    ______ ____
ROOT
ATOM      1  C   LIG    1       -3.765   4.670  -0.180  0.00  0.00    +0.070 C 
ATOM      2  C   LIG    1       -3.136   3.459   0.512  0.00  0.00    +0.160 C 
ATOM      3  O   LIG    1       -3.612   2.229  -0.082  0.00  0.00    -0.350 OA
ATOM      4  C   LIG    1       -2.580   1.269   0.231  0.00  0.00    +0.310 C 
ATOM      5  N   LIG    1       -1.302   1.988   0.065  0.00  0.00    -0.610 N 
ATOM      6  C   LIG    1       -0.097   1.449  -0.206  0.00  0.00    +0.680 C 
ATOM      7  O   LIG    1        0.859   2.170  -0.413  0.00  0.00    -0.550 OA
ATOM      8  C   LIG    1       -2.730   0.784   1.674  0.00  0.00    +0.040 C 
ATOM      9  C   LIG    1       -2.650   0.085  -0.736  0.00  0.00    +0.090 C 
ATOM     10  C   LIG    1       -1.612   3.418   0.263  0.00  0.00    +0.210 C 
ENDROOT
BRANCH   6  11
ATOM     11  O   LIG    1        0.047   0.111  -0.252  0.00  0.00    -0.350 OA
BRANCH  11  12
ATOM     12  C   LIG    1        1.372  -0.400  -0.555  0.00  0.00    +0.130 C 
ATOM     13  C   LIG    1        1.813   0.109  -1.929  0.00  0.00    +0.040 C 
ATOM     14  C   LIG    1        1.340  -1.929  -0.564  0.00  0.00    +0.080 C 
ATOM     15  C   LIG    1        2.360   0.084   0.508  0.00  0.00    +0.040 C 
ENDBRANCH  11  12
ENDBRANCH   6  11
BRANCH  10  16
ATOM     16  C   LIG    1       -0.857   3.964   1.476  0.00  0.00    +0.290 C 
BRANCH  16  17
ATOM     17  N   LIG    1       -1.067   5.411   1.572  0.00  0.00    -0.700 N 
ATOM     18  H   LIG    1       -1.557   5.877   0.876  0.00  0.00    +0.410 HD
BRANCH  17  19
ATOM     19  C   LIG    1       -0.566   6.114   2.656  0.00  0.00    +0.450 A 
ATOM     20  N   LIG    1        0.102   5.469   3.602  0.00  0.00    -0.520 NA
ATOM     21  C   LIG    1        0.595   6.095   4.650  0.00  0.00    +0.400 A 
ATOM     22  C   LIG    1        0.427   7.473   4.797  0.00  0.00    -0.130 A 
ATOM     23  C   LIG    1       -0.276   8.182   3.811  0.00  0.00    +0.190 A 
ATOM     24  C   LIG    1       -0.767   7.492   2.735  0.00  0.00    -0.160 A 
ATOM     25 CL   LIG    1       -1.639   8.323   1.484  0.00  0.00    -0.050 Cl
BRANCH  22  26
ATOM     26  C   LIG    1        0.965   8.153   5.937  0.00  0.00    +0.260 C 
ATOM     27  N   LIG    1        1.392   8.692   6.841  0.00  0.00    -0.410 NA
ENDBRANCH  22  26
ENDBRANCH  17  19
ENDBRANCH  16  17
ENDBRANCH  10  16
TORSDOF 6
