REMARK  Name = ZINCpk00000KfKkr.0
REMARK                            x       y       z     vdW  Elec       q    Type
REMARK                         _______ _______ _______ _____ _____    ______ ____
ROOT
ATOM      1  C   LIG    1       -0.863   1.182  -1.608  0.00  0.00    +0.250 C 
ATOM      2  C   LIG    1       -0.169   2.038  -2.675  0.00  0.00    +0.320 C 
ATOM      3  N   LIG    1       -1.187   2.543  -3.607  0.00  0.00    -0.610 N 
ATOM      4  C   LIG    1       -2.072   1.581  -4.279  0.00  0.00    +0.270 C 
ATOM      5  C   LIG    1       -2.766   0.725  -3.211  0.00  0.00    +0.280 C 
ATOM      6  C   LIG    1       -1.308   3.865  -3.841  0.00  0.00    +0.590 C 
ATOM      7  O   LIG    1       -0.506   4.643  -3.360  0.00  0.00    -0.520 OA
ATOM      8  N   LIG    1       -1.748   0.220  -2.280  0.00  0.00    -0.600 N 
ATOM      9  C   LIG    1       -1.627  -1.102  -2.046  0.00  0.00    +0.590 C 
ATOM     10  O   LIG    1       -0.841  -1.502  -1.209  0.00  0.00    -0.500 OA
ENDROOT
BRANCH   6  11
ATOM     11  C   LIG    1       -2.411   4.367  -4.679  0.00  0.00    -0.230 A 
ATOM     12  C   LIG    1       -3.664   3.841  -4.796  0.00  0.00    +0.230 A 
ATOM     13  O   LIG    1       -4.359   4.592  -5.655  0.00  0.00    -0.170 OA
ATOM     14  C   LIG    1       -3.611   5.606  -6.118  0.00  0.00    +0.180 A 
ATOM     15  C   LIG    1       -2.393   5.545  -5.559  0.00  0.00    -0.010 A 
ENDBRANCH   6  11
BRANCH   9  16
ATOM     16  C   LIG    1       -2.449  -2.062  -2.804  0.00  0.00    -0.230 A 
ATOM     17  C   LIG    1       -3.779  -1.963  -3.091  0.00  0.00    +0.220 A 
ATOM     18  O   LIG    1       -4.138  -3.038  -3.800  0.00  0.00    -0.170 OA
ATOM     19  C   LIG    1       -3.094  -3.859  -3.987  0.00  0.00    +0.180 A 
ATOM     20  C   LIG    1       -2.008  -3.330  -3.403  0.00  0.00    -0.010 A 
ENDBRANCH   9  16
BRANCH   1  21
ATOM     21  C   LIG    1        0.173   0.440  -0.803  0.00  0.00    +0.480 C 
ATOM     22  O   LIG    1        0.993  -0.249  -1.362  0.00  0.00    -0.490 OA
BRANCH  21  23
ATOM     23  O   LIG    1        0.188   0.549   0.535  0.00  0.00    -0.360 OA
BRANCH  23  25
ATOM     24  C   LIG    1        1.075   0.057   2.748  0.00  0.00    +0.070 C 
ATOM     25  C   LIG    1        1.217  -0.189   1.245  0.00  0.00    +0.210 C 
ENDBRANCH  23  25
ENDBRANCH  21  23
ENDBRANCH   1  21
TORSDOF 5
