REMARK  Name = ZINCkj000005hurx.1
REMARK                            x       y       z     vdW  Elec       q    Type
REMARK                         _______ _______ _______ _____ _____    ______ ____
ROOT
ATOM      1  C   LIG    1        4.604  -0.214  -2.877  0.00  0.00    +0.180 C 
ATOM      2  C   LIG    1        6.136  -0.423  -2.770  0.00  0.00    +0.100 C 
ATOM      3  C   LIG    1        6.557   0.635  -1.724  0.00  0.00    +0.080 C 
ATOM      4  C   LIG    1        5.275   0.948  -0.929  0.00  0.00    +0.270 C 
ATOM      5  N   LIG    1        4.204   0.089  -1.479  0.00  0.00    -0.380 N 
ATOM      6  H   LIG    1        4.132  -0.764  -0.944  0.00  0.00    +0.430 HD
ENDROOT
BRANCH   1  10
ATOM      7  C   LIG    1        3.504  -3.139  -5.087  0.00  0.00    +0.310 C 
ATOM      8  N   LIG    1        4.160  -1.918  -4.614  0.00  0.00    -0.700 N 
ATOM      9  H   LIG    1        4.762  -1.433  -5.199  0.00  0.00    +0.410 HD
ATOM     10  C   LIG    1        3.929  -1.470  -3.364  0.00  0.00    +0.510 C 
ATOM     11  O   LIG    1        3.176  -2.076  -2.632  0.00  0.00    -0.520 OA
ENDBRANCH   1  10
BRANCH   5  12
ATOM     12  C   LIG    1        2.922   0.806  -1.464  0.00  0.00    +0.270 C 
BRANCH  12  13
ATOM     13  C   LIG    1        2.490   1.048  -0.016  0.00  0.00    +0.100 C 
BRANCH  13  14
ATOM     14  C   LIG    1        1.175   1.783   0.000  0.00  0.00    -0.060 A 
ATOM     15  C   LIG    1       -0.013   1.076   0.008  0.00  0.00    +0.040 A 
ATOM     16  C   LIG    1       -1.219   1.751   0.017  0.00  0.00    +0.110 A 
ATOM     17  C   LIG    1       -1.238   3.133   0.029  0.00  0.00    -0.030 A 
ATOM     18  C   LIG    1       -0.050   3.840   0.022  0.00  0.00    +0.110 A 
ATOM     19  C   LIG    1        1.156   3.165   0.008  0.00  0.00    +0.040 A 
BRANCH  17  20
ATOM     20  N   LIG    1       -2.529   3.855   0.044  0.00  0.00    +0.020 N 
ATOM     21  O   LIG    1       -3.576   3.232   0.050  0.00  0.00    -0.140 OA
ATOM     22  O   LIG    1       -2.546   5.073   0.050  0.00  0.00    -0.140 OA
ENDBRANCH  17  20
ENDBRANCH  13  14
ENDBRANCH  12  13
ENDBRANCH   5  12
TORSDOF 5
