REMARK  Name = ZINCkj000005hurx.0
REMARK                            x       y       z     vdW  Elec       q    Type
REMARK                         _______ _______ _______ _____ _____    ______ ____
ROOT
ATOM      1  C   LIG    1       -1.332   1.937   0.090  0.00  0.00    +0.160 C 
ATOM      2  C   LIG    1       -1.562   2.668   1.430  0.00  0.00    +0.100 C 
ATOM      3  C   LIG    1       -3.086   2.494   1.666  0.00  0.00    +0.080 C 
ATOM      4  C   LIG    1       -3.331   1.075   1.095  0.00  0.00    +0.270 C 
ATOM      5  N   LIG    1       -2.443   0.983  -0.083  0.00  0.00    -0.380 N 
ATOM      6  H   LIG    1       -2.961   1.213  -0.917  0.00  0.00    +0.430 HD
ENDROOT
BRANCH   1  10
ATOM      7  C   LIG    1        2.233   0.792  -0.703  0.00  0.00    +0.310 C 
ATOM      8  N   LIG    1        0.961   1.517  -0.737  0.00  0.00    -0.710 N 
ATOM      9  H   LIG    1        0.824   2.228  -1.383  0.00  0.00    +0.410 HD
ATOM     10  C   LIG    1       -0.021   1.196   0.129  0.00  0.00    +0.500 C 
ATOM     11  O   LIG    1        0.150   0.308   0.937  0.00  0.00    -0.510 OA
ENDBRANCH   1  10
BRANCH   5  12
ATOM     12  C   LIG    1       -1.909  -0.381  -0.195  0.00  0.00    +0.260 C 
BRANCH  12  13
ATOM     13  C   LIG    1       -3.044  -1.345  -0.549  0.00  0.00    +0.100 C 
BRANCH  13  14
ATOM     14  C   LIG    1       -2.497  -2.744  -0.665  0.00  0.00    -0.050 A 
ATOM     15  C   LIG    1       -2.039  -3.209  -1.883  0.00  0.00    +0.040 A 
ATOM     16  C   LIG    1       -1.533  -4.492  -1.988  0.00  0.00    +0.110 A 
ATOM     17  C   LIG    1       -1.493  -5.312  -0.876  0.00  0.00    -0.030 A 
ATOM     18  C   LIG    1       -1.955  -4.848   0.342  0.00  0.00    +0.110 A 
ATOM     19  C   LIG    1       -2.457  -3.565   0.447  0.00  0.00    +0.050 A 
BRANCH  17  20
ATOM     20  N   LIG    1       -0.954  -6.686  -0.989  0.00  0.00    +0.020 N 
ATOM     21  O   LIG    1       -0.547  -7.094  -2.062  0.00  0.00    -0.150 OA
ATOM     22  O   LIG    1       -0.919  -7.408  -0.009  0.00  0.00    -0.140 OA
ENDBRANCH  17  20
ENDBRANCH  13  14
ENDBRANCH  12  13
ENDBRANCH   5  12
TORSDOF 5
