REMARK  Name = ZINCqH00000053Et.0
REMARK                            x       y       z     vdW  Elec       q    Type
REMARK                         _______ _______ _______ _____ _____    ______ ____
ROOT
ATOM      1  C   LIG    1       -0.541   8.297  -2.310  0.00  0.00    +0.070 A 
ATOM      2  N   LIG    1       -0.659   7.319  -3.158  0.00  0.00    -0.250 NA
ATOM      3  N   LIG    1       -0.508   6.115  -2.454  0.00  0.00    -0.500 NA
ATOM      4  C   LIG    1       -0.302   6.453  -1.142  0.00  0.00    +0.440 A 
ATOM      5  N   LIG    1       -0.116   5.627  -0.147  0.00  0.00    -0.660 NA
ATOM      6  O   LIG    1       -0.323   7.800  -1.073  0.00  0.00    -0.290 OA
ENDROOT
BRANCH   5   7
ATOM      7  C   LIG    1       -0.121   4.181  -0.385  0.00  0.00    +0.180 C 
ATOM      8  C   LIG    1       -1.218   3.523   0.461  0.00  0.00    +0.020 C 
ATOM      9  C   LIG    1       -1.359   2.068   0.019  0.00  0.00    +0.060 C 
ATOM     10  C   LIG    1       -0.017   1.384   0.010  0.00  0.00    -0.070 A 
ATOM     11  C   LIG    1        0.002  -0.004   0.002  0.00  0.00    +0.000 A 
ATOM     12  C   LIG    1        1.200  -0.689  -0.018  0.00  0.00    -0.010 A 
ATOM     13  C   LIG    1        2.391   0.012  -0.031  0.00  0.00    -0.010 A 
ATOM     14  C   LIG    1        2.374   1.391  -0.021  0.00  0.00    +0.000 A 
ATOM     15  C   LIG    1        1.170   2.083   0.002  0.00  0.00    -0.060 A 
ATOM     16  C   LIG    1        1.225   3.588   0.026  0.00  0.00    +0.070 C 
ENDBRANCH   5   7
BRANCH   1  20
ATOM     17  C   LIG    1       -0.801  12.425  -3.280  0.00  0.00    -0.200 A 
ATOM     18  C   LIG    1       -0.944  11.473  -4.274  0.00  0.00    +0.040 A 
ATOM     19  C   LIG    1       -0.861  10.131  -3.966  0.00  0.00    +0.030 A 
ATOM     20  C   LIG    1       -0.631   9.734  -2.648  0.00  0.00    +0.090 A 
ATOM     21  C   LIG    1       -0.493  10.699  -1.649  0.00  0.00    +0.020 A 
ATOM     22  C   LIG    1       -0.574  12.038  -1.971  0.00  0.00    +0.050 A 
BRANCH  17  23
ATOM     23  C   LIG    1       -0.893  13.889  -3.624  0.00  0.00    +0.310 C 
BRANCH  23  25
ATOM     24  C   LIG    1       -2.362  15.783  -3.726  0.00  0.00    +0.310 C 
ATOM     25  N   LIG    1       -2.289  14.332  -3.508  0.00  0.00    -0.390 N 
ATOM     26  C   LIG    1       -3.107  13.644  -4.515  0.00  0.00    +0.320 C 
ATOM     27  H   LIG    1       -2.636  14.113  -2.586  0.00  0.00    +0.430 HD
ENDBRANCH  23  25
ENDBRANCH  17  23
ENDBRANCH   1  20
TORSDOF 4
