REMARK  Name = ZINCrH00000tj13i.0
REMARK                            x       y       z     vdW  Elec       q    Type
REMARK                         _______ _______ _______ _____ _____    ______ ____
ROOT
ATOM      1  S   LIG    1       -4.603  -0.929  -2.565  0.00  0.00    +0.030 S 
ENDROOT
BRANCH   1   2
ATOM      2  C   LIG    1       -5.990  -1.937  -2.157  0.00  0.00    +0.120 A 
ATOM      3  C   LIG    1       -6.526  -2.791  -3.120  0.00  0.00    -0.010 A 
ATOM      4  C   LIG    1       -7.600  -3.576  -2.798  0.00  0.00    +0.110 A 
ATOM      5  C   LIG    1       -8.133  -3.483  -1.502  0.00  0.00    -0.200 A 
ATOM      6  C   LIG    1       -7.549  -2.601  -0.591  0.00  0.00    +0.350 A 
ATOM      7  N   LIG    1       -6.513  -1.868  -0.939  0.00  0.00    -0.500 NA
BRANCH   5   8
ATOM      8  C   LIG    1       -9.293  -4.304  -1.110  0.00  0.00    +0.580 C 
ATOM      9  N   LIG    1       -9.943  -5.038  -2.035  0.00  0.00    -0.610 N 
ATOM     10  C   LIG    1       -9.544  -5.192  -3.442  0.00  0.00    +0.250 C 
ATOM     11  C   LIG    1      -10.594  -6.097  -4.120  0.00  0.00    +0.030 C 
ATOM     12  C   LIG    1      -11.834  -5.934  -3.203  0.00  0.00    +0.040 C 
ATOM     13  C   LIG    1      -11.175  -5.815  -1.806  0.00  0.00    +0.250 C 
ATOM     14  O   LIG    1       -9.664  -4.320   0.048  0.00  0.00    -0.530 OA
ENDBRANCH   5   8
ENDBRANCH   1   2
BRANCH   1  15
ATOM     15  C   LIG    1       -4.368  -0.066  -0.992  0.00  0.00    +0.120 C 
BRANCH  15  17
ATOM     16  N   LIG    1       -2.837   1.634  -0.051  0.00  0.00    -0.560 N 
ATOM     17  C   LIG    1       -3.200   0.880  -1.107  0.00  0.00    +0.530 C 
ATOM     18  O   LIG    1       -2.587   0.961  -2.150  0.00  0.00    -0.510 OA
BRANCH  16  19
ATOM     19  C   LIG    1       -1.753   2.512  -0.158  0.00  0.00    +0.130 A 
ATOM     20  C   LIG    1       -1.942   3.795  -0.654  0.00  0.00    +0.020 A 
ATOM     21  C   LIG    1       -0.871   4.661  -0.753  0.00  0.00    +0.010 A 
ATOM     22  C   LIG    1        0.391   4.249  -0.365  0.00  0.00    +0.020 A 
ATOM     23  C   LIG    1        0.584   2.970   0.124  0.00  0.00    +0.020 A 
ATOM     24  C   LIG    1       -0.483   2.099   0.226  0.00  0.00    -0.080 A 
ATOM     25  C   LIG    1       -0.272   0.706   0.758  0.00  0.00    +0.090 C 
ENDBRANCH  16  19
BRANCH  16  27
ATOM     26  C   LIG    1       -4.717   2.558   1.212  0.00  0.00    +0.020 C 
ATOM     27  C   LIG    1       -3.578   1.536   1.209  0.00  0.00    +0.280 C 
ENDBRANCH  16  27
ENDBRANCH  15  17
ENDBRANCH   1  15
TORSDOF 6
