REMARK  Name = ZINCrD000000DbID.0
REMARK                            x       y       z     vdW  Elec       q    Type
REMARK                         _______ _______ _______ _____ _____    ______ ____
ROOT
ATOM      1  N   LIG    1        1.521   7.896   1.369  0.00  0.00    -0.550 NA
ATOM      2  C   LIG    1        0.369   7.878   2.280  0.00  0.00    +0.160 C 
ATOM      3  C   LIG    1        0.830   8.240   3.694  0.00  0.00    +0.040 C 
ATOM      4  C   LIG    1        1.469   9.631   3.677  0.00  0.00    +0.040 C 
ATOM      5  C   LIG    1        2.636   9.636   2.685  0.00  0.00    +0.120 C 
ATOM      6  C   LIG    1        2.123   9.234   1.300  0.00  0.00    +0.220 C 
ENDROOT
BRANCH   5   7
ATOM      7  C   LIG    1        3.234  11.018   2.618  0.00  0.00    +0.260 A 
ATOM      8  N   LIG    1        2.592  12.088   2.258  0.00  0.00    -0.470 NA
ATOM      9  C   LIG    1        3.440  13.150   2.319  0.00  0.00    +0.020 A 
ATOM     10  C   LIG    1        3.303  14.513   2.054  0.00  0.00    +0.080 A 
ATOM     11  C   LIG    1        4.384  15.352   2.210  0.00  0.00    +0.020 A 
ATOM     12  C   LIG    1        5.607  14.850   2.627  0.00  0.00    +0.050 A 
ATOM     13  C   LIG    1        5.758  13.505   2.893  0.00  0.00    +0.050 A 
ATOM     14  C   LIG    1        4.680  12.646   2.742  0.00  0.00    +0.010 A 
ATOM     15  O   LIG    1        4.508  11.317   2.916  0.00  0.00    -0.210 OA
ENDBRANCH   5   7
BRANCH   1  16
ATOM     16  C   LIG    1        1.143   7.419   0.032  0.00  0.00    +0.490 C 
BRANCH  16  27
ATOM     17  O   LIG    1       -1.112   5.948   0.046  0.00  0.00    -0.520 OA
ATOM     18  C   LIG    1       -0.070   5.317   0.032  0.00  0.00    +0.530 A 
ATOM     19  C   LIG    1       -0.084   3.849   0.024  0.00  0.00    -0.130 A 
ATOM     20  C   LIG    1       -1.274   3.123   0.031  0.00  0.00    +0.080 A 
ATOM     21  C   LIG    1       -1.229   1.746   0.017  0.00  0.00    +0.030 A 
ATOM     22  C   LIG    1       -0.013   1.076   0.008  0.00  0.00    +0.050 A 
ATOM     23  C   LIG    1        1.175   1.773   0.000  0.00  0.00    +0.040 A 
ATOM     24  C   LIG    1        1.155   3.168   0.008  0.00  0.00    -0.070 A 
ATOM     25  C   LIG    1        2.387   3.958   0.001  0.00  0.00    +0.310 A 
ATOM     26  N   LIG    1        2.327   5.256   0.009  0.00  0.00    -0.220 NA
ATOM     27  N   LIG    1        1.119   5.955   0.024  0.00  0.00    -0.420 N 
ENDBRANCH  16  27
ENDBRANCH   1  16
TORSDOF 3
