REMARK  Name = ZINCpk00000e93fl.1
REMARK                            x       y       z     vdW  Elec       q    Type
REMARK                         _______ _______ _______ _____ _____    ______ ____
ROOT
ATOM      1  N   LIG    1       -0.127  -0.682   6.412  0.00  0.00    -0.540 NA
ATOM      2  C   LIG    1       -1.561  -0.612   6.098  0.00  0.00    +0.180 C 
ATOM      3  C   LIG    1       -2.229  -1.936   6.476  0.00  0.00    +0.230 C 
ATOM      4  N   LIG    1       -2.018  -2.197   7.907  0.00  0.00    -0.490 N 
ATOM      5  C   LIG    1       -0.584  -2.267   8.221  0.00  0.00    +0.200 C 
ATOM      6  C   LIG    1        0.084  -0.943   7.842  0.00  0.00    +0.200 C 
ENDROOT
BRANCH   4   7
ATOM      7  C   LIG    1       -2.675  -3.362   8.306  0.00  0.00    +0.170 A 
ATOM      8  C   LIG    1       -3.346  -4.152   7.360  0.00  0.00    +0.010 A 
ATOM      9  N   LIG    1       -3.532  -4.050   6.019  0.00  0.00    -0.490 NA
ATOM     10  C   LIG    1       -4.241  -5.056   5.598  0.00  0.00    +0.470 A 
ATOM     11  N   LIG    1       -4.559  -5.872   6.641  0.00  0.00    -0.600 N 
ATOM     12  H   LIG    1       -5.080  -6.689   6.594  0.00  0.00    +0.420 HD
ATOM     13  C   LIG    1       -4.002  -5.321   7.777  0.00  0.00    +0.070 A 
ATOM     14  C   LIG    1       -3.983  -5.686   9.118  0.00  0.00    -0.020 A 
ATOM     15  C   LIG    1       -3.320  -4.901  10.037  0.00  0.00    +0.060 A 
ATOM     16  C   LIG    1       -2.663  -3.748   9.634  0.00  0.00    -0.030 A 
ENDBRANCH   4   7
BRANCH   1  17
ATOM     17  C   LIG    1        0.565   0.544   5.992  0.00  0.00    +0.360 C 
BRANCH  17  21
ATOM     18  C   LIG    1        0.000   1.080   2.488  0.00  0.00    +0.130 A 
ATOM     19  N   LIG    1        1.117   0.416   2.499  0.00  0.00    -0.370 NA
ATOM     20  O   LIG    1        1.444   0.164   3.639  0.00  0.00    +0.090 OA
ATOM     21  C   LIG    1        0.534   0.649   4.489  0.00  0.00    +0.190 A 
ATOM     22  N   LIG    1       -0.389   1.234   3.766  0.00  0.00    -0.470 NA
BRANCH  18  24
ATOM     23  C   LIG    1       -0.013   1.086   0.008  0.00  0.00    +0.070 C 
ATOM     24  C   LIG    1       -0.729   1.579   1.267  0.00  0.00    +0.210 C 
ATOM     25  C   LIG    1       -0.750   3.109   1.275  0.00  0.00    +0.060 C 
BRANCH  24  26
ATOM     26  N   LIG    1       -2.107   1.071   1.277  0.00  0.00    -0.820 NA
ATOM     27  H   LIG    1       -2.601   1.383   2.099  0.00  0.00    +0.350 HD
ATOM     28  H   LIG    1       -2.122   0.064   1.207  0.00  0.00    +0.340 HD
ENDBRANCH  24  26
ENDBRANCH  18  24
ENDBRANCH  17  21
ENDBRANCH   1  17
TORSDOF 5
