REMARK  Name = ZINCpk00000xIgSs.0
REMARK                            x       y       z     vdW  Elec       q    Type
REMARK                         _______ _______ _______ _____ _____    ______ ____
ROOT
ATOM      1  C   LIG    1       -2.460   1.227  -0.357  0.00  0.00    -0.240 C 
ATOM      2  C   LIG    1       -2.347  -0.111  -0.353  0.00  0.00    +0.240 C 
ATOM      3  N   LIG    1       -1.173  -0.717  -0.001  0.00  0.00    -0.630 N 
ATOM      4  H   LIG    1       -1.169  -1.655   0.248  0.00  0.00    +0.420 HD
ATOM      5  C   LIG    1        0.002  -0.004   0.002  0.00  0.00    +0.440 A 
ATOM      6  C   LIG    1       -0.016   1.358   0.009  0.00  0.00    -0.300 A 
ATOM      7  C   LIG    1        1.204   2.058   0.002  0.00  0.00    +0.570 A 
ATOM      8  N   LIG    1        2.364   1.371  -0.009  0.00  0.00    -0.560 N 
ATOM      9  C   LIG    1        2.362   0.025  -0.011  0.00  0.00    +0.710 A 
ATOM     10  O   LIG    1        3.419  -0.575  -0.018  0.00  0.00    -0.530 OA
ATOM     11  C   LIG    1        3.637   2.096  -0.017  0.00  0.00    +0.340 C 
ATOM     12  O   LIG    1        1.213   3.276   0.004  0.00  0.00    -0.500 OA
ATOM     13  N   LIG    1        1.207  -0.665  -0.006  0.00  0.00    -0.540 N 
ATOM     14  C   LIG    1        1.234  -2.130  -0.010  0.00  0.00    +0.350 C 
ATOM     15  C   LIG    1       -3.532  -0.958  -0.742  0.00  0.00    +0.170 C 
ATOM     16  C   LIG    1       -1.314   2.116   0.032  0.00  0.00    +0.240 C 
ENDROOT
BRANCH  16  17
ATOM     17  C   LIG    1       -1.549   2.655   1.420  0.00  0.00    -0.160 A 
ATOM     18  C   LIG    1       -1.678   3.945   1.733  0.00  0.00    -0.080 A 
ATOM     19  C   LIG    1       -1.889   4.201   3.077  0.00  0.00    +0.010 A 
ATOM     20  C   LIG    1       -1.931   3.119   3.855  0.00  0.00    -0.050 A 
ATOM     21  C   LIG    1       -1.601   5.041   0.701  0.00  0.00    +0.110 C 
ATOM     22  S   LIG    1       -1.702   1.677   2.874  0.00  0.00    +0.070 S 
ENDBRANCH  16  17
BRANCH   1  23
ATOM     23  C   LIG    1       -3.690   1.814  -0.735  0.00  0.00    +0.520 C 
ATOM     24  O   LIG    1       -4.629   1.108  -1.051  0.00  0.00    -0.520 OA
BRANCH  23  26
ATOM     25  C   LIG    1       -5.092   3.681  -1.137  0.00  0.00    +0.260 C 
ATOM     26  O   LIG    1       -3.822   3.157  -0.744  0.00  0.00    -0.340 OA
ENDBRANCH  23  26
ENDBRANCH   1  23
TORSDOF 3
