REMARK  Name = ZINCrH000004qCh9.0
REMARK                            x       y       z     vdW  Elec       q    Type
REMARK                         _______ _______ _______ _____ _____    ______ ____
ROOT
ATOM      1  N   LIG    1       -2.685   0.634   1.324  0.00  0.00    -0.530 NA
ATOM      2  C   LIG    1       -1.789  -0.152   2.182  0.00  0.00    +0.170 C 
ATOM      3  C   LIG    1       -2.372  -0.220   3.598  0.00  0.00    +0.280 C 
ATOM      4  N   LIG    1       -3.751  -0.725   3.511  0.00  0.00    -0.620 N 
ATOM      5  C   LIG    1       -4.673  -0.073   2.568  0.00  0.00    +0.310 C 
ATOM      6  C   LIG    1       -4.159  -1.757   4.276  0.00  0.00    +0.710 C 
ATOM      7  N   LIG    1       -3.275  -2.406   5.059  0.00  0.00    -0.690 N 
ATOM      8  H   LIG    1       -2.361  -2.089   5.124  0.00  0.00    +0.410 HD
ATOM      9  O   LIG    1       -5.325  -2.103   4.258  0.00  0.00    -0.570 OA
ATOM     10  C   LIG    1       -3.999  -0.011   1.194  0.00  0.00    +0.170 C 
ENDROOT
BRANCH   7  11
ATOM     11  C   LIG    1       -3.677  -3.537   5.779  0.00  0.00    +0.160 A 
ATOM     12  C   LIG    1       -2.796  -4.595   5.961  0.00  0.00    +0.010 A 
ATOM     13  C   LIG    1       -3.195  -5.710   6.672  0.00  0.00    +0.040 A 
ATOM     14  C   LIG    1       -4.471  -5.773   7.203  0.00  0.00    +0.050 A 
ATOM     15  C   LIG    1       -5.350  -4.721   7.023  0.00  0.00    -0.160 A 
ATOM     16  C   LIG    1       -4.956  -3.602   6.317  0.00  0.00    +0.080 A 
BRANCH  15  17
ATOM     17  C   LIG    1       -6.739  -4.794   7.603  0.00  0.00    +0.510 C 
ATOM     18  F   LIG    1       -7.681  -4.700   6.572  0.00  0.00    -0.170 F 
ATOM     19  F   LIG    1       -6.926  -3.739   8.502  0.00  0.00    -0.180 F 
ATOM     20  F   LIG    1       -6.902  -6.012   8.273  0.00  0.00    -0.180 F 
ENDBRANCH  15  17
ENDBRANCH   7  11
BRANCH   1  21
ATOM     21  C   LIG    1       -2.080   0.868   0.006  0.00  0.00    +0.230 C 
BRANCH  21  25
ATOM     22  C   LIG    1        0.071   5.394   0.171  0.00  0.00    +0.130 C 
ATOM     23  C   LIG    1        0.172   3.892   0.240  0.00  0.00    +0.130 A 
ATOM     24  C   LIG    1       -0.967   3.123   0.100  0.00  0.00    -0.010 A 
ATOM     25  C   LIG    1       -0.862   1.742   0.160  0.00  0.00    -0.030 A 
ATOM     26  C   LIG    1        0.389   1.184   0.372  0.00  0.00    -0.050 A 
ATOM     27  C   LIG    1        1.484   2.016   0.503  0.00  0.00    +0.270 A 
ATOM     28  N   LIG    1        1.348   3.326   0.435  0.00  0.00    -0.490 NA
ENDBRANCH  21  25
ENDBRANCH   1  21
TORSDOF 4
