REMARK  Name = ZINCvU00000009Q0.0
REMARK                            x       y       z     vdW  Elec       q    Type
REMARK                         _______ _______ _______ _____ _____    ______ ____
ROOT
ATOM      1  C   LIG    1       -2.454   1.279  -0.024  0.00  0.00    +0.360 C 
ENDROOT
BRANCH   1   2
ATOM      2  C   LIG    1       -1.150   2.033   0.014  0.00  0.00    -0.100 A 
ATOM      3  C   LIG    1        0.033   1.355   0.097  0.00  0.00    +0.120 A 
ATOM      4  C   LIG    1        1.252   2.040   0.127  0.00  0.00    -0.010 A 
ATOM      5  C   LIG    1        1.292   3.399   0.080  0.00  0.00    +0.050 A 
ATOM      6  C   LIG    1        0.093   4.129  -0.000  0.00  0.00    -0.060 A 
ATOM      7  C   LIG    1        0.097   5.533  -0.051  0.00  0.00    +0.030 A 
ATOM      8  C   LIG    1       -1.082   6.208  -0.130  0.00  0.00    +0.010 A 
ATOM      9  C   LIG    1       -2.298   5.528  -0.159  0.00  0.00    +0.030 A 
ATOM     10  C   LIG    1       -2.341   4.168  -0.112  0.00  0.00    +0.020 A 
ATOM     11  C   LIG    1       -1.144   3.437  -0.031  0.00  0.00    -0.020 A 
BRANCH   3  12
ATOM     12  O   LIG    1        0.026  -0.003   0.146  0.00  0.00    -0.490 OA
ATOM     13  H   LIG    1        0.076  -0.364   1.042  0.00  0.00    +0.380 HD
ENDBRANCH   3  12
ENDBRANCH   1   2
BRANCH   1  17
ATOM     14  N   LIG    1       -3.595  -1.259   2.380  0.00  0.00    -0.740 N 
ATOM     15  H   LIG    1       -2.753  -1.569   2.748  0.00  0.00    +0.400 HD
ATOM     16  C   LIG    1       -3.604  -0.297   1.436  0.00  0.00    +0.710 C 
ATOM     17  N   LIG    1       -2.444   0.233   1.003  0.00  0.00    -0.730 N 
ATOM     18  H   LIG    1       -1.601  -0.077   1.371  0.00  0.00    +0.390 HD
ATOM     19  O   LIG    1       -4.660   0.091   0.974  0.00  0.00    -0.580 OA
BRANCH  14  20
ATOM     20  C   LIG    1       -4.857  -1.836   2.850  0.00  0.00    +0.340 C 
BRANCH  20  24
ATOM     21  C   LIG    1       -4.048  -4.800   5.821  0.00  0.00    +0.140 A 
ATOM     22  C   LIG    1       -4.244  -3.478   6.194  0.00  0.00    -0.020 A 
ATOM     23  C   LIG    1       -4.505  -2.522   5.231  0.00  0.00    +0.070 A 
ATOM     24  C   LIG    1       -4.571  -2.881   3.898  0.00  0.00    -0.150 A 
ATOM     25  C   LIG    1       -4.382  -4.199   3.524  0.00  0.00    +0.070 A 
ATOM     26  C   LIG    1       -4.114  -5.158   4.482  0.00  0.00    -0.080 A 
BRANCH  21  28
ATOM     27  C   LIG    1       -3.600  -7.083   6.309  0.00  0.00    +0.250 C 
ATOM     28  O   LIG    1       -3.792  -5.743   6.765  0.00  0.00    -0.320 OA
ENDBRANCH  21  28
ENDBRANCH  20  24
ENDBRANCH  14  20
ENDBRANCH   1  17
BRANCH   1  29
ATOM     29  C   LIG    1       -2.630   0.648  -1.381  0.00  0.00    -0.090 A 
ATOM     30  C   LIG    1       -1.974  -0.530  -1.687  0.00  0.00    +0.050 A 
ATOM     31  C   LIG    1       -2.139  -1.110  -2.930  0.00  0.00    -0.010 A 
ATOM     32  C   LIG    1       -2.953  -0.508  -3.872  0.00  0.00    +0.000 A 
ATOM     33  C   LIG    1       -3.605   0.672  -3.568  0.00  0.00    +0.000 A 
ATOM     34  C   LIG    1       -3.444   1.250  -2.323  0.00  0.00    +0.020 A 
ENDBRANCH   1  29
TORSDOF 7
