REMARK  Name = ZINCvU0000000Dbo.0
REMARK                            x       y       z     vdW  Elec       q    Type
REMARK                         _______ _______ _______ _____ _____    ______ ____
ROOT
ATOM      1  N   LIG    1        2.603   5.790   2.992  0.00  0.00    -0.620 N 
ATOM      2  H   LIG    1        1.840   6.381   3.089  0.00  0.00    +0.420 HD
ATOM      3  C   LIG    1        2.509   4.690   2.220  0.00  0.00    +0.560 C 
ATOM      4  O   LIG    1        3.465   3.949   2.098  0.00  0.00    -0.490 OA
ENDROOT
BRANCH   3   5
ATOM      5  C   LIG    1        1.243   4.384   1.521  0.00  0.00    -0.150 A 
ATOM      6  C   LIG    1        0.144   5.233   1.659  0.00  0.00    +0.130 A 
ATOM      7  C   LIG    1       -1.035   4.942   1.004  0.00  0.00    +0.030 A 
ATOM      8  C   LIG    1       -1.129   3.809   0.212  0.00  0.00    +0.080 A 
ATOM      9  C   LIG    1       -0.041   2.963   0.071  0.00  0.00    -0.680 A 
ATOM     10 CL   LIG    1       -2.616   3.449  -0.608  0.00  0.00    -0.020 Cl
ATOM     11  C   LIG    1        1.141   3.241   0.725  0.00  0.00    +0.230 A 
BRANCH   9  12
ATOM     12  S   LIG    1       -0.170   1.525  -0.939  0.00  0.00    +2.690 S 
ATOM     13  O   LIG    1       -0.705   1.956  -2.183  0.00  0.00    -0.940 OA
ATOM     14  O   LIG    1        1.069   0.840  -0.821  0.00  0.00    -0.940 OA
BRANCH  12  15
ATOM     15  N   LIG    1       -1.314   0.545  -0.252  0.00  0.00    -1.100 NA
ATOM     16  H   LIG    1       -2.147   0.370  -0.719  0.00  0.00    +0.420 HD
BRANCH  15  17
ATOM     17  C   LIG    1       -1.072  -0.053   1.063  0.00  0.00    +0.170 C 
ATOM     18  C   LIG    1        0.251  -0.821   1.039  0.00  0.00    +0.040 C 
ATOM     19  C   LIG    1       -2.213  -1.014   1.405  0.00  0.00    +0.050 C 
ATOM     20  C   LIG    1       -1.002   1.051   2.120  0.00  0.00    +0.030 C 
ENDBRANCH  15  17
ENDBRANCH  12  15
ENDBRANCH   9  12
ENDBRANCH   3   5
BRANCH   1  25
ATOM     21  C   LIG    1        7.491   6.136   5.134  0.00  0.00    +0.150 C 
ATOM     22  C   LIG    1        6.068   6.241   4.648  0.00  0.00    -0.240 A 
ATOM     23  C   LIG    1        5.198   7.218   4.961  0.00  0.00    +0.110 A 
ATOM     24  N   LIG    1        3.997   7.107   4.411  0.00  0.00    -0.490 NA
ATOM     25  C   LIG    1        3.792   6.078   3.649  0.00  0.00    +0.260 A 
ATOM     26  S   LIG    1        5.258   5.106   3.572  0.00  0.00    +0.220 S 
BRANCH  23  27
ATOM     27  C   LIG    1        5.559   8.344   5.856  0.00  0.00    +0.000 A 
ATOM     28  C   LIG    1        4.660   8.780   6.829  0.00  0.00    +0.050 A 
ATOM     29  C   LIG    1        5.003   9.825   7.662  0.00  0.00    +0.050 A 
ATOM     30  C   LIG    1        6.232  10.447   7.526  0.00  0.00    -0.090 A 
ATOM     31  C   LIG    1        7.126  10.022   6.558  0.00  0.00    +0.050 A 
ATOM     32 BR   LIG    1        6.692  11.884   8.667  0.00  0.00    -0.050 Br
ATOM     33  C   LIG    1        6.795   8.974   5.723  0.00  0.00    +0.040 A 
ENDBRANCH  23  27
ENDBRANCH   1  25
TORSDOF 6
