REMARK  Name = ZINCrH000004ogeC.0
REMARK                            x       y       z     vdW  Elec       q    Type
REMARK                         _______ _______ _______ _____ _____    ______ ____
ROOT
ATOM      1  N   LIG    1        1.143   1.898   0.001  0.00  0.00    -0.730 N 
ATOM      2  H   LIG    1        1.130   2.868   0.007  0.00  0.00    +0.400 HD
ATOM      3  C   LIG    1       -0.014   1.209   0.009  0.00  0.00    +0.520 C 
ATOM      4  O   LIG    1        0.002  -0.004   0.002  0.00  0.00    -0.520 OA
ENDROOT
BRANCH   1   6
ATOM      5  C   LIG    1        2.819   0.817   1.417  0.00  0.00    +0.040 C 
ATOM      6  C   LIG    1        2.422   1.183  -0.015  0.00  0.00    +0.280 C 
BRANCH   6   7
ATOM      7  C   LIG    1        3.483   2.065  -0.621  0.00  0.00    -0.100 A 
ATOM      8  C   LIG    1        3.510   3.415  -0.324  0.00  0.00    +0.040 A 
ATOM      9  C   LIG    1        4.485   4.225  -0.874  0.00  0.00    +0.010 A 
ATOM     10  C   LIG    1        5.431   3.684  -1.733  0.00  0.00    +0.150 A 
ATOM     11  C   LIG    1        5.399   2.329  -2.033  0.00  0.00    +0.030 A 
ATOM     12  C   LIG    1        4.425   1.523  -1.476  0.00  0.00    +0.060 A 
BRANCH  10  13
ATOM     13  N   LIG    1        6.419   4.504  -2.297  0.00  0.00    -0.330 N 
ATOM     14  C   LIG    1        6.575   5.829  -2.106  0.00  0.00    +0.480 A 
ATOM     15  N   LIG    1        7.610   6.220  -2.803  0.00  0.00    -0.530 NA
ATOM     16  C   LIG    1        8.134   5.182  -3.455  0.00  0.00    +0.440 A 
ATOM     17  N   LIG    1        7.440   4.110  -3.177  0.00  0.00    -0.310 NA
ENDBRANCH  10  13
ENDBRANCH   6   7
ENDBRANCH   1   6
BRANCH   3  18
ATOM     18  C   LIG    1       -1.330   1.944   0.019  0.00  0.00    +0.110 C 
BRANCH  18  19
ATOM     19  C   LIG    1       -2.462   0.950   0.019  0.00  0.00    -0.040 A 
ATOM     20  C   LIG    1       -2.990   0.504  -1.178  0.00  0.00    +0.020 A 
ATOM     21  C   LIG    1       -4.025  -0.412  -1.178  0.00  0.00    +0.070 A 
ATOM     22  C   LIG    1       -4.539  -0.875   0.019  0.00  0.00    -0.180 A 
ATOM     23  C   LIG    1       -4.014  -0.425   1.216  0.00  0.00    +0.070 A 
ATOM     24  C   LIG    1       -2.975   0.487   1.216  0.00  0.00    +0.020 A 
BRANCH  22  25
ATOM     25  C   LIG    1       -5.671  -1.869   0.019  0.00  0.00    +0.510 C 
ATOM     26  F   LIG    1       -5.581  -2.679   1.156  0.00  0.00    -0.180 F 
ATOM     27  F   LIG    1       -5.592  -2.666  -1.128  0.00  0.00    -0.180 F 
ATOM     28  F   LIG    1       -6.892  -1.186   0.029  0.00  0.00    -0.180 F 
ENDBRANCH  22  25
ENDBRANCH  18  19
ENDBRANCH   3  18
TORSDOF 6
