REMARK  Name = ZINCvU0000000CiD.0
REMARK                            x       y       z     vdW  Elec       q    Type
REMARK                         _______ _______ _______ _____ _____    ______ ____
ROOT
ATOM      1  N   LIG    1       -0.453   1.393   3.718  0.00  0.00    -0.600 N 
ATOM      2  C   LIG    1        0.000   1.080   2.488  0.00  0.00    +0.520 C 
ATOM      3  O   LIG    1        0.994   0.397   2.363  0.00  0.00    -0.530 OA
ENDROOT
BRANCH   1   4
ATOM      4  C   LIG    1        0.256   0.907   4.905  0.00  0.00    +0.350 C 
BRANCH   4  10
ATOM      5  C   LIG    1        0.939   3.044   6.026  0.00  0.00    +0.140 A 
ATOM      6  C   LIG    1        1.907   3.963   6.404  0.00  0.00    -0.080 A 
ATOM      7  C   LIG    1        3.228   3.757   6.055  0.00  0.00    +0.040 A 
ATOM      8  C   LIG    1        3.586   2.632   5.337  0.00  0.00    -0.030 A 
ATOM      9  C   LIG    1        2.625   1.710   4.965  0.00  0.00    +0.070 A 
ATOM     10  C   LIG    1        1.303   1.912   5.310  0.00  0.00    -0.140 A 
BRANCH   5  12
ATOM     11  C   LIG    1       -0.663   4.434   7.100  0.00  0.00    +0.240 C 
ATOM     12  O   LIG    1       -0.362   3.247   6.363  0.00  0.00    -0.320 OA
ENDBRANCH   5  12
ENDBRANCH   4  10
ENDBRANCH   1   4
BRANCH   2  13
ATOM     13  C   LIG    1       -0.729   1.579   1.267  0.00  0.00    +0.060 C 
BRANCH  13  14
ATOM     14  C   LIG    1       -0.013   1.086   0.008  0.00  0.00    +0.210 C 
BRANCH  14  15
ATOM     15  C   LIG    1       -0.742   1.585  -1.213  0.00  0.00    +0.200 A 
ATOM     16  N   LIG    1       -0.510   2.713  -1.824  0.00  0.00    -0.470 NA
ATOM     17  C   LIG    1       -1.345   2.821  -2.868  0.00  0.00    +0.170 A 
ATOM     18  C   LIG    1       -2.124   1.710  -2.885  0.00  0.00    -0.000 A 
ATOM     19  O   LIG    1       -1.736   0.943  -1.842  0.00  0.00    -0.190 OA
BRANCH  18  20
ATOM     20  C   LIG    1       -3.193   1.397  -3.858  0.00  0.00    -0.020 A 
ATOM     21  C   LIG    1       -3.910   0.204  -3.752  0.00  0.00    +0.030 A 
ATOM     22  C   LIG    1       -4.910  -0.078  -4.659  0.00  0.00    +0.010 A 
ATOM     23  C   LIG    1       -5.194   0.812  -5.680  0.00  0.00    +0.020 A 
ATOM     24  C   LIG    1       -4.483   1.993  -5.794  0.00  0.00    +0.020 A 
ATOM     25  C   LIG    1       -3.484   2.291  -4.889  0.00  0.00    +0.030 A 
ENDBRANCH  18  20
ENDBRANCH  14  15
ENDBRANCH  13  14
ENDBRANCH   2  13
BRANCH   1  26
ATOM     26  C   LIG    1       -1.654   2.218   3.868  0.00  0.00    +0.380 C 
BRANCH  26  27
ATOM     27  C   LIG    1       -2.870   1.330   3.921  0.00  0.00    -0.200 A 
ATOM     28  C   LIG    1       -3.398   0.814   5.032  0.00  0.00    +0.030 A 
ATOM     29  C   LIG    1       -4.519   0.026   4.835  0.00  0.00    +0.000 A 
ATOM     30  C   LIG    1       -4.901  -0.098   3.563  0.00  0.00    -0.050 A 
ATOM     31  S   LIG    1       -3.816   0.821   2.528  0.00  0.00    +0.090 S 
ENDBRANCH  26  27
ENDBRANCH   1  26
TORSDOF 9
