REMARK  Name = ZINCnE000001TCJx.0
REMARK                            x       y       z     vdW  Elec       q    Type
REMARK                         _______ _______ _______ _____ _____    ______ ____
ROOT
ATOM      1  C   LIG    1       -2.985   5.660  -6.029  0.00  0.00    +0.020 A 
ATOM      2  C   LIG    1       -1.968   5.475  -5.144  0.00  0.00    -0.040 A 
ATOM      3  C   LIG    1       -2.409   4.418  -4.236  0.00  0.00    -0.110 A 
ATOM      4  C   LIG    1       -1.834   3.782  -3.133  0.00  0.00    +0.070 A 
ATOM      5  C   LIG    1       -2.538   2.790  -2.475  0.00  0.00    +0.110 A 
ATOM      6  C   LIG    1       -3.809   2.425  -2.914  0.00  0.00    +0.000 A 
ATOM      7  C   LIG    1       -4.386   3.050  -3.997  0.00  0.00    +0.040 A 
ATOM      8  C   LIG    1       -3.696   4.050  -4.674  0.00  0.00    +0.030 A 
ATOM      9  O   LIG    1       -3.997   4.814  -5.742  0.00  0.00    -0.170 OA
ENDROOT
BRANCH   5  10
ATOM     10  N   LIG    1       -1.969   2.147  -1.368  0.00  0.00    -0.660 N 
ATOM     11  H   LIG    1       -2.533   1.847  -0.639  0.00  0.00    +0.410 HD
ATOM     12  C   LIG    1       -0.637   1.946  -1.317  0.00  0.00    +0.520 C 
ATOM     13  O   LIG    1        0.057   2.234  -2.268  0.00  0.00    -0.510 OA
BRANCH  12  14
ATOM     14  C   LIG    1       -0.011   1.362  -0.076  0.00  0.00    +0.060 C 
ATOM     15  C   LIG    1        1.505   1.196  -0.189  0.00  0.00    +0.150 C 
ATOM     16  C   LIG    1        1.210  -0.286  -0.086  0.00  0.00    -0.110 A 
ATOM     17  C   LIG    1        1.755  -1.563  -0.061  0.00  0.00    +0.020 A 
ATOM     18  C   LIG    1        0.937  -2.668   0.065  0.00  0.00    +0.020 A 
ATOM     19  C   LIG    1       -0.432  -2.510   0.166  0.00  0.00    +0.010 A 
ATOM     20  C   LIG    1       -0.980  -1.242   0.141  0.00  0.00    +0.040 A 
ATOM     21  C   LIG    1       -0.162  -0.135   0.017  0.00  0.00    -0.130 A 
ENDBRANCH  12  14
ENDBRANCH   5  10
BRANCH   1  23
ATOM     22  O   LIG    1       -2.009   7.353  -7.303  0.00  0.00    -0.650 OA
ATOM     23  C   LIG    1       -2.981   6.630  -7.127  0.00  0.00    +0.560 C 
ATOM     24  O   LIG    1       -3.951   6.717  -7.870  0.00  0.00    -0.660 OA
ENDBRANCH   1  23
TORSDOF 3
