REMARK  Name = ZINCrD00000hQ6WO.1
REMARK                            x       y       z     vdW  Elec       q    Type
REMARK                         _______ _______ _______ _____ _____    ______ ____
ROOT
ATOM      1  C   LIG    1       -4.196   4.698  -1.480  0.00  0.00    +0.510 C 
ATOM      2  O   LIG    1       -4.842   5.038  -0.508  0.00  0.00    -0.510 OA
ENDROOT
BRANCH   1   6
ATOM      3  C   LIG    1       -5.666   5.475  -5.381  0.00  0.00    +0.160 A 
ATOM      4  C   LIG    1       -6.407   5.867  -4.269  0.00  0.00    -0.020 A 
ATOM      5  C   LIG    1       -5.934   5.617  -3.006  0.00  0.00    +0.120 A 
ATOM      6  C   LIG    1       -4.707   4.968  -2.836  0.00  0.00    -0.160 A 
ATOM      7  C   LIG    1       -3.962   4.582  -3.955  0.00  0.00    +0.110 A 
ATOM      8  C   LIG    1       -4.443   4.830  -5.215  0.00  0.00    -0.050 A 
BRANCH   3  13
ATOM      9  C   LIG    1       -7.587   5.290 -10.607  0.00  0.00    +0.190 C 
ATOM     10  N   LIG    1       -7.077   5.021  -9.256  0.00  0.00    -0.550 NA
ATOM     11  C   LIG    1       -5.742   5.606  -9.071  0.00  0.00    +0.190 C 
ATOM     12  C   LIG    1       -5.214   5.237  -7.682  0.00  0.00    +0.200 C 
ATOM     13  N   LIG    1       -6.148   5.729  -6.660  0.00  0.00    -0.490 N 
ATOM     14  C   LIG    1       -7.484   5.145  -6.845  0.00  0.00    +0.210 C 
ATOM     15  C   LIG    1       -8.011   5.514  -8.233  0.00  0.00    +0.190 C 
ENDBRANCH   3  13
ENDBRANCH   1   6
BRANCH   1  16
ATOM     16  O   LIG    1       -3.013   4.073  -1.318  0.00  0.00    -0.350 OA
BRANCH  16  17
ATOM     17  C   LIG    1       -2.573   3.839   0.046  0.00  0.00    +0.270 C 
BRANCH  17  18
ATOM     18  C   LIG    1       -1.240   3.136   0.030  0.00  0.00    -0.090 A 
ATOM     19  C   LIG    1       -0.093   3.869   0.023  0.00  0.00    +0.070 A 
ATOM     20  C   LIG    1        1.149   3.214   0.008  0.00  0.00    -0.110 A 
ATOM     21  C   LIG    1        2.357   3.935   0.001  0.00  0.00    +0.090 A 
ATOM     22  C   LIG    1        3.528   3.231  -0.014  0.00  0.00    -0.040 A 
ATOM     23  C   LIG    1        3.501   1.839  -0.022  0.00  0.00    +0.300 A 
ATOM     24  N   LIG    1        2.374   1.170  -0.015  0.00  0.00    -0.480 NA
ATOM     25  C   LIG    1        1.194   1.798   0.000  0.00  0.00    +0.130 A 
ATOM     26  C   LIG    1       -0.013   1.076   0.008  0.00  0.00    +0.050 A 
ATOM     27  C   LIG    1       -1.199   1.743   0.017  0.00  0.00    +0.050 A 
ENDBRANCH  17  18
ENDBRANCH  16  17
ENDBRANCH   1  16
TORSDOF 5
