REMARK  Name = ZINCrH000004mchJ.0
REMARK                            x       y       z     vdW  Elec       q    Type
REMARK                         _______ _______ _______ _____ _____    ______ ____
ROOT
ATOM      1  N   LIG    1        2.088   4.347   0.005  0.00  0.00    -0.670 N 
ATOM      2  H   LIG    1        1.471   3.773  -0.476  0.00  0.00    +0.420 HD
ATOM      3  C   LIG    1        3.190   3.823   0.578  0.00  0.00    +0.520 C 
ATOM      4  O   LIG    1        4.003   4.551   1.107  0.00  0.00    -0.490 OA
ENDROOT
BRANCH   1   7
ATOM      5  C   LIG    1        2.635   7.984   0.194  0.00  0.00    +0.170 A 
ATOM      6  C   LIG    1        2.886   6.625   0.095  0.00  0.00    -0.080 A 
ATOM      7  C   LIG    1        1.833   5.721   0.106  0.00  0.00    +0.220 A 
ATOM      8  C   LIG    1        0.526   6.178   0.210  0.00  0.00    -0.120 A 
ATOM      9  C   LIG    1        0.273   7.537   0.315  0.00  0.00    +0.170 A 
ATOM     10  C   LIG    1        1.327   8.443   0.304  0.00  0.00    +0.020 A 
BRANCH   5  12
ATOM     11  C   LIG    1        4.984   8.329   0.065  0.00  0.00    +0.240 C 
ATOM     12  O   LIG    1        3.667   8.870   0.182  0.00  0.00    -0.300 OA
ENDBRANCH   5  12
BRANCH   9  13
ATOM     13  O   LIG    1       -1.007   7.984   0.424  0.00  0.00    -0.300 OA
ATOM     14  C   LIG    1       -2.041   6.997   0.429  0.00  0.00    +0.240 C 
ENDBRANCH   9  13
BRANCH  10  15
ATOM     15  O   LIG    1        1.079   9.778   0.401  0.00  0.00    -0.310 OA
ATOM     16  C   LIG    1        0.880  10.491  -0.821  0.00  0.00    +0.200 C 
ENDBRANCH  10  15
ENDBRANCH   1   7
BRANCH   3  17
ATOM     17  C   LIG    1        3.412   2.333   0.560  0.00  0.00    +0.240 C 
BRANCH  17  18
ATOM     18  O   LIG    1        4.639   2.026   1.224  0.00  0.00    -0.280 OA
BRANCH  18  19
ATOM     19  C   LIG    1        4.991   0.715   1.296  0.00  0.00    +0.160 A 
ATOM     20  C   LIG    1        4.168  -0.256   0.745  0.00  0.00    -0.070 A 
ATOM     21  C   LIG    1        4.530  -1.588   0.814  0.00  0.00    +0.110 A 
ATOM     22  C   LIG    1        5.706  -1.953   1.444  0.00  0.00    -0.220 A 
ATOM     23  C   LIG    1        6.525  -0.987   1.999  0.00  0.00    +0.120 A 
ATOM     24  C   LIG    1        6.170   0.346   1.927  0.00  0.00    +0.000 A 
BRANCH  22  25
ATOM     25  C   LIG    1        6.095  -3.407   1.524  0.00  0.00    +0.510 C 
ATOM     26  F   LIG    1        7.490  -3.515   1.541  0.00  0.00    -0.180 F 
ATOM     27  F   LIG    1        5.588  -4.088   0.412  0.00  0.00    -0.180 F 
ATOM     28  F   LIG    1        5.570  -3.966   2.693  0.00  0.00    -0.180 F 
ENDBRANCH  22  25
ENDBRANCH  18  19
ENDBRANCH  17  18
ENDBRANCH   3  17
TORSDOF 8
