REMARK  Name = ZINCrD000006fiwL.0
REMARK                            x       y       z     vdW  Elec       q    Type
REMARK                         _______ _______ _______ _____ _____    ______ ____
ROOT
ATOM      1  C   LIG    1        3.641  -5.370  -1.580  0.00  0.00    +0.520 C 
ATOM      2  N   LIG    1        2.937  -4.365  -1.023  0.00  0.00    -0.730 N 
ATOM      3  H   LIG    1        2.009  -4.228  -1.270  0.00  0.00    +0.410 HD
ATOM      4  O   LIG    1        4.802  -5.541  -1.272  0.00  0.00    -0.530 OA
ENDROOT
BRANCH   1   9
ATOM      5  C   LIG    1        1.900 -10.128  -3.534  0.00  0.00    +0.550 C 
ATOM      6  N   LIG    1        2.108  -8.797  -3.537  0.00  0.00    -0.610 N 
ATOM      7  C   LIG    1        3.340  -8.232  -4.106  0.00  0.00    +0.260 C 
ATOM      8  C   LIG    1        3.998  -7.329  -3.058  0.00  0.00    +0.050 C 
ATOM      9  C   LIG    1        2.987  -6.282  -2.586  0.00  0.00    -0.010 C 
ATOM     10  C   LIG    1        1.791  -6.982  -1.936  0.00  0.00    +0.030 C 
ATOM     11  C   LIG    1        1.107  -7.882  -2.971  0.00  0.00    +0.280 C 
ATOM     12  O   LIG    1        0.923 -10.590  -2.976  0.00  0.00    -0.540 OA
BRANCH   5  14
ATOM     13  C   LIG    1        2.600 -12.326  -4.289  0.00  0.00    +0.140 C 
ATOM     14  C   LIG    1        2.855 -11.023  -4.206  0.00  0.00    -0.090 C 
ENDBRANCH   5  14
ENDBRANCH   1   9
BRANCH   2  15
ATOM     15  C   LIG    1        3.573  -3.478  -0.046  0.00  0.00    +0.350 C 
ATOM     16  C   LIG    1        3.491  -4.111   1.345  0.00  0.00    +0.040 C 
BRANCH  15  17
ATOM     17  C   LIG    1        2.863  -2.149  -0.036  0.00  0.00    +0.020 A 
ATOM     18  C   LIG    1        3.471  -0.955  -0.033  0.00  0.00    -0.160 A 
ATOM     19  C   LIG    1        2.400   0.049  -0.023  0.00  0.00    -0.090 A 
ATOM     20  C   LIG    1        2.373   1.443  -0.016  0.00  0.00    +0.030 A 
ATOM     21  C   LIG    1        1.158   2.101  -0.006  0.00  0.00    +0.110 A 
ATOM     22  C   LIG    1       -0.030   1.376  -0.003  0.00  0.00    -0.030 A 
ATOM     23  C   LIG    1       -0.011  -0.002  -0.010  0.00  0.00    +0.070 A 
ATOM     24  C   LIG    1        1.200  -0.681  -0.020  0.00  0.00    +0.020 A 
ATOM     25  C   LIG    1        4.955  -0.695  -0.041  0.00  0.00    +0.120 C 
ATOM     26  O   LIG    1        1.528  -1.990  -0.028  0.00  0.00    -0.190 OA
BRANCH  21  27
ATOM     27  O   LIG    1        1.122   3.460   0.001  0.00  0.00    -0.310 OA
ATOM     28  C   LIG    1       -0.167   4.076   0.011  0.00  0.00    +0.250 C 
ENDBRANCH  21  27
ENDBRANCH  15  17
ENDBRANCH   2  15
TORSDOF 5
