REMARK  Name = ZINCqH0000036oR9.0
REMARK                            x       y       z     vdW  Elec       q    Type
REMARK                         _______ _______ _______ _____ _____    ______ ____
ROOT
ATOM      1  N   LIG    1        2.212   1.104   0.407  0.00  0.00    -0.530 NA
ATOM      2  C   LIG    1        1.319   1.849  -0.489  0.00  0.00    +0.180 C 
ATOM      3  C   LIG    1       -0.068   1.196  -0.483  0.00  0.00    +0.300 C 
ATOM      4  N   LIG    1        0.087  -0.231  -0.805  0.00  0.00    -0.610 N 
ATOM      5  C   LIG    1        1.067  -1.015  -0.038  0.00  0.00    +0.270 C 
ATOM      6  C   LIG    1       -0.650  -0.805  -1.776  0.00  0.00    +0.540 C 
ATOM      7  O   LIG    1       -1.513  -0.166  -2.340  0.00  0.00    -0.520 OA
ATOM      8  C   LIG    1        2.409  -0.275  -0.062  0.00  0.00    +0.180 C 
ENDROOT
BRANCH   6   9
ATOM      9  C   LIG    1       -0.402  -2.240  -2.161  0.00  0.00    -0.140 C 
ATOM     10  C   LIG    1        1.051  -2.423  -2.666  0.00  0.00    +0.050 C 
ATOM     11  C   LIG    1        0.968  -1.931  -4.132  0.00  0.00    +0.030 C 
ATOM     12  C   LIG    1       -0.404  -2.436  -4.624  0.00  0.00    +0.020 C 
ATOM     13  C   LIG    1       -1.275  -2.633  -3.371  0.00  0.00    +0.060 C 
BRANCH   9  14
ATOM     14  C   LIG    1       -0.682  -3.167  -0.977  0.00  0.00    +0.390 C 
ATOM     15  F   LIG    1       -0.352  -4.481  -1.325  0.00  0.00    -0.190 F 
ATOM     16  F   LIG    1       -2.038  -3.100  -0.641  0.00  0.00    -0.190 F 
ENDBRANCH   9  14
ENDBRANCH   6   9
BRANCH   1  17
ATOM     17  C   LIG    1        3.499   1.795   0.563  0.00  0.00    +0.190 C 
ATOM     18  C   LIG    1        3.249   3.257   0.941  0.00  0.00    +0.050 C 
BRANCH  17  24
ATOM     19  C   LIG    1        5.684   1.230   1.655  0.00  0.00    +0.130 A 
ATOM     20  C   LIG    1        6.419   0.617   2.659  0.00  0.00    -0.080 A 
ATOM     21  C   LIG    1        5.773  -0.104   3.645  0.00  0.00    +0.040 A 
ATOM     22  C   LIG    1        4.395  -0.211   3.634  0.00  0.00    -0.040 A 
ATOM     23  C   LIG    1        3.659   0.404   2.637  0.00  0.00    +0.080 A 
ATOM     24  C   LIG    1        4.301   1.126   1.649  0.00  0.00    -0.110 A 
BRANCH  19  26
ATOM     25  C   LIG    1        7.744   1.999   0.750  0.00  0.00    +0.250 C 
ATOM     26  O   LIG    1        6.318   1.935   0.681  0.00  0.00    -0.320 OA
ENDBRANCH  19  26
ENDBRANCH  17  24
ENDBRANCH   1  17
TORSDOF 5
