REMARK  Name = ZINCtV00000tRSO4.0
REMARK                            x       y       z     vdW  Elec       q    Type
REMARK                         _______ _______ _______ _____ _____    ______ ____
ROOT
ATOM      1  C   LIG    1        1.163   1.765   0.002  0.00  0.00    -0.060 A 
ATOM      2  C   LIG    1        1.144   3.148   0.019  0.00  0.00    +0.040 A 
ATOM      3  C   LIG    1       -0.062   3.828   0.035  0.00  0.00    -0.030 A 
ATOM      4  C   LIG    1       -1.253   3.127   0.033  0.00  0.00    +0.040 A 
ATOM      5  C   LIG    1       -1.237   1.734   0.010  0.00  0.00    -0.030 A 
ATOM      6 CL   LIG    1       -0.079   5.563   0.057  0.00  0.00    -0.060 Cl
ATOM      7  C   LIG    1       -0.021   1.055  -0.000  0.00  0.00    +0.040 A 
ENDROOT
BRANCH   5   8
ATOM      8  C   LIG    1       -2.513   0.975   0.001  0.00  0.00    -0.040 A 
ATOM      9  C   LIG    1       -2.498  -0.418  -0.022  0.00  0.00    +0.030 A 
ATOM     10  C   LIG    1       -3.687  -1.119  -0.025  0.00  0.00    +0.030 A 
ATOM     11  C   LIG    1       -4.892  -0.440  -0.015  0.00  0.00    -0.060 A 
ATOM     12  C   LIG    1       -4.913   0.943   0.003  0.00  0.00    +0.030 A 
ATOM     13  C   LIG    1       -3.730   1.653   0.011  0.00  0.00    +0.020 A 
BRANCH  11  14
ATOM     14  C   LIG    1       -6.188  -1.210  -0.024  0.00  0.00    +0.030 C 
ATOM     15  C   LIG    1       -6.109  -2.721  -0.251  0.00  0.00    +0.090 C 
ATOM     16  C   LIG    1       -6.446  -2.171   1.138  0.00  0.00    +0.200 C 
ATOM     17  F   LIG    1       -7.765  -2.306   1.584  0.00  0.00    -0.160 F 
ATOM     18  F   LIG    1       -5.461  -2.268   2.127  0.00  0.00    -0.150 F 
ENDBRANCH  11  14
ENDBRANCH   5   8
BRANCH   1  19
ATOM     19  C   LIG    1        2.480   1.032  -0.015  0.00  0.00    +0.120 C 
BRANCH  19  22
ATOM     20  N   LIG    1        4.067   0.163  -1.702  0.00  0.00    -0.670 N 
ATOM     21  H   LIG    1        4.660  -0.081  -0.975  0.00  0.00    +0.410 HD
ATOM     22  C   LIG    1        2.910   0.805  -1.441  0.00  0.00    +0.510 C 
ATOM     23  O   LIG    1        2.216   1.199  -2.354  0.00  0.00    -0.500 OA
BRANCH  20  30
ATOM     24  C   LIG    1        6.844  -0.192  -2.360  0.00  0.00    +0.110 C 
ATOM     25  C   LIG    1        5.744  -0.331  -3.381  0.00  0.00    -0.080 A 
ATOM     26  C   LIG    1        6.034  -0.640  -4.699  0.00  0.00    -0.010 A 
ATOM     27  C   LIG    1        5.000  -0.759  -5.609  0.00  0.00    +0.240 A 
ATOM     28  N   LIG    1        3.747  -0.582  -5.237  0.00  0.00    -0.470 NA
ATOM     29  C   LIG    1        3.427  -0.293  -3.991  0.00  0.00    +0.270 A 
ATOM     30  C   LIG    1        4.410  -0.151  -3.022  0.00  0.00    +0.090 A 
ENDBRANCH  20  30
ENDBRANCH  19  22
ENDBRANCH   1  19
TORSDOF 5
