REMARK  Name = ZINCvU0000000BAt.0
REMARK                            x       y       z     vdW  Elec       q    Type
REMARK                         _______ _______ _______ _____ _____    ______ ____
ROOT
ATOM      1  C   LIG    1        6.017  -0.229   3.195  0.00  0.00    +0.180 A 
ATOM      2  C   LIG    1        6.539  -0.242   4.481  0.00  0.00    +0.020 A 
ATOM      3  C   LIG    1        5.856   0.373   5.511  0.00  0.00    +0.060 A 
ATOM      4  C   LIG    1        4.651   1.012   5.270  0.00  0.00    +0.020 A 
ATOM      5  C   LIG    1        4.120   1.040   3.999  0.00  0.00    +0.050 A 
ATOM      6  C   LIG    1        4.799   0.423   2.946  0.00  0.00    -0.130 A 
ENDROOT
BRANCH   1   8
ATOM      7  C   LIG    1        7.685  -0.104   1.372  0.00  0.00    +0.320 C 
ATOM      8  N   LIG    1        6.700  -0.853   2.155  0.00  0.00    -0.550 N 
ATOM      9  C   LIG    1        6.456  -2.148   1.871  0.00  0.00    +0.620 C 
ATOM     10  O   LIG    1        6.984  -2.668   0.905  0.00  0.00    -0.500 OA
BRANCH   9  11
ATOM     11  C   LIG    1        5.556  -2.928   2.723  0.00  0.00    -0.050 A 
ATOM     12  C   LIG    1        5.301  -4.266   2.608  0.00  0.00    +0.050 A 
ATOM     13  C   LIG    1        4.387  -4.591   3.622  0.00  0.00    +0.010 A 
ATOM     14  C   LIG    1        4.128  -3.451   4.304  0.00  0.00    -0.010 A 
ATOM     15 BR   LIG    1        2.960  -3.296   5.783  0.00  0.00    +0.060 Br
ATOM     16  O   LIG    1        4.838  -2.454   3.763  0.00  0.00    -0.130 OA
ENDBRANCH   9  11
ENDBRANCH   1   8
BRANCH   6  17
ATOM     17  C   LIG    1        4.236   0.450   1.583  0.00  0.00    +0.560 C 
ATOM     18  N   LIG    1        3.063   1.072   1.350  0.00  0.00    -0.720 N 
ATOM     19  H   LIG    1        2.589   1.502   2.079  0.00  0.00    +0.400 HD
ATOM     20  O   LIG    1        4.830  -0.089   0.669  0.00  0.00    -0.520 OA
BRANCH  18  21
ATOM     21  C   LIG    1        2.505   1.099  -0.004  0.00  0.00    +0.330 C 
BRANCH  21  22
ATOM     22  C   LIG    1        1.198   1.850   0.007  0.00  0.00    -0.120 A 
ATOM     23  C   LIG    1        0.003   1.158   0.025  0.00  0.00    +0.080 A 
ATOM     24  C   LIG    1       -1.196   1.847   0.030  0.00  0.00    +0.010 A 
ATOM     25  C   LIG    1       -1.202   3.229   0.027  0.00  0.00    +0.070 A 
ATOM     26  C   LIG    1       -0.009   3.926   0.009  0.00  0.00    -0.050 A 
ATOM     27  C   LIG    1        1.195   3.237  -0.002  0.00  0.00    +0.120 A 
BRANCH  27  28
ATOM     28  O   LIG    1        2.370   3.921  -0.019  0.00  0.00    -0.310 OA
BRANCH  28  29
ATOM     29  C   LIG    1        2.291   5.347  -0.027  0.00  0.00    +0.600 C 
ATOM     30  F   LIG    1        1.593   5.769  -1.164  0.00  0.00    -0.160 F 
ATOM     31  F   LIG    1        3.582   5.886  -0.045  0.00  0.00    -0.130 F 
ATOM     32  F   LIG    1        1.620   5.783   1.120  0.00  0.00    -0.160 F 
ENDBRANCH  28  29
ENDBRANCH  27  28
ENDBRANCH  21  22
ENDBRANCH  18  21
ENDBRANCH   6  17
TORSDOF 7
