REMARK  Name = ZINCrg00000SjSJB.0
REMARK                            x       y       z     vdW  Elec       q    Type
REMARK                         _______ _______ _______ _____ _____    ______ ____
ROOT
ATOM      1  N   LIG    1       -0.016   1.344   0.009  0.00  0.00    -0.520 N 
ATOM      2  H   LIG    1       -0.863   1.817   0.016  0.00  0.00    +0.440 HD
ATOM      3  C   LIG    1        0.002  -0.004   0.002  0.00  0.00    +0.510 C 
ATOM      4  O   LIG    1        1.060  -0.596  -0.011  0.00  0.00    -0.540 OA
ENDROOT
BRANCH   1   6
ATOM      5  C   LIG    1        1.169   3.408   0.009  0.00  0.00    +0.510 C 
ATOM      6  N   LIG    1        1.187   2.061   0.002  0.00  0.00    -0.530 N 
ATOM      7  H   LIG    1        2.034   1.587  -0.009  0.00  0.00    +0.430 HD
ATOM      8  O   LIG    1        0.111   4.000   0.022  0.00  0.00    -0.520 OA
BRANCH   5   9
ATOM      9  C   LIG    1        2.464   4.179   0.001  0.00  0.00    +0.160 C 
BRANCH   9  15
ATOM     10  C   LIG    1        2.304   6.044  -2.471  0.00  0.00    +0.310 C 
ATOM     11  N   LIG    1        2.101   6.467  -1.083  0.00  0.00    -0.440 N 
ATOM     12  C   LIG    1        1.809   7.734  -0.673  0.00  0.00    +0.150 A 
ATOM     13  C   LIG    1        1.703   7.728   0.671  0.00  0.00    -0.060 A 
ATOM     14  C   LIG    1        1.931   6.408   1.107  0.00  0.00    -0.040 A 
ATOM     15  C   LIG    1        2.168   5.657   0.012  0.00  0.00    +0.020 A 
ENDBRANCH   9  15
ENDBRANCH   5   9
ENDBRANCH   1   6
BRANCH   3  16
ATOM     16  C   LIG    1       -1.293  -0.775   0.010  0.00  0.00    +0.330 C 
BRANCH  16  17
ATOM     17  N   LIG    1       -1.005  -2.212  -0.000  0.00  0.00    -0.720 N 
ATOM     18  H   LIG    1       -0.087  -2.523  -0.011  0.00  0.00    +0.410 HD
ATOM     19  C   LIG    1       -2.018  -3.102   0.005  0.00  0.00    +0.530 C 
ATOM     20  O   LIG    1       -3.167  -2.713   0.018  0.00  0.00    -0.530 OA
BRANCH  19  21
ATOM     21  C   LIG    1       -1.722  -4.579  -0.006  0.00  0.00    -0.070 C 
ATOM     22  C   LIG    1       -0.927  -4.931  -1.265  0.00  0.00    +0.040 C 
ATOM     23  C   LIG    1       -0.627  -6.431  -1.276  0.00  0.00    +0.000 C 
ATOM     24  C   LIG    1        0.192  -6.797  -0.036  0.00  0.00    +0.020 C 
ATOM     25  C   LIG    1       -0.603  -6.445   1.222  0.00  0.00    +0.000 C 
ATOM     26  C   LIG    1       -1.918  -7.228   1.231  0.00  0.00    +0.010 C 
ATOM     27  C   LIG    1       -2.737  -6.862  -0.009  0.00  0.00    -0.010 C 
ATOM     28  C   LIG    1       -1.942  -7.214  -1.268  0.00  0.00    +0.010 C 
ATOM     29  C   LIG    1       -0.903  -4.944   1.233  0.00  0.00    +0.040 C 
ATOM     30  C   LIG    1       -3.037  -5.362   0.002  0.00  0.00    +0.050 C 
ENDBRANCH  19  21
ENDBRANCH  16  17
ENDBRANCH   3  16
TORSDOF 6
