REMARK  Name = ZINCrg000000p4M6.0
REMARK                            x       y       z     vdW  Elec       q    Type
REMARK                         _______ _______ _______ _____ _____    ______ ____
ROOT
ATOM      1  C   LIG    1        2.369   0.894  -0.208  0.00  0.00    +0.560 C 
ATOM      2  N   LIG    1        2.339  -0.453  -0.220  0.00  0.00    -0.720 N 
ATOM      3  H   LIG    1        1.489  -0.919  -0.183  0.00  0.00    +0.400 HD
ATOM      4  O   LIG    1        3.435   1.479  -0.254  0.00  0.00    -0.530 OA
ENDROOT
BRANCH   1  14
ATOM      5  C   LIG    1       -2.446   4.886  -0.989  0.00  0.00    +0.210 C 
ATOM      6  N   LIG    1       -2.451   3.817   0.018  0.00  0.00    -0.510 N 
ATOM      7  C   LIG    1       -2.743   4.351   1.351  0.00  0.00    +0.260 C 
ATOM      8  C   LIG    1       -1.487   4.958   1.970  0.00  0.00    +0.030 C 
ATOM      9  C   LIG    1       -0.750   5.787   0.952  0.00  0.00    +0.530 C 
ATOM     10  N   LIG    1       -0.023   5.171  -0.004  0.00  0.00    -0.680 N 
ATOM     11  H   LIG    1        0.499   5.686  -0.639  0.00  0.00    +0.410 HD
ATOM     12  C   LIG    1       -0.041   3.768  -0.057  0.00  0.00    +0.100 A 
ATOM     13  C   LIG    1        1.141   3.059  -0.123  0.00  0.00    +0.080 A 
ATOM     14  C   LIG    1        1.111   1.660  -0.137  0.00  0.00    -0.120 A 
ATOM     15  C   LIG    1       -0.115   0.990  -0.084  0.00  0.00    +0.060 A 
ATOM     16  C   LIG    1       -1.292   1.704  -0.029  0.00  0.00    +0.070 A 
ATOM     17  O   LIG    1       -0.808   6.997   0.991  0.00  0.00    -0.520 OA
ATOM     18  C   LIG    1       -1.265   3.094  -0.017  0.00  0.00    +0.110 A 
ENDBRANCH   1  14
BRANCH   2  19
ATOM     19  C   LIG    1        3.589  -1.213  -0.290  0.00  0.00    +0.270 C 
BRANCH  19  20
ATOM     20  C   LIG    1        3.276  -2.711  -0.291  0.00  0.00    +0.270 C 
BRANCH  20  21
ATOM     21  N   LIG    1        4.526  -3.471  -0.361  0.00  0.00    -0.720 N 
ATOM     22  H   LIG    1        5.376  -3.005  -0.398  0.00  0.00    +0.400 HD
ATOM     23  C   LIG    1        4.495  -4.819  -0.373  0.00  0.00    +0.570 C 
ATOM     24  O   LIG    1        3.430  -5.403  -0.327  0.00  0.00    -0.530 OA
BRANCH  23  25
ATOM     25  C   LIG    1        5.757  -5.586  -0.444  0.00  0.00    -0.190 A 
ATOM     26  C   LIG    1        5.739  -6.986  -0.452  0.00  0.00    +0.140 A 
ATOM     27  C   LIG    1        6.947  -7.657  -0.524  0.00  0.00    -0.030 A 
ATOM     28  C   LIG    1        8.123  -6.930  -0.574  0.00  0.00    +0.290 A 
ATOM     29  N   LIG    1        8.110  -5.611  -0.560  0.00  0.00    -0.490 NA
ATOM     30  C   LIG    1        6.986  -4.927  -0.498  0.00  0.00    +0.300 A 
ENDBRANCH  23  25
ENDBRANCH  20  21
ENDBRANCH  19  20
ENDBRANCH   2  19
TORSDOF 5
