REMARK  Name = ZINCrD00000F5Lil.0
REMARK                            x       y       z     vdW  Elec       q    Type
REMARK                         _______ _______ _______ _____ _____    ______ ____
ROOT
ATOM      1  N   LIG    1        0.024  -0.503   1.581  0.00  0.00    -1.000 NA
ATOM      2  C   LIG    1        1.298  -0.717   2.281  0.00  0.00    +0.300 C 
ATOM      3  C   LIG    1        1.285   0.103   3.580  0.00  0.00    +0.000 C 
ATOM      4  C   LIG    1        0.048  -0.271   4.400  0.00  0.00    +0.240 C 
ATOM      5  C   LIG    1       -1.215   0.069   3.604  0.00  0.00    +0.020 C 
ATOM      6  C   LIG    1       -1.230  -0.745   2.307  0.00  0.00    +0.300 C 
ENDROOT
BRANCH   4   7
ATOM      7  N   LIG    1        0.050   0.482   5.657  0.00  0.00    -0.730 N 
ATOM      8  H   LIG    1       -0.443   1.315   5.724  0.00  0.00    +0.400 HD
ATOM      9  C   LIG    1        0.736   0.017   6.720  0.00  0.00    +0.560 C 
ATOM     10  O   LIG    1        1.355  -1.029   6.635  0.00  0.00    -0.550 OA
BRANCH   9  11
ATOM     11  C   LIG    1        0.738   0.744   7.933  0.00  0.00    -0.120 C 
ATOM     12  C   LIG    1        1.429   0.276   9.003  0.00  0.00    +0.190 C 
BRANCH  12  13
ATOM     13  C   LIG    1        1.431   1.003  10.218  0.00  0.00    -0.220 A 
ATOM     14  C   LIG    1        2.083   0.633  11.365  0.00  0.00    +0.070 A 
ATOM     15  C   LIG    1        1.917   1.528  12.395  0.00  0.00    -0.020 A 
ATOM     16  C   LIG    1        1.151   2.588  12.109  0.00  0.00    -0.200 A 
ATOM     17  C   LIG    1        0.826   3.693  13.081  0.00  0.00    +0.140 C 
ATOM     18  S   LIG    1        0.590   2.522  10.499  0.00  0.00    +0.200 S 
ENDBRANCH  12  13
ENDBRANCH   9  11
ENDBRANCH   4   7
BRANCH   1  19
ATOM     19  S   LIG    1        0.002  -0.004   0.002  0.00  0.00    +2.690 S 
ATOM     20  O   LIG    1        1.252  -0.385  -0.556  0.00  0.00    -0.950 OA
ATOM     21  O   LIG    1       -1.247  -0.419  -0.533  0.00  0.00    -0.950 OA
BRANCH  19  26
ATOM     22  C   LIG    1       -0.080   6.029   0.033  0.00  0.00    +0.090 C 
ATOM     23  C   LIG    1       -0.059   4.522   0.026  0.00  0.00    -0.030 A 
ATOM     24  C   LIG    1        1.147   3.847   0.011  0.00  0.00    -0.010 A 
ATOM     25  C   LIG    1        1.166   2.465   0.004  0.00  0.00    +0.120 A 
ATOM     26  C   LIG    1       -0.022   1.758   0.012  0.00  0.00    -0.680 A 
ATOM     27  C   LIG    1       -1.228   2.433   0.021  0.00  0.00    +0.120 A 
ATOM     28  C   LIG    1       -1.247   3.815   0.034  0.00  0.00    -0.010 A 
ENDBRANCH  19  26
ENDBRANCH   1  19
TORSDOF 5
