REMARK  Name = ZINCtV000002Mn5S.0
REMARK                            x       y       z     vdW  Elec       q    Type
REMARK                         _______ _______ _______ _____ _____    ______ ____
ROOT
ATOM      1  C   LIG    1       -3.173   4.220   1.145  0.00  0.00    +0.160 A 
ATOM      2  N   LIG    1       -4.256   4.826   0.710  0.00  0.00    -0.280 NA
ATOM      3  N   LIG    1       -4.271   4.835  -0.575  0.00  0.00    -0.260 NA
ATOM      4  C   LIG    1       -3.197   4.240  -1.041  0.00  0.00    +0.250 A 
ATOM      5  N   LIG    1       -2.463   3.822   0.047  0.00  0.00    -0.420 N 
ENDROOT
BRANCH   5   6
ATOM      6  C   LIG    1       -1.238   3.136   0.031  0.00  0.00    +0.050 A 
ATOM      7  C   LIG    1       -1.219   1.750   0.017  0.00  0.00    +0.130 A 
ATOM      8  C   LIG    1       -0.013   1.076   0.008  0.00  0.00    +0.010 A 
ATOM      9  C   LIG    1        1.177   1.783   0.000  0.00  0.00    +0.160 A 
ATOM     10  C   LIG    1        1.162   3.168   0.008  0.00  0.00    -0.010 A 
ATOM     11  F   LIG    1        2.355   1.122  -0.014  0.00  0.00    -0.120 F 
ATOM     12  C   LIG    1       -0.043   3.847   0.023  0.00  0.00    +0.160 A 
ATOM     13  F   LIG    1       -0.058   5.197   0.030  0.00  0.00    -0.110 F 
ENDBRANCH   5   6
BRANCH   4  14
ATOM     14  C   LIG    1       -2.845   4.051  -2.464  0.00  0.00    -0.030 A 
ATOM     15  C   LIG    1       -1.545   3.690  -2.823  0.00  0.00    +0.010 A 
ATOM     16  C   LIG    1       -1.225   3.510  -4.152  0.00  0.00    +0.010 A 
ATOM     17  C   LIG    1       -2.185   3.698  -5.130  0.00  0.00    +0.030 A 
ATOM     18  C   LIG    1       -3.474   4.062  -4.782  0.00  0.00    +0.010 A 
ATOM     19  C   LIG    1       -3.809   4.239  -3.456  0.00  0.00    +0.070 A 
ENDBRANCH   4  14
BRANCH   1  20
ATOM     20  S   LIG    1       -2.722   3.968   2.830  0.00  0.00    +0.080 S 
BRANCH  20  21
ATOM     21  C   LIG    1       -4.129   4.756   3.653  0.00  0.00    +0.100 C 
BRANCH  21  23
ATOM     22  O   LIG    1       -2.975   4.111   5.610  0.00  0.00    -0.430 OA
ATOM     23  C   LIG    1       -3.955   4.659   5.147  0.00  0.00    +0.450 C 
BRANCH  23  24
ATOM     24  C   LIG    1       -4.931   5.205   6.008  0.00  0.00    -0.300 A 
ATOM     25  C   LIG    1       -4.886   5.181   7.379  0.00  0.00    +0.140 A 
ATOM     26  C   LIG    1       -5.967   5.787   7.966  0.00  0.00    +0.040 A 
ATOM     27  C   LIG    1       -6.870   6.293   7.113  0.00  0.00    -0.220 A 
ATOM     28 BR   LIG    1       -8.457   7.181   7.634  0.00  0.00    +0.030 Br
ATOM     29  S   LIG    1       -6.394   6.034   5.495  0.00  0.00    +0.300 S 
ENDBRANCH  23  24
ENDBRANCH  21  23
ENDBRANCH  20  21
ENDBRANCH   1  20
TORSDOF 6
