REMARK  Name = ZINCpk000000pHiJ.0
REMARK                            x       y       z     vdW  Elec       q    Type
REMARK                         _______ _______ _______ _____ _____    ______ ____
ROOT
ATOM      1  C   LIG    1        1.245   1.836  -0.489  0.00  0.00    -0.010 C 
ATOM      2  C   LIG    1        1.981   0.631  -1.126  0.00  0.00    +0.270 C 
ATOM      3  N   LIG    1        1.146  -0.538  -0.795  0.00  0.00    -0.610 N 
ATOM      4  C   LIG    1       -0.230  -0.082  -0.554  0.00  0.00    +0.220 C 
ATOM      5  C   LIG    1        1.575  -1.814  -0.724  0.00  0.00    +0.590 C 
ATOM      6  O   LIG    1        2.759  -2.065  -0.835  0.00  0.00    -0.540 OA
ATOM      7  C   LIG    1       -0.240   1.452  -0.720  0.00  0.00    +0.190 C 
ENDROOT
BRANCH   5   8
ATOM      8  C   LIG    1        0.606  -2.907  -0.512  0.00  0.00    -0.250 A 
ATOM      9  C   LIG    1        1.023  -4.229  -0.599  0.00  0.00    +0.250 A 
ATOM     10  C   LIG    1        0.066  -5.236  -0.384  0.00  0.00    -0.280 A 
ATOM     11  C   LIG    1        0.089  -6.621  -0.381  0.00  0.00    +0.160 A 
ATOM     12  N   LIG    1       -1.150  -7.049  -0.115  0.00  0.00    -0.410 N 
ATOM     13  H   LIG    1       -1.415  -7.980  -0.053  0.00  0.00    +0.450 HD
ATOM     14  N   LIG    1       -2.007  -5.957   0.060  0.00  0.00    -0.290 NA
ATOM     15  C   LIG    1        1.294  -7.490  -0.631  0.00  0.00    +0.180 C 
ATOM     16  C   LIG    1       -1.322  -4.840  -0.092  0.00  0.00    +0.280 A 
ATOM     17  N   LIG    1       -1.637  -3.535  -0.033  0.00  0.00    -0.470 NA
ATOM     18  C   LIG    1       -0.740  -2.607  -0.228  0.00  0.00    +0.370 A 
ENDBRANCH   5   8
BRANCH   7  19
ATOM     19  N   LIG    1       -1.102   2.079   0.291  0.00  0.00    -0.520 NA
ATOM     20  C   LIG    1       -0.670   1.717   1.649  0.00  0.00    +0.140 C 
ATOM     21  C   LIG    1       -1.556   2.438   2.669  0.00  0.00    +0.220 C 
ATOM     22  O   LIG    1       -2.924   2.099   2.428  0.00  0.00    -0.380 OA
ATOM     23  C   LIG    1       -3.379   2.438   1.115  0.00  0.00    +0.220 C 
ATOM     24  C   LIG    1       -2.511   1.718   0.079  0.00  0.00    +0.150 C 
ENDBRANCH   7  19
BRANCH   1  26
ATOM     25  C   LIG    1        3.026   3.549  -0.864  0.00  0.00    +0.000 C 
ATOM     26  C   LIG    1        1.595   3.137  -1.215  0.00  0.00    +0.040 C 
ENDBRANCH   1  26
TORSDOF 3
