REMARK  Name = ZINCvU0000000AUM.0
REMARK                            x       y       z     vdW  Elec       q    Type
REMARK                         _______ _______ _______ _____ _____    ______ ____
ROOT
ATOM      1  C   LIG    1       -2.502   1.003   0.055  0.00  0.00    +0.210 A 
ATOM      2  N   LIG    1       -2.460  -0.313   0.076  0.00  0.00    -0.450 NA
ATOM      3  C   LIG    1       -3.564  -1.062   0.095  0.00  0.00    +0.130 A 
ATOM      4  C   LIG    1       -3.489  -2.467   0.117  0.00  0.00    +0.050 A 
ATOM      5  C   LIG    1       -4.633  -3.204   0.134  0.00  0.00    +0.030 A 
ATOM      6  C   LIG    1       -5.883  -2.591   0.130  0.00  0.00    +0.020 A 
ATOM      7  C   LIG    1       -5.995  -1.232   0.109  0.00  0.00    +0.060 A 
ATOM      8  C   LIG    1       -4.840  -0.444   0.091  0.00  0.00    -0.060 A 
ATOM      9  C   LIG    1       -4.912   1.018   0.068  0.00  0.00    -0.080 A 
ATOM     10  C   LIG    1       -3.712   1.714   0.055  0.00  0.00    +0.020 A 
ENDROOT
BRANCH   1  14
ATOM     11  C   LIG    1        1.153   3.179  -0.005  0.00  0.00    +0.120 A 
ATOM     12  C   LIG    1       -0.057   3.856  -0.004  0.00  0.00    -0.040 A 
ATOM     13  C   LIG    1       -1.244   3.153   0.019  0.00  0.00    +0.040 A 
ATOM     14  C   LIG    1       -1.228   1.759   0.036  0.00  0.00    -0.060 A 
ATOM     15  C   LIG    1       -0.011   1.077   0.042  0.00  0.00    +0.020 A 
ATOM     16  C   LIG    1        1.175   1.786   0.018  0.00  0.00    +0.100 A 
BRANCH  11  18
ATOM     17  C   LIG    1        2.225   5.301  -0.052  0.00  0.00    +0.240 C 
ATOM     18  O   LIG    1        2.320   3.876  -0.029  0.00  0.00    -0.300 OA
ENDBRANCH  11  18
BRANCH  16  19
ATOM     19  O   LIG    1        2.363   1.124   0.018  0.00  0.00    -0.300 OA
ATOM     20  C   LIG    1        2.311  -0.303   0.043  0.00  0.00    +0.240 C 
ENDBRANCH  16  19
ENDBRANCH   1  14
BRANCH   9  21
ATOM     21  C   LIG    1       -6.211   1.724   0.062  0.00  0.00    +0.570 C 
ATOM     22  N   LIG    1       -6.248   3.068   0.155  0.00  0.00    -0.660 N 
ATOM     23  H   LIG    1       -5.423   3.578   0.143  0.00  0.00    +0.420 HD
ATOM     24  O   LIG    1       -7.246   1.092  -0.026  0.00  0.00    -0.500 OA
BRANCH  22  25
ATOM     25  C   LIG    1       -7.478   3.728   0.270  0.00  0.00    +0.100 A 
ATOM     26  C   LIG    1       -8.524   3.135   0.964  0.00  0.00    +0.100 A 
ATOM     27  C   LIG    1       -9.734   3.791   1.081  0.00  0.00    +0.010 A 
ATOM     28  C   LIG    1       -9.909   5.034   0.498  0.00  0.00    +0.120 A 
ATOM     29  C   LIG    1       -8.870   5.627  -0.200  0.00  0.00    -0.010 A 
ATOM     30  F   LIG    1      -11.096   5.670   0.610  0.00  0.00    -0.130 F 
ATOM     31  C   LIG    1       -7.655   4.977  -0.315  0.00  0.00    +0.110 A 
ATOM     32  F   LIG    1       -6.641   5.555  -0.996  0.00  0.00    -0.130 F 
ENDBRANCH  22  25
ENDBRANCH   9  21
TORSDOF 5
