REMARK  Name = ZINCpe000000NZcf.0
REMARK                            x       y       z     vdW  Elec       q    Type
REMARK                         _______ _______ _______ _____ _____    ______ ____
ROOT
ATOM      1  C   LIG    1        1.123   3.655  -0.019  0.00  0.00    +0.220 C 
ATOM      2  C   LIG    1        0.511   4.188  -1.318  0.00  0.00    +0.040 C 
ATOM      3  C   LIG    1        0.615   5.715  -1.336  0.00  0.00    +0.020 C 
ATOM      4  C   LIG    1        2.087   6.129  -1.290  0.00  0.00    +0.010 C 
ATOM      5  C   LIG    1        2.717   5.617   0.010  0.00  0.00    +0.280 C 
ATOM      6  N   LIG    1        2.494   4.168   0.104  0.00  0.00    -0.600 N 
ATOM      7  C   LIG    1        3.528   3.326   0.300  0.00  0.00    +0.520 C 
ATOM      8  O   LIG    1        3.340   2.128   0.311  0.00  0.00    -0.500 OA
ENDROOT
BRANCH   1  12
ATOM      9  C   LIG    1        0.616  -0.024   0.913  0.00  0.00    +0.280 C 
ATOM     10  N   LIG    1        0.590   1.441   0.947  0.00  0.00    -0.740 N 
ATOM     11  H   LIG    1        0.168   1.901   1.689  0.00  0.00    +0.400 HD
ATOM     12  C   LIG    1        1.149   2.148  -0.054  0.00  0.00    +0.530 C 
ATOM     13  O   LIG    1        1.673   1.573  -0.985  0.00  0.00    -0.520 OA
ENDBRANCH   1  12
BRANCH   7  14
ATOM     14  C   LIG    1        4.917   3.873   0.506  0.00  0.00    +0.050 C 
BRANCH  14  15
ATOM     15  C   LIG    1        5.897   2.715   0.704  0.00  0.00    +0.350 C 
BRANCH  15  16
ATOM     16  N   LIG    1        7.247   3.246   0.904  0.00  0.00    -0.580 N 
ATOM     17  C   LIG    1        8.128   3.480  -0.086  0.00  0.00    +0.570 C 
ATOM     18  C   LIG    1        9.372   4.015   0.507  0.00  0.00    -0.140 A 
ATOM     19  C   LIG    1       10.590   4.427  -0.008  0.00  0.00    +0.100 A 
ATOM     20  C   LIG    1       11.579   4.884   0.849  0.00  0.00    +0.050 A 
ATOM     21  C   LIG    1       11.359   4.931   2.212  0.00  0.00    +0.050 A 
ATOM     22  C   LIG    1       10.145   4.521   2.742  0.00  0.00    +0.100 A 
ATOM     23  C   LIG    1        9.147   4.062   1.898  0.00  0.00    -0.140 A 
ATOM     24  O   LIG    1        7.932   3.286  -1.268  0.00  0.00    -0.460 OA
ATOM     25  C   LIG    1        7.772   3.560   2.103  0.00  0.00    +0.570 C 
ATOM     26  O   LIG    1        7.210   3.449   3.173  0.00  0.00    -0.460 OA
ENDBRANCH  15  16
ENDBRANCH  14  15
ENDBRANCH   7  14
TORSDOF 4
