REMARK  Name = ZINCpe00000bC4jr.2
REMARK                            x       y       z     vdW  Elec       q    Type
REMARK                         _______ _______ _______ _____ _____    ______ ____
ROOT
ATOM      1  C   LIG    1        4.133  -4.394   1.036  0.00  0.00    -0.030 C 
ATOM      2  C   LIG    1        3.965  -5.366  -0.145  0.00  0.00    +0.290 C 
ATOM      3  N   LIG    1        4.836  -6.284   0.619  0.00  0.00    -0.640 N 
ATOM      4  C   LIG    1        5.656  -7.301   0.289  0.00  0.00    +0.630 C 
ATOM      5  O   LIG    1        6.269  -7.894   1.156  0.00  0.00    -0.520 OA
ATOM      6  C   LIG    1        4.451  -5.636   1.888  0.00  0.00    +0.300 C 
ENDROOT
BRANCH   4   7
ATOM      7  C   LIG    1        5.809  -7.696  -1.123  0.00  0.00    +0.010 A 
ATOM      8  N   LIG    1        5.210  -7.155  -2.162  0.00  0.00    -0.200 NA
ATOM      9  N   LIG    1        5.554  -7.721  -3.262  0.00  0.00    -0.410 N 
ATOM     10  H   LIG    1        5.223  -7.463  -4.137  0.00  0.00    +0.450 HD
ATOM     11  C   LIG    1        6.444  -8.739  -3.041  0.00  0.00    +0.060 A 
ATOM     12  C   LIG    1        7.111  -9.650  -3.854  0.00  0.00    +0.010 A 
ATOM     13  C   LIG    1        7.963 -10.571  -3.288  0.00  0.00    +0.050 A 
ATOM     14  C   LIG    1        8.166 -10.602  -1.915  0.00  0.00    -0.010 A 
ATOM     15  C   LIG    1        7.521  -9.715  -1.097  0.00  0.00    +0.090 A 
ATOM     16  C   LIG    1        6.655  -8.776  -1.648  0.00  0.00    -0.110 A 
ENDBRANCH   4   7
BRANCH   1  17
ATOM     17  C   LIG    1        2.839  -3.685   1.440  0.00  0.00    +0.280 C 
BRANCH  17  19
ATOM     18  C   LIG    1        1.587  -1.693   0.803  0.00  0.00    +0.520 C 
ATOM     19  N   LIG    1        2.666  -2.482   0.622  0.00  0.00    -0.740 N 
ATOM     20  H   LIG    1        3.327  -2.252  -0.049  0.00  0.00    +0.400 HD
ATOM     21  O   LIG    1        0.760  -1.980   1.642  0.00  0.00    -0.510 OA
BRANCH  18  27
ATOM     22  C   LIG    1       -0.754  -0.534  -1.141  0.00  0.00    +0.190 C 
ATOM     23  N   LIG    1        0.002  -0.004   0.002  0.00  0.00    -0.510 NA
ATOM     24  C   LIG    1       -0.018   1.470   0.010  0.00  0.00    +0.180 C 
ATOM     25  C   LIG    1        1.450   1.947  -0.001  0.00  0.00    +0.010 C 
ATOM     26  C   LIG    1        2.220   0.722   0.558  0.00  0.00    +0.040 C 
ATOM     27  C   LIG    1        1.409  -0.456  -0.038  0.00  0.00    +0.130 C 
ENDBRANCH  18  27
ENDBRANCH  17  19
ENDBRANCH   1  17
TORSDOF 4
