REMARK  Name = ZINCrD0000075hMU.2
REMARK                            x       y       z     vdW  Elec       q    Type
REMARK                         _______ _______ _______ _____ _____    ______ ____
ROOT
ATOM      1  N   LIG    1       -0.652   1.544   1.254  0.00  0.00    -0.520 NA
ATOM      2  C   LIG    1       -0.017   1.105   0.012  0.00  0.00    +0.160 C 
ATOM      3  C   LIG    1       -0.686   1.581  -1.214  0.00  0.00    +0.010 C 
ATOM      4  C   LIG    1       -0.644   3.130  -1.264  0.00  0.00    +0.270 C 
ATOM      5  N   LIG    1       -1.507   3.670  -0.237  0.00  0.00    -0.600 N 
ATOM      6  C   LIG    1       -1.041   3.952   1.137  0.00  0.00    +0.270 C 
ATOM      7  C   LIG    1       -2.794   3.928  -0.546  0.00  0.00    +0.510 C 
ATOM      8  O   LIG    1       -3.540   4.382   0.295  0.00  0.00    -0.540 OA
ATOM      9  C   LIG    1       -0.129   2.830   1.667  0.00  0.00    +0.170 C 
ENDROOT
BRANCH   1  10
ATOM     10  C   LIG    1       -0.482   0.542   2.315  0.00  0.00    +0.270 C 
BRANCH  10  14
ATOM     11  C   LIG    1        3.665   0.202   3.303  0.00  0.00    -0.030 A 
ATOM     12  C   LIG    1        2.836   1.052   4.037  0.00  0.00    +0.060 A 
ATOM     13  C   LIG    1        1.500   1.157   3.713  0.00  0.00    +0.020 A 
ATOM     14  C   LIG    1        0.979   0.422   2.663  0.00  0.00    -0.100 A 
ATOM     15  C   LIG    1        1.793  -0.426   1.934  0.00  0.00    +0.020 A 
ATOM     16  C   LIG    1        3.133  -0.537   2.244  0.00  0.00    +0.060 A 
BRANCH  11  18
ATOM     17  N   LIG    1        6.154  -0.004   3.897  0.00  0.00    -0.410 NA
ATOM     18  C   LIG    1        5.053   0.087   3.634  0.00  0.00    +0.250 C 
ENDBRANCH  11  18
ENDBRANCH  10  14
ENDBRANCH   1  10
BRANCH   7  19
ATOM     19  C   LIG    1       -3.304   3.652  -1.937  0.00  0.00    +0.060 C 
BRANCH  19  20
ATOM     20  C   LIG    1       -4.784   4.030  -2.021  0.00  0.00    +0.090 C 
BRANCH  20  21
ATOM     21  C   LIG    1       -5.295   3.754  -3.412  0.00  0.00    -0.050 A 
ATOM     22  C   LIG    1       -5.232   4.740  -4.379  0.00  0.00    +0.000 A 
ATOM     23  C   LIG    1       -5.696   4.487  -5.657  0.00  0.00    +0.040 A 
ATOM     24  C   LIG    1       -6.232   3.252  -5.966  0.00  0.00    -0.030 A 
ATOM     25  C   LIG    1       -6.300   2.265  -4.996  0.00  0.00    +0.100 A 
ATOM     26  F   LIG    1       -6.824   1.056  -5.297  0.00  0.00    -0.140 F 
ATOM     27  C   LIG    1       -5.831   2.518  -3.719  0.00  0.00    -0.010 A 
ENDBRANCH  20  21
ENDBRANCH  19  20
ENDBRANCH   7  19
TORSDOF 6
