REMARK  Name = ZINCqH0000038Nyv.0
REMARK                            x       y       z     vdW  Elec       q    Type
REMARK                         _______ _______ _______ _____ _____    ______ ____
ROOT
ATOM      1  C   LIG    1       -0.038   2.142   0.119  0.00  0.00    +0.070 A 
ATOM      2  C   LIG    1       -0.029   0.748   0.119  0.00  0.00    +0.110 A 
ATOM      3  C   LIG    1        1.187   0.098   0.224  0.00  0.00    -0.040 A 
ATOM      4  C   LIG    1        2.351   0.850   0.325  0.00  0.00    +0.360 A 
ATOM      5  N   LIG    1        2.305   2.172   0.322  0.00  0.00    -0.460 NA
ATOM      6  C   LIG    1        1.164   2.826   0.224  0.00  0.00    +0.280 A 
ENDROOT
BRANCH   1   8
ATOM      7  C   LIG    1       -2.246   2.349  -0.747  0.00  0.00    +0.520 C 
ATOM      8  N   LIG    1       -1.247   2.843   0.010  0.00  0.00    -0.670 N 
ATOM      9  H   LIG    1       -1.363   3.684   0.478  0.00  0.00    +0.410 HD
ATOM     10  O   LIG    1       -2.068   1.350  -1.411  0.00  0.00    -0.500 OA
BRANCH   7  11
ATOM     11  C   LIG    1       -3.587   3.038  -0.768  0.00  0.00    +0.080 C 
ATOM     12  C   LIG    1       -3.415   4.472  -1.274  0.00  0.00    +0.070 C 
BRANCH  11  19
ATOM     13  C   LIG    1       -3.118   2.280  -3.888  0.00  0.00    +0.160 C 
ATOM     14  C   LIG    1       -4.324   1.957  -3.045  0.00  0.00    +0.050 A 
ATOM     15  N   LIG    1       -5.391   1.315  -3.423  0.00  0.00    -0.370 NA
ATOM     16  O   LIG    1       -6.190   1.209  -2.522  0.00  0.00    +0.100 OA
ATOM     17  C   LIG    1       -5.741   1.780  -1.395  0.00  0.00    -0.020 A 
ATOM     18  C   LIG    1       -6.454   1.842  -0.069  0.00  0.00    +0.190 C 
ATOM     19  C   LIG    1       -4.521   2.291  -1.685  0.00  0.00    -0.190 A 
ENDBRANCH  11  19
ENDBRANCH   7  11
ENDBRANCH   1   8
BRANCH   4  20
ATOM     20  N   LIG    1        3.584   0.203   0.431  0.00  0.00    -0.640 N 
ATOM     21  H   LIG    1        3.632  -0.763   0.359  0.00  0.00    +0.420 HD
ATOM     22  C   LIG    1        4.706   0.921   0.634  0.00  0.00    +0.640 C 
ATOM     23  O   LIG    1        4.636   2.120   0.817  0.00  0.00    -0.500 OA
BRANCH  22  24
ATOM     24  O   LIG    1        5.906   0.309   0.633  0.00  0.00    -0.360 OA
BRANCH  24  25
ATOM     25  C   LIG    1        7.072   1.144   0.858  0.00  0.00    +0.140 C 
ATOM     26  C   LIG    1        7.154   2.211  -0.236  0.00  0.00    +0.030 C 
ATOM     27  C   LIG    1        8.333   0.279   0.822  0.00  0.00    +0.080 C 
ATOM     28  C   LIG    1        6.958   1.823   2.224  0.00  0.00    +0.040 C 
ENDBRANCH  24  25
ENDBRANCH  22  24
ENDBRANCH   4  20
TORSDOF 6
