REMARK  Name = ZINCrH000004q7R5.0
REMARK                            x       y       z     vdW  Elec       q    Type
REMARK                         _______ _______ _______ _____ _____    ______ ____
ROOT
ATOM      1  C   LIG    1        1.573   6.706  -0.881  0.00  0.00    +0.190 C 
ATOM      2  C   LIG    1        2.305   5.623  -1.631  0.00  0.00    +0.140 A 
ATOM      3  C   LIG    1        2.734   5.678  -2.926  0.00  0.00    -0.110 A 
ATOM      4  N   LIG    1        3.342   4.516  -3.222  0.00  0.00    -0.200 NA
ATOM      5  N   LIG    1        3.323   3.745  -2.191  0.00  0.00    -0.050 NA
ATOM      6  N   LIG    1        2.662   4.415  -1.151  0.00  0.00    -0.360 N 
ENDROOT
BRANCH   3   7
ATOM      7  C   LIG    1        2.560   6.818  -3.845  0.00  0.00    +0.620 C 
ATOM      8  N   LIG    1        3.119   6.788  -5.071  0.00  0.00    -0.540 N 
ATOM      9  C   LIG    1        3.833   5.641  -5.640  0.00  0.00    +0.290 C 
ATOM     10  C   LIG    1        4.272   6.096  -7.042  0.00  0.00    +0.110 C 
ATOM     11  C   LIG    1        3.765   7.515  -7.158  0.00  0.00    -0.130 A 
ATOM     12  C   LIG    1        3.864   8.432  -8.188  0.00  0.00    +0.000 A 
ATOM     13  C   LIG    1        3.307   9.692  -8.053  0.00  0.00    +0.010 A 
ATOM     14  C   LIG    1        2.651  10.031  -6.884  0.00  0.00    +0.060 A 
ATOM     15  C   LIG    1        2.550   9.120  -5.854  0.00  0.00    +0.020 A 
ATOM     16 CL   LIG    1        4.689   8.002  -9.654  0.00  0.00    -0.060 Cl
ATOM     17  C   LIG    1        3.109   7.847  -5.983  0.00  0.00    +0.160 A 
ATOM     18  O   LIG    1        1.911   7.786  -3.497  0.00  0.00    -0.510 OA
ENDBRANCH   3   7
BRANCH   6  19
ATOM     19  C   LIG    1        2.413   3.902   0.199  0.00  0.00    +0.410 C 
BRANCH  19  20
ATOM     20  C   LIG    1        3.511   4.364   1.122  0.00  0.00    -0.180 A 
ATOM     21  C   LIG    1        3.339   5.505   1.883  0.00  0.00    +0.110 A 
ATOM     22  C   LIG    1        4.345   5.930   2.730  0.00  0.00    -0.020 A 
ATOM     23  C   LIG    1        5.529   5.216   2.813  0.00  0.00    +0.150 A 
ATOM     24  C   LIG    1        5.700   4.070   2.055  0.00  0.00    -0.040 A 
ATOM     25  F   LIG    1        6.514   5.635   3.636  0.00  0.00    -0.120 F 
ATOM     26  C   LIG    1        4.692   3.645   1.208  0.00  0.00    +0.160 A 
ATOM     27  F   LIG    1        4.859   2.530   0.463  0.00  0.00    -0.120 F 
ENDBRANCH  19  20
ENDBRANCH   6  19
TORSDOF 3
