REMARK  Name = ZINCrD00000l5fut.0
REMARK                            x       y       z     vdW  Elec       q    Type
REMARK                         _______ _______ _______ _____ _____    ______ ____
ROOT
ATOM      1  N   LIG    1        1.156   7.802  -2.870  0.00  0.00    -0.570 N 
ATOM      2  C   LIG    1        0.972   6.871  -3.986  0.00  0.00    +0.290 C 
ENDROOT
BRANCH   1   3
ATOM      3  C   LIG    1        1.086   7.355  -1.601  0.00  0.00    +0.560 C 
ATOM      4  S   LIG    1        1.302   8.443  -0.296  0.00  0.00    -0.640 S 
BRANCH   3   5
ATOM      5  N   LIG    1        0.847   6.051  -1.358  0.00  0.00    -0.680 N 
ATOM      6  H   LIG    1        0.725   5.435  -2.097  0.00  0.00    +0.400 HD
BRANCH   5   7
ATOM      7  C   LIG    1        0.771   5.565   0.022  0.00  0.00    +0.370 C 
BRANCH   7   8
ATOM      8  C   LIG    1        0.496   4.083   0.018  0.00  0.00    -0.110 A 
ATOM      9  C   LIG    1       -0.808   3.624   0.028  0.00  0.00    +0.060 A 
ATOM     10  C   LIG    1       -1.065   2.265   0.019  0.00  0.00    +0.040 A 
ATOM     11  C   LIG    1       -0.016   1.361   0.009  0.00  0.00    +0.050 A 
ATOM     12  O   LIG    1        0.002  -0.004   0.002  0.00  0.00    -0.310 OA
ATOM     13  C   LIG    1        1.336  -0.373   0.399  0.00  0.00    +0.440 C 
ATOM     14  O   LIG    1        2.139   0.749  -0.014  0.00  0.00    -0.310 OA
ATOM     15  C   LIG    1        1.297   1.824  -0.001  0.00  0.00    +0.030 A 
ATOM     16  C   LIG    1        1.548   3.186   0.004  0.00  0.00    +0.060 A 
ENDBRANCH   7   8
ENDBRANCH   5   7
ENDBRANCH   3   5
ENDBRANCH   1   3
BRANCH   1  17
ATOM     17  C   LIG    1        1.416   9.220  -3.134  0.00  0.00    +0.370 C 
BRANCH  17  21
ATOM     18  C   LIG    1        5.634   9.865  -3.426  0.00  0.00    +0.110 A 
ATOM     19  C   LIG    1        4.998   9.970  -2.200  0.00  0.00    -0.040 A 
ATOM     20  C   LIG    1        3.633   9.766  -2.110  0.00  0.00    +0.080 A 
ATOM     21  C   LIG    1        2.903   9.446  -3.239  0.00  0.00    -0.120 A 
ATOM     22  C   LIG    1        3.532   9.340  -4.466  0.00  0.00    -0.030 A 
ATOM     23  C   LIG    1        4.897   9.549  -4.564  0.00  0.00    +0.090 A 
BRANCH  23  24
ATOM     24  O   LIG    1        5.518   9.444  -5.770  0.00  0.00    -0.310 OA
ATOM     25  C   LIG    1        4.699   9.116  -6.894  0.00  0.00    +0.230 C 
ENDBRANCH  23  24
BRANCH  18  26
ATOM     26  O   LIG    1        6.975  10.071  -3.518  0.00  0.00    -0.310 OA
BRANCH  26  28
ATOM     27  C   LIG    1        9.154  10.587  -2.608  0.00  0.00    +0.070 C 
ATOM     28  C   LIG    1        7.666  10.392  -2.308  0.00  0.00    +0.170 C 
ENDBRANCH  26  28
ENDBRANCH  18  26
ENDBRANCH  17  21
ENDBRANCH   1  17
TORSDOF 9
