REMARK  Name = ZINCpk000005Rvx3.0
REMARK                            x       y       z     vdW  Elec       q    Type
REMARK                         _______ _______ _______ _____ _____    ______ ____
ROOT
ATOM      1  C   LIG    1       -0.802   1.617   1.234  0.00  0.00    -0.020 C 
ATOM      2  C   LIG    1       -0.013   1.086   0.008  0.00  0.00    +0.050 C 
ATOM      3  C   LIG    1       -0.821   1.627  -1.190  0.00  0.00    +0.240 C 
ATOM      4  N   LIG    1       -2.183   1.902  -0.710  0.00  0.00    -0.620 N 
ATOM      5  C   LIG    1       -3.190   2.407  -1.449  0.00  0.00    +0.530 C 
ATOM      6  O   LIG    1       -4.277   2.594  -0.946  0.00  0.00    -0.520 OA
ATOM      7  C   LIG    1       -2.264   1.534   0.716  0.00  0.00    +0.280 C 
ENDROOT
BRANCH   1   8
ATOM      8  C   LIG    1       -0.595   0.716   2.452  0.00  0.00    +0.350 C 
BRANCH   8  11
ATOM      9  C   LIG    1        2.590   1.072   4.088  0.00  0.00    +0.050 A 
ATOM     10  C   LIG    1        1.227   1.124   4.129  0.00  0.00    +0.190 A 
ATOM     11  N   LIG    1        0.802   0.796   2.887  0.00  0.00    -0.290 N 
ATOM     12  N   LIG    1        1.833   0.570   2.150  0.00  0.00    -0.070 NA
ATOM     13  N   LIG    1        2.914   0.725   2.830  0.00  0.00    -0.250 NA
BRANCH   9  16
ATOM     14  C   LIG    1        5.499  -0.050   4.374  0.00  0.00    +0.200 C 
ATOM     15  C   LIG    1        4.786   0.866   5.335  0.00  0.00    -0.000 A 
ATOM     16  C   LIG    1        3.527   1.348   5.206  0.00  0.00    +0.050 A 
ATOM     17  N   LIG    1        3.279   2.122   6.286  0.00  0.00    -0.480 NA
ATOM     18  C   LIG    1        4.334   2.127   7.047  0.00  0.00    +0.430 A 
ATOM     19  O   LIG    1        5.282   1.364   6.485  0.00  0.00    -0.200 OA
ENDBRANCH   9  16
ENDBRANCH   8  11
ENDBRANCH   1   8
BRANCH   5  20
ATOM     20  C   LIG    1       -2.964   2.740  -2.902  0.00  0.00    +0.040 C 
BRANCH  20  21
ATOM     21  C   LIG    1       -4.257   3.293  -3.505  0.00  0.00    +0.230 C 
BRANCH  21  22
ATOM     22  C   LIG    1       -4.066   3.514  -5.007  0.00  0.00    -0.060 C 
ATOM     23  C   LIG    1       -5.358   4.067  -5.610  0.00  0.00    +0.030 C 
ATOM     24  C   LIG    1       -3.718   2.183  -5.678  0.00  0.00    +0.030 C 
ENDBRANCH  21  22
BRANCH  21  25
ATOM     25  O   LIG    1       -4.582   4.535  -2.878  0.00  0.00    -0.540 OA
ATOM     26  H   LIG    1       -3.904   5.217  -2.982  0.00  0.00    +0.370 HD
ENDBRANCH  21  25
ENDBRANCH  20  21
ENDBRANCH   5  20
TORSDOF 7
