REMARK  Name = ZINCqH0000036LOV.0
REMARK                            x       y       z     vdW  Elec       q    Type
REMARK                         _______ _______ _______ _____ _____    ______ ____
ROOT
ATOM      1  C   LIG    1       -1.410  -0.529   0.011  0.00  0.00    +0.510 C 
ATOM      2  N   LIG    1       -2.225  -0.290  -1.036  0.00  0.00    -0.660 N 
ATOM      3  H   LIG    1       -1.926   0.277  -1.764  0.00  0.00    +0.420 HD
ATOM      4  O   LIG    1       -1.818  -1.155   0.966  0.00  0.00    -0.500 OA
ENDROOT
BRANCH   2   5
ATOM      5  C   LIG    1       -3.503  -0.863  -1.074  0.00  0.00    +0.180 A 
ATOM      6  C   LIG    1       -3.764  -2.029  -0.370  0.00  0.00    +0.020 A 
ATOM      7  C   LIG    1       -5.027  -2.592  -0.408  0.00  0.00    +0.030 A 
ATOM      8  C   LIG    1       -6.031  -1.996  -1.148  0.00  0.00    -0.010 A 
ATOM      9  C   LIG    1       -5.780  -0.834  -1.853  0.00  0.00    -0.010 A 
ATOM     10  C   LIG    1       -4.519  -0.259  -1.815  0.00  0.00    +0.050 A 
BRANCH  10  11
ATOM     11  N   LIG    1       -4.264   0.921  -2.523  0.00  0.00    -0.500 N 
ATOM     12  C   LIG    1       -5.059   2.035  -1.992  0.00  0.00    +0.180 C 
ATOM     13  C   LIG    1       -4.650   3.334  -2.691  0.00  0.00    +0.000 C 
ATOM     14  C   LIG    1       -4.878   3.191  -4.198  0.00  0.00    +0.150 C 
ATOM     15  C   LIG    1       -4.077   1.994  -4.717  0.00  0.00    +0.050 C 
ATOM     16  C   LIG    1       -4.503   0.734  -3.960  0.00  0.00    +0.180 C 
BRANCH  14  17
ATOM     17  O   LIG    1       -4.444   4.380  -4.862  0.00  0.00    -0.570 OA
ATOM     18  H   LIG    1       -4.911   5.179  -4.582  0.00  0.00    +0.380 HD
ENDBRANCH  14  17
ENDBRANCH  10  11
ENDBRANCH   2   5
BRANCH   1  20
ATOM     19  C   LIG    1       -0.003   1.513  -0.001  0.00  0.00    +0.040 C 
ATOM     20  C   LIG    1        0.007  -0.017  -0.005  0.00  0.00    +0.160 C 
BRANCH  20  21
ATOM     21  O   LIG    1        0.699  -0.493   1.151  0.00  0.00    -0.350 OA
BRANCH  21  22
ATOM     22  C   LIG    1        2.102  -0.677   0.955  0.00  0.00    +0.160 C 
ATOM     23  C   LIG    1        2.350  -2.106   0.430  0.00  0.00    -0.000 C 
ATOM     24  C   LIG    1        3.693  -2.139  -0.247  0.00  0.00    +0.000 C 
ATOM     25  C   LIG    1        4.818  -2.602   0.699  0.00  0.00    +0.000 C 
ATOM     26  C   LIG    1        4.701  -1.990   2.109  0.00  0.00    +0.000 C 
ATOM     27  C   LIG    1        4.323  -0.534   2.075  0.00  0.00    +0.030 C 
ATOM     28  C   LIG    1        2.791  -0.422   2.211  0.00  0.00    +0.020 C 
ENDBRANCH  21  22
ENDBRANCH  20  21
ENDBRANCH   1  20
TORSDOF 6
