REMARK  Name = ZINCrH000004v8Fs.0
REMARK                            x       y       z     vdW  Elec       q    Type
REMARK                         _______ _______ _______ _____ _____    ______ ____
ROOT
ATOM      1  O   LIG    1       -0.725   2.120   1.287  0.00  0.00    -0.500 OA
ATOM      2  C   LIG    1       -1.034   1.014   0.895  0.00  0.00    +0.560 C 
ATOM      3  N   LIG    1       -0.077   0.112   0.599  0.00  0.00    -0.670 N 
ATOM      4  H   LIG    1       -0.319  -0.743   0.210  0.00  0.00    +0.420 HD
ENDROOT
BRANCH   3   5
ATOM      5  C   LIG    1        1.268   0.411   0.847  0.00  0.00    +0.200 A 
ATOM      6  C   LIG    1        1.737   1.706   0.665  0.00  0.00    +0.010 A 
ATOM      7  C   LIG    1        3.063   1.999   0.915  0.00  0.00    +0.140 A 
ATOM      8  C   LIG    1        3.926   1.003   1.336  0.00  0.00    -0.690 A 
ATOM      9  C   LIG    1        3.463  -0.288   1.513  0.00  0.00    +0.140 A 
ATOM     10  C   LIG    1        2.136  -0.586   1.269  0.00  0.00    -0.020 A 
BRANCH   8  11
ATOM     11  S   LIG    1        5.619   1.380   1.647  0.00  0.00    +2.710 S 
ATOM     12  O   LIG    1        6.092   0.388   2.548  0.00  0.00    -0.950 OA
ATOM     13  O   LIG    1        5.675   2.772   1.926  0.00  0.00    -0.950 OA
BRANCH  11  14
ATOM     14  N   LIG    1        6.441   1.153   0.228  0.00  0.00    -1.010 NA
ATOM     15  C   LIG    1        7.070  -0.102  -0.206  0.00  0.00    +0.270 C 
ATOM     16  C   LIG    1        7.735   0.167  -1.573  0.00  0.00    +0.030 C 
ATOM     17  C   LIG    1        7.934   1.706  -1.563  0.00  0.00    +0.030 C 
ATOM     18  C   LIG    1        6.667   2.178  -0.807  0.00  0.00    +0.270 C 
ENDBRANCH  11  14
ENDBRANCH   8  11
ENDBRANCH   3   5
BRANCH   2  19
ATOM     19  C   LIG    1       -2.487   0.648   0.741  0.00  0.00    -0.130 C 
ATOM     20  C   LIG    1       -3.510   1.467   1.532  0.00  0.00    +0.090 C 
ATOM     21  C   LIG    1       -3.192   0.029   1.950  0.00  0.00    +0.070 C 
BRANCH  19  22
ATOM     22  C   LIG    1       -2.893   0.161  -0.626  0.00  0.00    -0.040 A 
ATOM     23  C   LIG    1       -2.805   1.007  -1.715  0.00  0.00    +0.030 A 
ATOM     24  C   LIG    1       -3.176   0.561  -2.970  0.00  0.00    +0.040 A 
ATOM     25  C   LIG    1       -3.637  -0.732  -3.136  0.00  0.00    +0.040 A 
ATOM     26  C   LIG    1       -3.726  -1.579  -2.045  0.00  0.00    -0.030 A 
ATOM     27 CL   LIG    1       -4.304  -3.203  -2.252  0.00  0.00    -0.060 Cl
ATOM     28  C   LIG    1       -3.348  -1.134  -0.791  0.00  0.00    +0.040 A 
ENDBRANCH  19  22
ENDBRANCH   2  19
TORSDOF 5
