REMARK  Name = ZINCpk00000y6wBO.0
REMARK                            x       y       z     vdW  Elec       q    Type
REMARK                         _______ _______ _______ _____ _____    ______ ____
ROOT
ATOM      1  C   LIG    1        3.345   1.222  -1.216  0.00  0.00    -0.010 C 
ATOM      2  C   LIG    1        2.509   0.943  -2.469  0.00  0.00    +0.040 C 
ATOM      3  C   LIG    1        3.394   1.090  -3.709  0.00  0.00    +0.210 C 
ATOM      4  N   LIG    1        4.517   0.147  -3.627  0.00  0.00    -0.470 N 
ATOM      5  C   LIG    1        5.360   0.426  -2.458  0.00  0.00    +0.210 C 
ATOM      6  C   LIG    1        4.535   0.259  -1.180  0.00  0.00    +0.040 C 
ENDROOT
BRANCH   4   7
ATOM      7  C   LIG    1        5.265   0.162  -4.794  0.00  0.00    +0.380 A 
ATOM      8  C   LIG    1        4.660  -0.085  -6.023  0.00  0.00    -0.170 A 
ATOM      9  C   LIG    1        5.454  -0.053  -7.166  0.00  0.00    +0.450 A 
ATOM     10  N   LIG    1        6.755   0.201  -7.042  0.00  0.00    -0.600 NA
ATOM     11  C   LIG    1        7.291   0.424  -5.859  0.00  0.00    +0.560 A 
ATOM     12  N   LIG    1        6.573   0.408  -4.755  0.00  0.00    -0.590 NA
BRANCH   9  13
ATOM     13  N   LIG    1        4.899  -0.287  -8.414  0.00  0.00    -0.710 N 
ATOM     14  H   LIG    1        5.459  -0.267  -9.206  0.00  0.00    +0.410 HD
BRANCH  13  15
ATOM     15  C   LIG    1        3.466  -0.565  -8.538  0.00  0.00    +0.300 C 
BRANCH  15  16
ATOM     16  C   LIG    1        3.114  -0.785 -10.011  0.00  0.00    -0.060 C 
ATOM     17  C   LIG    1        2.155   0.212 -10.665  0.00  0.00    +0.020 C 
ATOM     18  C   LIG    1        1.680  -1.206 -10.340  0.00  0.00    +0.030 C 
ENDBRANCH  15  16
ENDBRANCH  13  15
ENDBRANCH   9  13
ENDBRANCH   4   7
BRANCH   1  23
ATOM     19  C   LIG    1        1.280   1.980   0.001  0.00  0.00    -0.030 C 
ATOM     20  C   LIG    1        1.424   2.811   1.299  0.00  0.00    +0.020 C 
ATOM     21  C   LIG    1        2.331   1.896   2.167  0.00  0.00    +0.210 C 
ATOM     22  O   LIG    1        3.246   1.322   1.209  0.00  0.00    -0.360 OA
ATOM     23  C   LIG    1        2.482   1.016   0.030  0.00  0.00    +0.190 C 
BRANCH  19  27
ATOM     24  N   LIG    1       -1.191   1.867   0.018  0.00  0.00    -0.850 N 
ATOM     25  H   LIG    1       -1.204   2.837   0.023  0.00  0.00    +0.400 HD
ATOM     26  H   LIG    1       -2.024   1.370   0.019  0.00  0.00    +0.400 HD
ATOM     27  C   LIG    1       -0.014   1.209   0.009  0.00  0.00    +0.520 C 
ATOM     28  O   LIG    1        0.002  -0.004   0.002  0.00  0.00    -0.530 OA
ENDBRANCH  19  27
ENDBRANCH   1  23
TORSDOF 6
