REMARK  Name = ZINCpk00000y6xWP.0
REMARK                            x       y       z     vdW  Elec       q    Type
REMARK                         _______ _______ _______ _____ _____    ______ ____
ROOT
ATOM      1  N   LIG    1        2.478  -6.732  -1.040  0.00  0.00    -1.110 NA
ATOM      2  H   LIG    1        3.190  -7.133  -1.563  0.00  0.00    +0.420 HD
ENDROOT
BRANCH   1   3
ATOM      3  C   LIG    1        2.647  -6.545   0.403  0.00  0.00    +0.240 C 
ATOM      4  C   LIG    1        2.259  -7.834   1.135  0.00  0.00    +0.000 C 
ATOM      5  C   LIG    1        2.513  -7.656   2.635  0.00  0.00    +0.230 C 
ATOM      6  O   LIG    1        3.886  -7.322   2.848  0.00  0.00    -0.380 OA
ATOM      7  C   LIG    1        4.294  -6.102   2.226  0.00  0.00    +0.250 C 
ATOM      8  C   LIG    1        4.111  -6.218   0.710  0.00  0.00    +0.020 C 
BRANCH   7   9
ATOM      9  C   LIG    1        5.744  -5.838   2.539  0.00  0.00    -0.020 A 
ATOM     10  C   LIG    1        6.357  -4.639   2.550  0.00  0.00    +0.160 A 
ATOM     11  N   LIG    1        7.643  -4.834   2.878  0.00  0.00    -0.490 NA
ATOM     12  C   LIG    1        7.852  -6.109   3.063  0.00  0.00    +0.390 A 
ATOM     13  N   LIG    1        6.692  -6.771   2.861  0.00  0.00    -0.440 N 
ATOM     14  C   LIG    1        6.487  -8.218   2.967  0.00  0.00    +0.320 C 
ENDBRANCH   7   9
ENDBRANCH   1   3
BRANCH   1  15
ATOM     15  S   LIG    1        1.073  -6.259  -1.778  0.00  0.00    +2.700 S 
ATOM     16  O   LIG    1        1.233  -6.539  -3.162  0.00  0.00    -0.950 OA
ATOM     17  O   LIG    1        0.012  -6.789  -0.995  0.00  0.00    -0.950 OA
BRANCH  15  21
ATOM     18  C   LIG    1        0.777  -1.808  -1.336  0.00  0.00    +0.380 A 
ATOM     19  C   LIG    1        1.416  -2.317  -2.459  0.00  0.00    -0.060 A 
ATOM     20  C   LIG    1        1.517  -3.689  -2.612  0.00  0.00    +0.220 A 
ATOM     21  C   LIG    1        0.972  -4.506  -1.632  0.00  0.00    -0.780 A 
ATOM     22  C   LIG    1        0.350  -3.931  -0.542  0.00  0.00    +0.420 A 
ATOM     23  N   LIG    1        0.274  -2.620  -0.420  0.00  0.00    -0.550 NA
BRANCH  18  24
ATOM     24  O   LIG    1        0.671  -0.465  -1.174  0.00  0.00    -0.300 OA
BRANCH  24  26
ATOM     25  C   LIG    1       -0.019   1.526   0.010  0.00  0.00    +0.060 C 
ATOM     26  C   LIG    1        0.002  -0.004   0.002  0.00  0.00    +0.200 C 
ENDBRANCH  24  26
ENDBRANCH  18  24
ENDBRANCH  15  21
ENDBRANCH   1  15
TORSDOF 6
