REMARK  Name = ZINCtV00001bB3a1.0
REMARK                            x       y       z     vdW  Elec       q    Type
REMARK                         _______ _______ _______ _____ _____    ______ ____
ROOT
ATOM      1  C   LIG    1       -1.412  -0.526   0.013  0.00  0.00    -0.060 A 
ATOM      2  C   LIG    1       -2.044  -0.776   1.218  0.00  0.00    +0.030 A 
ATOM      3  C   LIG    1       -3.340  -1.249   1.235  0.00  0.00    +0.040 A 
ATOM      4  C   LIG    1       -4.010  -1.485   0.032  0.00  0.00    -0.120 A 
ATOM      5  C   LIG    1       -3.363  -1.236  -1.180  0.00  0.00    +0.080 A 
ATOM      6  C   LIG    1       -2.069  -0.758  -1.182  0.00  0.00    +0.040 A 
ENDROOT
BRANCH   4   7
ATOM      7  C   LIG    1       -5.396  -1.998   0.043  0.00  0.00    +0.580 C 
ATOM      8  N   LIG    1       -6.016  -2.237   1.215  0.00  0.00    -0.570 N 
ATOM      9  H   LIG    1       -5.554  -2.074   2.051  0.00  0.00    +0.390 HD
ATOM     10  O   LIG    1       -5.976  -2.203  -1.006  0.00  0.00    -0.490 OA
BRANCH   8  11
ATOM     11  N   LIG    1       -7.330  -2.723   1.225  0.00  0.00    -0.220 NA
ATOM     12  C   LIG    1       -7.930  -2.955   2.356  0.00  0.00    +0.170 C 
ATOM     13  C   LIG    1       -7.211  -2.701   3.656  0.00  0.00    +0.090 C 
BRANCH  12  14
ATOM     14  C   LIG    1       -9.305  -3.463   2.366  0.00  0.00    +0.010 A 
ATOM     15  C   LIG    1      -10.069  -3.730   1.268  0.00  0.00    +0.030 A 
ATOM     16  C   LIG    1      -11.309  -4.198   1.741  0.00  0.00    -0.060 A 
ATOM     17  C   LIG    1      -11.248  -4.187   3.089  0.00  0.00    +0.010 A 
ATOM     18  C   LIG    1      -12.357  -4.604   4.021  0.00  0.00    +0.180 C 
ATOM     19  O   LIG    1      -10.037  -3.743   3.463  0.00  0.00    -0.160 OA
ENDBRANCH  12  14
ENDBRANCH   8  11
ENDBRANCH   4   7
BRANCH   1  20
ATOM     20  C   LIG    1        0.002  -0.004   0.002  0.00  0.00    +0.240 C 
BRANCH  20  21
ATOM     21  O   LIG    1       -0.017   1.425   0.010  0.00  0.00    -0.310 OA
BRANCH  21  26
ATOM     22  C   LIG    1        4.966   4.053  -0.024  0.00  0.00    +0.100 C 
ATOM     23  C   LIG    1        3.633   3.349  -0.015  0.00  0.00    -0.080 A 
ATOM     24  C   LIG    1        3.012   3.034  -1.209  0.00  0.00    +0.080 A 
ATOM     25  C   LIG    1        1.789   2.389  -1.203  0.00  0.00    -0.100 A 
ATOM     26  C   LIG    1        1.185   2.058   0.002  0.00  0.00    +0.140 A 
ATOM     27  C   LIG    1        1.809   2.381   1.199  0.00  0.00    -0.100 A 
ATOM     28 BR   LIG    1        0.987   1.940   2.844  0.00  0.00    -0.020 Br
ATOM     29 BR   LIG    1        0.940   1.957  -2.837  0.00  0.00    -0.020 Br
ATOM     30  C   LIG    1        3.034   3.021   1.188  0.00  0.00    +0.080 A 
ENDBRANCH  21  26
ENDBRANCH  20  21
ENDBRANCH   1  20
TORSDOF 6
