REMARK  Name = ZINCvU00000008GU.0
REMARK                            x       y       z     vdW  Elec       q    Type
REMARK                         _______ _______ _______ _____ _____    ______ ____
ROOT
ATOM      1  C   LIG    1        3.585   7.182   1.448  0.00  0.00    +0.070 C 
ATOM      2  C   LIG    1        2.318   8.040   1.488  0.00  0.00    +0.040 C 
ATOM      3  C   LIG    1        1.089   7.134   1.579  0.00  0.00    +0.030 C 
ATOM      4  C   LIG    1        1.026   6.238   0.333  0.00  0.00    +0.260 C 
ATOM      5  N   LIG    1        2.300   5.516   0.212  0.00  0.00    -0.620 N 
ATOM      6  C   LIG    1        2.320   4.173   0.104  0.00  0.00    +0.710 C 
ATOM      7  N   LIG    1        1.164   3.487   0.005  0.00  0.00    -0.680 N 
ATOM      8  H   LIG    1        0.322   3.964  -0.072  0.00  0.00    +0.420 HD
ATOM      9  O   LIG    1        3.381   3.579   0.095  0.00  0.00    -0.560 OA
ATOM     10  C   LIG    1        3.551   6.286   0.206  0.00  0.00    +0.330 C 
ENDROOT
BRANCH   1  19
ATOM     11  N   LIG    1        5.791   8.101   2.320  0.00  0.00    -0.480 N 
ATOM     12  C   LIG    1        6.713   9.043   1.909  0.00  0.00    +0.060 A 
ATOM     13  C   LIG    1        7.914   9.509   2.424  0.00  0.00    +0.010 A 
ATOM     14  C   LIG    1        8.610  10.492   1.753  0.00  0.00    +0.030 A 
ATOM     15  C   LIG    1        8.118  11.017   0.566  0.00  0.00    +0.000 A 
ATOM     16  C   LIG    1        6.937  10.569   0.044  0.00  0.00    +0.070 A 
ATOM     17  C   LIG    1        6.214   9.575   0.707  0.00  0.00    +0.040 A 
ATOM     18  N   LIG    1        5.042   8.939   0.449  0.00  0.00    -0.480 NA
ATOM     19  C   LIG    1        4.797   8.076   1.391  0.00  0.00    +0.280 A 
BRANCH  11  21
ATOM     20  C   LIG    1        7.141   6.429   3.487  0.00  0.00    +0.050 C 
ATOM     21  C   LIG    1        5.870   7.279   3.530  0.00  0.00    +0.230 C 
ATOM     22  C   LIG    1        5.904   8.187   4.761  0.00  0.00    +0.040 C 
ENDBRANCH  11  21
ENDBRANCH   1  19
BRANCH   7  23
ATOM     23  C   LIG    1        1.177   2.087   0.012  0.00  0.00    +0.240 A 
ATOM     24  C   LIG    1        2.225   1.405   0.614  0.00  0.00    +0.060 A 
ATOM     25  C   LIG    1        2.236   0.024   0.620  0.00  0.00    +0.140 A 
ATOM     26  C   LIG    1        1.204  -0.680   0.028  0.00  0.00    -0.060 A 
ATOM     27  C   LIG    1        0.158  -0.004  -0.574  0.00  0.00    +0.150 A 
ATOM     28  C   LIG    1        0.141   1.378  -0.583  0.00  0.00    -0.080 A 
ATOM     29 CL   LIG    1       -1.169   2.226  -1.344  0.00  0.00    -0.030 Cl
BRANCH  26  30
ATOM     30  N   LIG    1        1.218  -2.160   0.036  0.00  0.00    +0.030 N 
ATOM     31  O   LIG    1        2.139  -2.757   0.566  0.00  0.00    -0.150 OA
ATOM     32  O   LIG    1        0.310  -2.781  -0.486  0.00  0.00    -0.160 OA
ENDBRANCH  26  30
ENDBRANCH   7  23
TORSDOF 4
