REMARK  Name = ZINCpk00000xIihW.0
REMARK                            x       y       z     vdW  Elec       q    Type
REMARK                         _______ _______ _______ _____ _____    ______ ____
ROOT
ATOM      1  C   LIG    1        1.272   0.209   6.079  0.00  0.00    -0.040 A 
ATOM      2  C   LIG    1        0.418   0.804   7.009  0.00  0.00    +0.110 A 
ATOM      3  C   LIG    1        0.649   0.637   8.359  0.00  0.00    +0.020 A 
ATOM      4  C   LIG    1        1.733  -0.106   8.791  0.00  0.00    +0.150 A 
ATOM      5  C   LIG    1        2.587  -0.694   7.875  0.00  0.00    -0.680 A 
ATOM      6  C   LIG    1        2.364  -0.541   6.522  0.00  0.00    +0.190 A 
ENDROOT
BRANCH   1  10
ATOM      7  C   LIG    1        0.174   0.961   2.735  0.00  0.00    +0.120 A 
ATOM      8  N   LIG    1        1.240   0.222   2.528  0.00  0.00    -0.290 NA
ATOM      9  N   LIG    1        1.749  -0.121   3.659  0.00  0.00    -0.260 NA
ATOM     10  C   LIG    1        1.026   0.377   4.632  0.00  0.00    +0.210 A 
ATOM     11  O   LIG    1        0.014   1.073   4.068  0.00  0.00    -0.200 OA
BRANCH   7  12
ATOM     12  S   LIG    1       -0.860   1.669   1.497  0.00  0.00    +0.160 S 
BRANCH  12  13
ATOM     13  C   LIG    1       -0.013   1.086   0.008  0.00  0.00    +0.100 C 
BRANCH  13  17
ATOM     14  N   LIG    1       -0.288   1.272  -2.443  0.00  0.00    -0.840 N 
ATOM     15  H   LIG    1       -0.758   1.594  -3.229  0.00  0.00    +0.410 HD
ATOM     16  H   LIG    1        0.507   0.726  -2.543  0.00  0.00    +0.410 HD
ATOM     17  C   LIG    1       -0.742   1.585  -1.213  0.00  0.00    +0.540 C 
ATOM     18  O   LIG    1       -1.736   2.268  -1.088  0.00  0.00    -0.530 OA
ENDBRANCH  13  17
ENDBRANCH  12  13
ENDBRANCH   7  12
ENDBRANCH   1  10
BRANCH   5  19
ATOM     19  S   LIG    1        3.964  -1.639   8.436  0.00  0.00    +2.690 S 
ATOM     20  O   LIG    1        4.297  -2.529   7.380  0.00  0.00    -0.950 OA
ATOM     21  O   LIG    1        3.641  -2.077   9.749  0.00  0.00    -0.950 OA
BRANCH  19  22
ATOM     22  N   LIG    1        5.243  -0.599   8.592  0.00  0.00    -0.990 NA
ATOM     23  C   LIG    1        6.156  -0.362   7.466  0.00  0.00    +0.290 C 
ATOM     24  C   LIG    1        6.240   1.152   7.215  0.00  0.00    +0.010 C 
ATOM     25  C   LIG    1        6.645   1.856   8.511  0.00  0.00    +0.020 C 
ATOM     26  C   LIG    1        5.583   1.605   9.584  0.00  0.00    +0.010 C 
ATOM     27  C   LIG    1        5.489   0.101   9.860  0.00  0.00    +0.290 C 
ENDBRANCH  19  22
ENDBRANCH   5  19
TORSDOF 6
