REMARK  Name = ZINCrH00000No4M5.0
REMARK                            x       y       z     vdW  Elec       q    Type
REMARK                         _______ _______ _______ _____ _____    ______ ____
ROOT
ATOM      1  N   LIG    1       -4.126   3.160  -3.111  0.00  0.00    -0.600 NA
ATOM      2  C   LIG    1       -4.947   2.542  -3.964  0.00  0.00    +0.380 A 
ATOM      3  S   LIG    1       -6.303   3.223  -4.779  0.00  0.00    +0.170 S 
ATOM      4  C   LIG    1       -6.729   1.731  -5.634  0.00  0.00    -0.050 A 
ATOM      5  C   LIG    1       -5.834   0.832  -5.245  0.00  0.00    +0.260 A 
ATOM      6  N   LIG    1       -4.888   1.250  -4.363  0.00  0.00    -0.520 N 
ENDROOT
BRANCH   1   7
ATOM      7  C   LIG    1       -3.029   2.548  -2.685  0.00  0.00    +0.490 C 
ATOM      8  O   LIG    1       -3.051   1.913  -1.647  0.00  0.00    -0.430 OA
BRANCH   7  17
ATOM      9  C   LIG    1        1.226   1.984  -4.372  0.00  0.00    +0.090 C 
ATOM     10  C   LIG    1        0.638   2.539  -3.073  0.00  0.00    +0.170 C 
ATOM     11  C   LIG    1        1.522   2.251  -1.844  0.00  0.00    +0.090 C 
ATOM     12  C   LIG    1        0.894   0.934  -1.329  0.00  0.00    +0.080 C 
ATOM     13  C   LIG    1       -0.530   0.974  -1.833  0.00  0.00    +0.540 C 
ATOM     14  O   LIG    1       -1.412   0.225  -1.467  0.00  0.00    -0.480 OA
ATOM     15  S   LIG    1        0.273   4.331  -3.175  0.00  0.00    -0.250 S 
ATOM     16  C   LIG    1       -1.452   4.121  -3.762  0.00  0.00    +0.160 C 
ATOM     17  C   LIG    1       -1.756   2.638  -3.487  0.00  0.00    +0.220 C 
ATOM     18  N   LIG    1       -0.685   1.960  -2.749  0.00  0.00    -0.620 N 
ENDBRANCH   7  17
ENDBRANCH   1   7
BRANCH   6  19
ATOM     19  C   LIG    1       -3.851   0.343  -3.865  0.00  0.00    +0.340 C 
BRANCH  19  20
ATOM     20  C   LIG    1       -4.500  -0.836  -3.186  0.00  0.00    -0.100 A 
ATOM     21  C   LIG    1       -4.352  -2.104  -3.714  0.00  0.00    +0.060 A 
ATOM     22  C   LIG    1       -4.946  -3.187  -3.092  0.00  0.00    +0.030 A 
ATOM     23  C   LIG    1       -5.688  -3.000  -1.940  0.00  0.00    -0.010 A 
ATOM     24  C   LIG    1       -5.837  -1.730  -1.410  0.00  0.00    +0.040 A 
ATOM     25 CL   LIG    1       -6.434  -4.359  -1.158  0.00  0.00    -0.050 Cl
ATOM     26  C   LIG    1       -5.238  -0.649  -2.031  0.00  0.00    -0.000 A 
ATOM     27 CL   LIG    1       -5.417   0.944  -1.364  0.00  0.00    -0.020 Cl
ENDBRANCH  19  20
ENDBRANCH   6  19
TORSDOF 4
