REMARK  Name = ZINCpk000000p8eN.0
REMARK                            x       y       z     vdW  Elec       q    Type
REMARK                         _______ _______ _______ _____ _____    ______ ____
ROOT
ATOM      1  N   LIG    1        1.611   4.929   1.373  0.00  0.00    -0.720 N 
ATOM      2  H   LIG    1        1.153   4.482   2.101  0.00  0.00    +0.400 HD
ATOM      3  C   LIG    1        2.337   6.039   1.614  0.00  0.00    +0.520 C 
ATOM      4  O   LIG    1        2.910   6.598   0.704  0.00  0.00    -0.510 OA
ENDROOT
BRANCH   1   5
ATOM      5  C   LIG    1        1.515   4.399   0.011  0.00  0.00    +0.380 C 
BRANCH   5   7
ATOM      6  C   LIG    1       -0.711   3.123   0.025  0.00  0.00    -0.020 A 
ATOM      7  C   LIG    1        0.653   3.163   0.012  0.00  0.00    +0.050 A 
ATOM      8  N   LIG    1        1.083   1.880   0.002  0.00  0.00    -0.550 N 
ATOM      9  H   LIG    1        2.007   1.586  -0.009  0.00  0.00    +0.430 HD
ATOM     10  C   LIG    1       -0.013   1.076   0.008  0.00  0.00    +0.430 A 
ATOM     11  N   LIG    1       -1.083   1.817   0.017  0.00  0.00    -0.440 NA
BRANCH   6  12
ATOM     12  C   LIG    1       -1.615   4.285   0.039  0.00  0.00    +0.550 C 
ATOM     13  O   LIG    1       -1.158   5.411   0.041  0.00  0.00    -0.500 OA
BRANCH  12  14
ATOM     14  O   LIG    1       -2.950   4.099   0.051  0.00  0.00    -0.340 OA
BRANCH  14  16
ATOM     15  C   LIG    1       -5.256   4.883   0.076  0.00  0.00    +0.070 C 
ATOM     16  C   LIG    1       -3.781   5.290   0.064  0.00  0.00    +0.200 C 
ENDBRANCH  14  16
ENDBRANCH  12  14
ENDBRANCH   6  12
ENDBRANCH   5   7
ENDBRANCH   1   5
BRANCH   3  17
ATOM     17  C   LIG    1        2.436   6.585   3.015  0.00  0.00    +0.210 C 
BRANCH  17  18
ATOM     18  O   LIG    1        3.253   7.756   3.014  0.00  0.00    -0.360 OA
BRANCH  18  19
ATOM     19  C   LIG    1        3.413   8.356   4.301  0.00  0.00    +0.230 C 
BRANCH  19  20
ATOM     20  C   LIG    1        4.288   9.577   4.182  0.00  0.00    -0.130 A 
ATOM     21  C   LIG    1        5.658   9.460   4.328  0.00  0.00    +0.070 A 
ATOM     22  C   LIG    1        6.463  10.577   4.214  0.00  0.00    -0.080 A 
ATOM     23  C   LIG    1        5.896  11.818   3.963  0.00  0.00    +0.140 A 
ATOM     24  C   LIG    1        4.520  11.933   3.823  0.00  0.00    -0.020 A 
ATOM     25  C   LIG    1        3.720  10.812   3.932  0.00  0.00    +0.070 A 
BRANCH  23  26
ATOM     26  O   LIG    1        6.685  12.919   3.857  0.00  0.00    -0.320 OA
ATOM     27  C   LIG    1        8.092  12.726   4.013  0.00  0.00    +0.250 C 
ENDBRANCH  23  26
ENDBRANCH  19  20
ENDBRANCH  18  19
ENDBRANCH  17  18
ENDBRANCH   3  17
TORSDOF 10
