REMARK  Name = ZINCpe00000MJLVX.0
REMARK                            x       y       z     vdW  Elec       q    Type
REMARK                         _______ _______ _______ _____ _____    ______ ____
ROOT
ATOM      1  N   LIG    1       -0.813  -0.067  -4.796  0.00  0.00    -0.990 NA
ENDROOT
BRANCH   1   2
ATOM      2  S   LIG    1        0.789   0.305  -4.606  0.00  0.00    +2.590 S 
ATOM      3  O   LIG    1        0.782   1.590  -4.000  0.00  0.00    -0.950 OA
ATOM      4  O   LIG    1        1.350   0.107  -5.897  0.00  0.00    -0.940 OA
ATOM      5  C   LIG    1        1.410  -0.943  -3.445  0.00  0.00    -0.280 C 
ENDBRANCH   1   2
BRANCH   1   6
ATOM      6  C   LIG    1       -1.222  -1.057  -5.795  0.00  0.00    +0.300 C 
BRANCH   6   7
ATOM      7  C   LIG    1       -1.616  -0.342  -7.089  0.00  0.00    +0.160 C 
BRANCH   7   8
ATOM      8  C   LIG    1       -2.067  -1.374  -8.125  0.00  0.00    -0.010 C 
ATOM      9  C   LIG    1       -0.880  -2.277  -8.523  0.00  0.00    +0.010 C 
ATOM     10  C   LIG    1       -1.086  -2.528 -10.037  0.00  0.00    +0.020 C 
ATOM     11  C   LIG    1       -1.608  -1.161 -10.543  0.00  0.00    -0.010 C 
ATOM     12  C   LIG    1       -2.529  -0.665  -9.409  0.00  0.00    +0.020 C 
ENDBRANCH   7   8
BRANCH   7  14
ATOM     13  C   LIG    1       -2.290   1.939  -6.800  0.00  0.00    +0.190 C 
ATOM     14  O   LIG    1       -2.686   0.567  -6.825  0.00  0.00    -0.370 OA
ENDBRANCH   7  14
ENDBRANCH   6   7
ENDBRANCH   1   6
BRANCH   1  15
ATOM     15  C   LIG    1       -1.822   0.594  -3.964  0.00  0.00    +0.450 C 
BRANCH  15  16
ATOM     16  C   LIG    1       -2.132  -0.270  -2.769  0.00  0.00    +0.150 A 
ATOM     17  N   LIG    1       -3.055  -1.194  -2.698  0.00  0.00    -0.270 NA
ATOM     18  N   LIG    1       -3.034  -1.741  -1.532  0.00  0.00    -0.280 NA
ATOM     19  C   LIG    1       -2.095  -1.198  -0.815  0.00  0.00    +0.170 A 
ATOM     20  C   LIG    1       -1.680  -1.556   0.589  0.00  0.00    +0.140 C 
ATOM     21  C   LIG    1       -1.496  -0.265   1.393  0.00  0.00    +0.230 C 
ATOM     22  O   LIG    1       -0.168   0.218   1.219  0.00  0.00    -0.370 OA
ATOM     23  C   LIG    1        0.402  -0.036  -0.066  0.00  0.00    +0.240 C 
ATOM     24  C   LIG    1       -0.432   0.656  -1.147  0.00  0.00    +0.270 C 
ATOM     25  N   LIG    1       -1.510  -0.236  -1.571  0.00  0.00    -0.470 N 
ENDBRANCH  15  16
ENDBRANCH   1  15
TORSDOF 7
