REMARK  Name = ZINCpe000000XQSE.0
REMARK                            x       y       z     vdW  Elec       q    Type
REMARK                         _______ _______ _______ _____ _____    ______ ____
ROOT
ATOM      1  C   LIG    1        1.687   2.415   8.848  0.00  0.00    +0.170 C 
ATOM      2  N   LIG    1        1.167   1.050   9.037  0.00  0.00    -0.710 N 
ATOM      3  H   LIG    1        1.428   0.421   9.728  0.00  0.00    +0.440 HD
ATOM      4  C   LIG    1        0.255   0.848   8.069  0.00  0.00    +0.710 C 
ATOM      5  N   LIG    1        0.119   1.909   7.265  0.00  0.00    -0.560 N 
ATOM      6  O   LIG    1       -0.373  -0.184   7.938  0.00  0.00    -0.540 OA
ATOM      7  C   LIG    1        1.385   3.284  10.071  0.00  0.00    +0.100 C 
ATOM      8  C   LIG    1        0.929   2.920   7.636  0.00  0.00    +0.540 C 
ATOM      9  O   LIG    1        1.030   4.008   7.110  0.00  0.00    -0.460 OA
ENDROOT
BRANCH   1  14
ATOM     10  C   LIG    1        7.367   2.301   7.794  0.00  0.00    +0.090 C 
ATOM     11  C   LIG    1        5.886   2.331   8.068  0.00  0.00    -0.070 A 
ATOM     12  C   LIG    1        5.327   1.423   8.949  0.00  0.00    +0.010 A 
ATOM     13  C   LIG    1        3.969   1.450   9.201  0.00  0.00    +0.030 A 
ATOM     14  C   LIG    1        3.168   2.386   8.573  0.00  0.00    -0.100 A 
ATOM     15  C   LIG    1        3.725   3.290   7.689  0.00  0.00    +0.040 A 
ATOM     16  C   LIG    1        5.085   3.266   7.440  0.00  0.00    +0.010 A 
ENDBRANCH   1  14
BRANCH   5  17
ATOM     17  C   LIG    1       -0.800   1.966   6.126  0.00  0.00    +0.360 C 
BRANCH  17  18
ATOM     18  C   LIG    1       -0.095   1.480   4.886  0.00  0.00    +0.500 C 
ATOM     19  N   LIG    1       -0.750   1.444   3.709  0.00  0.00    -0.720 N 
ATOM     20  H   LIG    1       -1.675   1.731   3.659  0.00  0.00    +0.400 HD
ATOM     21  O   LIG    1        1.062   1.121   4.948  0.00  0.00    -0.520 OA
BRANCH  19  22
ATOM     22  C   LIG    1       -0.064   0.971   2.503  0.00  0.00    +0.240 C 
ATOM     23  C   LIG    1       -0.152  -0.554   2.432  0.00  0.00    +0.020 C 
BRANCH  22  24
ATOM     24  C   LIG    1       -0.729   1.579   1.267  0.00  0.00    -0.010 C 
ATOM     25  C   LIG    1       -0.641   3.105   1.339  0.00  0.00    +0.040 C 
BRANCH  24  26
ATOM     26  C   LIG    1       -0.013   1.086   0.008  0.00  0.00    +0.180 C 
BRANCH  26  27
ATOM     27  O   LIG    1       -0.704   1.559  -1.150  0.00  0.00    -0.570 OA
ATOM     28  H   LIG    1       -0.304   1.284  -1.986  0.00  0.00    +0.380 HD
ENDBRANCH  26  27
ENDBRANCH  24  26
ENDBRANCH  22  24
ENDBRANCH  19  22
ENDBRANCH  17  18
ENDBRANCH   5  17
TORSDOF 7
