REMARK  Name = ZINCvU0000000D5u.0
REMARK                            x       y       z     vdW  Elec       q    Type
REMARK                         _______ _______ _______ _____ _____    ______ ____
ROOT
ATOM      1  C   LIG    1        0.259   0.954  -0.032  0.00  0.00    +0.570 C 
ATOM      2  N   LIG    1        0.013  -0.182   0.650  0.00  0.00    -0.600 N 
ATOM      3  C   LIG    1        1.049  -1.216   0.792  0.00  0.00    +0.300 C 
ATOM      4  C   LIG    1        1.425  -1.331   2.273  0.00  0.00    +0.110 C 
ATOM      5  C   LIG    1        0.159  -1.357   3.104  0.00  0.00    -0.170 A 
ATOM      6  C   LIG    1       -1.054  -0.954   2.680  0.00  0.00    -0.110 A 
ATOM      7  C   LIG    1       -2.053  -1.073   3.641  0.00  0.00    +0.020 A 
ATOM      8  C   LIG    1       -1.667  -1.565   4.813  0.00  0.00    -0.040 A 
ATOM      9  S   LIG    1        0.053  -1.919   4.767  0.00  0.00    +0.110 S 
ATOM     10  C   LIG    1       -1.295  -0.418   1.277  0.00  0.00    +0.350 C 
ATOM     11  O   LIG    1        1.349   1.134  -0.540  0.00  0.00    -0.530 OA
ENDROOT
BRANCH   1  15
ATOM     12  C   LIG    1       -2.769   3.910  -0.396  0.00  0.00    +0.170 A 
ATOM     13  C   LIG    1       -1.428   4.283  -0.412  0.00  0.00    -0.010 A 
ATOM     14  C   LIG    1       -0.445   3.327  -0.295  0.00  0.00    +0.100 A 
ATOM     15  C   LIG    1       -0.793   1.981  -0.158  0.00  0.00    -0.150 A 
ATOM     16  C   LIG    1       -2.140   1.609  -0.147  0.00  0.00    +0.060 A 
ATOM     17  C   LIG    1       -3.119   2.570  -0.260  0.00  0.00    +0.020 A 
BRANCH  12  20
ATOM     18  O   LIG    1       -5.167   3.695   0.734  0.00  0.00    -0.490 OA
ATOM     19  C   LIG    1       -4.973   4.675   0.039  0.00  0.00    +0.610 C 
ATOM     20  N   LIG    1       -3.762   4.879  -0.515  0.00  0.00    -0.660 N 
ATOM     21  H   LIG    1       -3.582   5.702  -0.997  0.00  0.00    +0.420 HD
BRANCH  19  22
ATOM     22  C   LIG    1       -6.057   5.634  -0.195  0.00  0.00    -0.090 A 
ATOM     23  C   LIG    1       -7.328   5.545   0.299  0.00  0.00    +0.060 A 
ATOM     24  C   LIG    1       -8.023   6.671  -0.170  0.00  0.00    -0.070 A 
ATOM     25  C   LIG    1       -7.160   7.383  -0.928  0.00  0.00    +0.220 A 
ATOM     26  O   LIG    1       -5.977   6.755  -0.941  0.00  0.00    -0.170 OA
ENDBRANCH  19  22
ENDBRANCH  12  20
ENDBRANCH   1  15
BRANCH  10  27
ATOM     27  C   LIG    1       -2.071  -1.430   0.475  0.00  0.00    -0.100 A 
ATOM     28  C   LIG    1       -3.373  -1.161   0.097  0.00  0.00    +0.010 A 
ATOM     29  C   LIG    1       -4.083  -2.087  -0.643  0.00  0.00    +0.020 A 
ATOM     30  C   LIG    1       -3.495  -3.287  -0.997  0.00  0.00    +0.010 A 
ATOM     31  C   LIG    1       -2.195  -3.558  -0.615  0.00  0.00    +0.000 A 
ATOM     32  C   LIG    1       -1.483  -2.630   0.121  0.00  0.00    +0.020 A 
ENDBRANCH  10  27
TORSDOF 4
