REMARK  Name = ZINCkj000005hHvY.0
REMARK                            x       y       z     vdW  Elec       q    Type
REMARK                         _______ _______ _______ _____ _____    ______ ____
ROOT
ATOM      1  N   LIG    1       -3.132   2.480  -1.383  0.00  0.00    -0.500 N 
ATOM      2  H   LIG    1       -3.053   2.362  -2.382  0.00  0.00    +0.430 HD
ATOM      3  H   LIG    1       -2.847   3.414  -1.130  0.00  0.00    +0.430 HD
ENDROOT
BRANCH   1   8
ATOM      4  C   LIG    1       -0.223   1.771   2.415  0.00  0.00    +0.670 C 
ATOM      5  N   LIG    1       -0.746   1.583   1.187  0.00  0.00    -0.610 N 
ATOM      6  C   LIG    1       -0.013   1.086   0.008  0.00  0.00    +0.300 C 
ATOM      7  C   LIG    1       -0.806   1.621  -1.210  0.00  0.00    +0.070 C 
ATOM      8  C   LIG    1       -2.269   1.504  -0.705  0.00  0.00    +0.170 C 
ATOM      9  C   LIG    1       -2.143   1.837   0.797  0.00  0.00    +0.320 C 
ATOM     10  O   LIG    1       -0.924   2.187   3.316  0.00  0.00    -0.550 OA
BRANCH   4  12
ATOM     11  C   LIG    1        1.571   1.727   3.988  0.00  0.00    +0.300 C 
ATOM     12  O   LIG    1        1.076   1.500   2.642  0.00  0.00    -0.360 OA
ENDBRANCH   4  12
ENDBRANCH   1   8
BRANCH   1  13
ATOM     13  C   LIG    1       -4.527   2.267  -0.974  0.00  0.00    +0.320 C 
BRANCH  13  14
ATOM     14  C   LIG    1       -5.413   3.268  -1.670  0.00  0.00    -0.140 A 
ATOM     15  C   LIG    1       -5.674   4.489  -1.077  0.00  0.00    +0.030 A 
ATOM     16  C   LIG    1       -6.483   5.409  -1.717  0.00  0.00    +0.110 A 
ATOM     17  C   LIG    1       -7.039   5.104  -2.946  0.00  0.00    -0.430 A 
ATOM     18  C   LIG    1       -6.782   3.881  -3.536  0.00  0.00    +0.090 A 
ATOM     19  C   LIG    1       -5.969   2.962  -2.898  0.00  0.00    +0.020 A 
BRANCH  17  20
ATOM     20  S   LIG    1       -8.075   6.274  -3.759  0.00  0.00    +1.340 S 
ATOM     21  O   LIG    1       -7.973   5.896  -5.125  0.00  0.00    -0.840 OA
ATOM     22  C   LIG    1       -9.727   5.858  -3.138  0.00  0.00    -0.190 C 
ENDBRANCH  17  20
ENDBRANCH  13  14
ENDBRANCH   1  13
TORSDOF 5
